MODEL 1
REMARK VINA RESULT:      -9.5      0.000      0.000
REMARK  2 active torsions:
REMARK  status: ('A' for Active; 'I' for Inactive)
REMARK       I    between atoms: C12_16  and  N1_4 
REMARK    1  A    between atoms: C8_12  and  N1_4 
REMARK    2  A    between atoms: C12_16  and  C5_9 
ROOT
HETATM    1  O1  UNK     1      19.555  -1.297  14.349  1.00  0.00    -0.304 OA
HETATM    2  O2  UNK     1      18.179  -5.004  13.354  1.00  0.00    -0.287 OA
HETATM    3  C1  UNK     1      19.490  -3.129  12.753  1.00  0.00     0.048 A 
HETATM    4  C2  UNK     1      19.924  -1.864  13.155  1.00  0.00     0.090 A 
HETATM    5  C3  UNK     1      19.896  -3.657  11.526  1.00  0.00     0.025 A 
HETATM    6  C4  UNK     1      20.741  -2.911  10.702  1.00  0.00    -0.061 A 
HETATM    7  C5  UNK     1      18.721  -2.020  15.175  1.00  0.00     0.147 A 
HETATM    8  C6  UNK     1      18.599  -3.892  13.643  1.00  0.00     0.187 A 
HETATM    9  C7  UNK     1      20.767  -1.122  12.330  1.00  0.00     0.039 A 
HETATM   10  C9  UNK     1      18.231  -3.239  14.916  1.00  0.00     0.098 A 
HETATM   11  C10 UNK     1      21.176  -1.647  11.103  1.00  0.00     0.009 A 
HETATM   12  C13 UNK     1      21.179  -3.467   9.390  1.00  0.00     0.048 C 
ENDROOT
BRANCH   7  13
HETATM   13  C12 UNK     1      18.339  -1.396  16.444  1.00  0.00     0.280 C 
HETATM   14  O3  UNK     1      17.343  -1.796  17.049  1.00  0.00    -0.265 OA
HETATM   15  N1  UNK     1      19.206  -0.375  16.811  1.00  0.00    -0.321 N 
HETATM   16  H5  UNK     1      19.980  -0.184  16.179  1.00  0.00     0.169 HD
BRANCH  15  17
HETATM   17  C8  UNK     1      19.143   0.441  17.967  1.00  0.00     0.041 A 
HETATM   18  C11 UNK     1      19.165   1.833  17.862  1.00  0.00    -0.035 A 
HETATM   19  C15 UNK     1      19.103   2.619  19.012  1.00  0.00     0.009 A 
HETATM   20  C16 UNK     1      19.255   2.507  16.531  1.00  0.00     0.050 C 
HETATM   21  C18 UNK     1      19.020   2.015  20.267  1.00  0.00     0.001 A 
HETATM   22  C17 UNK     1      18.999   0.625  20.371  1.00  0.00     0.002 A 
HETATM   23  C14 UNK     1      19.060  -0.162  19.221  1.00  0.00     0.030 A 
ENDBRANCH  15  17
ENDBRANCH   7  13
TORSDOF 2
ENDMDL
MODEL 2
REMARK VINA RESULT:      -9.5     14.876     18.345
REMARK  2 active torsions:
REMARK  status: ('A' for Active; 'I' for Inactive)
REMARK       I    between atoms: C12_16  and  N1_4 
REMARK    1  A    between atoms: C8_12  and  N1_4 
REMARK    2  A    between atoms: C12_16  and  C5_9 
ROOT
HETATM    1  O1  UNK     1      17.956   3.803  32.149  1.00  0.00    -0.304 OA
HETATM    2  O2  UNK     1      19.546   6.676  29.731  1.00  0.00    -0.287 OA
HETATM    3  C1  UNK     1      18.504   6.143  31.786  1.00  0.00     0.048 A 
HETATM    4  C2  UNK     1      17.974   5.111  32.563  1.00  0.00     0.090 A 
HETATM    5  C3  UNK     1      18.494   7.457  32.257  1.00  0.00     0.025 A 
HETATM    6  C4  UNK     1      17.951   7.734  33.514  1.00  0.00    -0.061 A 
HETATM    7  C5  UNK     1      18.488   3.513  30.910  1.00  0.00     0.147 A 
HETATM    8  C6  UNK     1      19.069   5.822  30.464  1.00  0.00     0.187 A 
HETATM    9  C7  UNK     1      17.432   5.391  33.817  1.00  0.00     0.039 A 
HETATM   10  C9  UNK     1      19.027   4.400  30.065  1.00  0.00     0.098 A 
HETATM   11  C10 UNK     1      17.422   6.703  34.292  1.00  0.00     0.009 A 
HETATM   12  C13 UNK     1      17.936   9.135  34.025  1.00  0.00     0.048 C 
ENDROOT
BRANCH   7  13
HETATM   13  C12 UNK     1      18.459   2.111  30.487  1.00  0.00     0.280 C 
HETATM   14  O3  UNK     1      17.503   1.687  29.837  1.00  0.00    -0.265 OA
HETATM   15  N1  UNK     1      19.584   1.411  30.906  1.00  0.00    -0.321 N 
HETATM   16  H5  UNK     1      20.274   1.933  31.439  1.00  0.00     0.169 HD
BRANCH  15  17
HETATM   17  C8  UNK     1      19.888   0.046  30.681  1.00  0.00     0.041 A 
HETATM   18  C11 UNK     1      19.551  -0.927  31.623  1.00  0.00    -0.035 A 
HETATM   19  C15 UNK     1      19.860  -2.265  31.383  1.00  0.00     0.009 A 
HETATM   20  C16 UNK     1      18.861  -0.563  32.898  1.00  0.00     0.050 C 
HETATM   21  C18 UNK     1      20.506  -2.632  30.202  1.00  0.00     0.001 A 
HETATM   22  C17 UNK     1      20.842  -1.659  29.261  1.00  0.00     0.002 A 
HETATM   23  C14 UNK     1      20.533  -0.321  29.500  1.00  0.00     0.030 A 
ENDBRANCH  15  17
ENDBRANCH   7  13
TORSDOF 2
ENDMDL
MODEL 3
REMARK VINA RESULT:      -9.4     14.513     18.861
REMARK  2 active torsions:
REMARK  status: ('A' for Active; 'I' for Inactive)
REMARK       I    between atoms: C12_16  and  N1_4 
REMARK    1  A    between atoms: C8_12  and  N1_4 
REMARK    2  A    between atoms: C12_16  and  C5_9 
ROOT
HETATM    1  O1  UNK     1      17.065   5.022  32.331  1.00  0.00    -0.304 OA
HETATM    2  O2  UNK     1      20.569   6.988  33.028  1.00  0.00    -0.287 OA
HETATM    3  C1  UNK     1      18.206   7.072  32.966  1.00  0.00     0.048 A 
HETATM    4  C2  UNK     1      17.044   6.340  32.711  1.00  0.00     0.090 A 
HETATM    5  C3  UNK     1      18.126   8.412  33.349  1.00  0.00     0.025 A 
HETATM    6  C4  UNK     1      16.874   9.017  33.476  1.00  0.00    -0.061 A 
HETATM    7  C5  UNK     1      18.293   4.409  32.200  1.00  0.00     0.147 A 
HETATM    8  C6  UNK     1      19.512   6.407  32.823  1.00  0.00     0.187 A 
HETATM    9  C7  UNK     1      15.796   6.948  32.839  1.00  0.00     0.039 A 
HETATM   10  C9  UNK     1      19.481   4.988  32.412  1.00  0.00     0.098 A 
HETATM   11  C10 UNK     1      15.712   8.287  33.222  1.00  0.00     0.009 A 
HETATM   12  C13 UNK     1      16.778  10.449  33.884  1.00  0.00     0.048 C 
ENDROOT
BRANCH   7  13
HETATM   13  C12 UNK     1      18.293   3.002  31.794  1.00  0.00     0.280 C 
HETATM   14  O3  UNK     1      17.592   2.189  32.398  1.00  0.00    -0.265 OA
HETATM   15  N1  UNK     1      19.138   2.764  30.717  1.00  0.00    -0.321 N 
HETATM   16  H5  UNK     1      19.642   3.565  30.347  1.00  0.00     0.169 HD
BRANCH  15  17
HETATM   17  C8  UNK     1      19.386   1.531  30.067  1.00  0.00     0.041 A 
HETATM   18  C11 UNK     1      18.715   1.194  28.891  1.00  0.00    -0.035 A 
HETATM   19  C15 UNK     1      18.973  -0.026  28.266  1.00  0.00     0.009 A 
HETATM   20  C16 UNK     1      17.715   2.120  28.278  1.00  0.00     0.050 C 
HETATM   21  C18 UNK     1      19.901  -0.910  28.817  1.00  0.00     0.001 A 
HETATM   22  C17 UNK     1      20.572  -0.573  29.993  1.00  0.00     0.002 A 
HETATM   23  C14 UNK     1      20.314   0.646  30.618  1.00  0.00     0.030 A 
ENDBRANCH  15  17
ENDBRANCH   7  13
TORSDOF 2
ENDMDL
MODEL 4
REMARK VINA RESULT:      -9.2      1.703      2.437
REMARK  2 active torsions:
REMARK  status: ('A' for Active; 'I' for Inactive)
REMARK       I    between atoms: C12_16  and  N1_4 
REMARK    1  A    between atoms: C8_12  and  N1_4 
REMARK    2  A    between atoms: C12_16  and  C5_9 
ROOT
HETATM    1  O1  UNK     1      19.179  -3.701  15.695  1.00  0.00    -0.304 OA
HETATM    2  O2  UNK     1      18.939  -2.337  11.860  1.00  0.00    -0.287 OA
HETATM    3  C1  UNK     1      19.550  -4.090  13.325  1.00  0.00     0.048 A 
HETATM    4  C2  UNK     1      19.605  -4.495  14.660  1.00  0.00     0.090 A 
HETATM    5  C3  UNK     1      19.999  -4.939  12.311  1.00  0.00     0.025 A 
HETATM    6  C4  UNK     1      20.503  -6.198  12.642  1.00  0.00    -0.061 A 
HETATM    7  C5  UNK     1      18.678  -2.454  15.386  1.00  0.00     0.147 A 
HETATM    8  C6  UNK     1      19.014  -2.756  13.006  1.00  0.00     0.187 A 
HETATM    9  C7  UNK     1      20.109  -5.753  14.987  1.00  0.00     0.039 A 
HETATM   10  C9  UNK     1      18.568  -1.940  14.155  1.00  0.00     0.098 A 
HETATM   11  C10 UNK     1      20.558  -6.604  13.976  1.00  0.00     0.009 A 
HETATM   12  C13 UNK     1      20.985  -7.112  11.566  1.00  0.00     0.048 C 
ENDROOT
BRANCH   7  13
HETATM   13  C12 UNK     1      18.229  -1.623  16.505  1.00  0.00     0.280 C 
HETATM   14  O3  UNK     1      17.115  -1.807  16.998  1.00  0.00    -0.265 OA
HETATM   15  N1  UNK     1      19.180  -0.682  16.878  1.00  0.00    -0.321 N 
HETATM   16  H5  UNK     1      20.049  -0.678  16.350  1.00  0.00     0.169 HD
BRANCH  15  17
HETATM   17  C8  UNK     1      19.087   0.282  17.911  1.00  0.00     0.041 A 
HETATM   18  C11 UNK     1      19.143   1.647  17.623  1.00  0.00    -0.035 A 
HETATM   19  C15 UNK     1      19.050   2.580  18.655  1.00  0.00     0.009 A 
HETATM   20  C16 UNK     1      19.303   2.136  16.221  1.00  0.00     0.050 C 
HETATM   21  C18 UNK     1      18.901   2.151  19.974  1.00  0.00     0.001 A 
HETATM   22  C17 UNK     1      18.845   0.787  20.261  1.00  0.00     0.002 A 
HETATM   23  C14 UNK     1      18.938  -0.147  19.230  1.00  0.00     0.030 A 
ENDBRANCH  15  17
ENDBRANCH   7  13
TORSDOF 2
ENDMDL
MODEL 5
REMARK VINA RESULT:      -9.1     16.072     20.254
REMARK  2 active torsions:
REMARK  status: ('A' for Active; 'I' for Inactive)
REMARK       I    between atoms: C12_16  and  N1_4 
REMARK    1  A    between atoms: C8_12  and  N1_4 
REMARK    2  A    between atoms: C12_16  and  C5_9 
ROOT
HETATM    1  O1  UNK     1      20.377  -2.888  33.949  1.00  0.00    -0.304 OA
HETATM    2  O2  UNK     1      17.949   0.383  33.766  1.00  0.00    -0.287 OA
HETATM    3  C1  UNK     1      19.400  -1.098  32.627  1.00  0.00     0.048 A 
HETATM    4  C2  UNK     1      20.216  -2.223  32.760  1.00  0.00     0.090 A 
HETATM    5  C3  UNK     1      19.274  -0.460  31.392  1.00  0.00     0.025 A 
HETATM    6  C4  UNK     1      19.970  -0.955  30.288  1.00  0.00    -0.061 A 
HETATM    7  C5  UNK     1      19.696  -2.412  35.050  1.00  0.00     0.147 A 
HETATM    8  C6  UNK     1      18.678  -0.598  33.810  1.00  0.00     0.187 A 
HETATM    9  C7  UNK     1      20.910  -2.715  31.655  1.00  0.00     0.039 A 
HETATM   10  C9  UNK     1      18.884  -1.349  35.065  1.00  0.00     0.098 A 
HETATM   11  C10 UNK     1      20.786  -2.080  30.419  1.00  0.00     0.009 A 
HETATM   12  C13 UNK     1      19.843  -0.279  28.964  1.00  0.00     0.048 C 
ENDROOT
BRANCH   7  13
HETATM   13  C12 UNK     1      19.882  -3.136  36.309  1.00  0.00     0.280 C 
HETATM   14  O3  UNK     1      20.068  -2.511  37.354  1.00  0.00    -0.265 OA
HETATM   15  N1  UNK     1      19.821  -4.514  36.140  1.00  0.00    -0.321 N 
HETATM   16  H5  UNK     1      19.660  -4.850  35.194  1.00  0.00     0.169 HD
BRANCH  15  17
HETATM   17  C8  UNK     1      19.959  -5.516  37.131  1.00  0.00     0.041 A 
HETATM   18  C11 UNK     1      18.953  -6.462  37.337  1.00  0.00    -0.035 A 
HETATM   19  C15 UNK     1      19.108  -7.440  38.318  1.00  0.00     0.009 A 
HETATM   20  C16 UNK     1      17.702  -6.450  36.520  1.00  0.00     0.050 C 
HETATM   21  C18 UNK     1      20.266  -7.473  39.095  1.00  0.00     0.001 A 
HETATM   22  C17 UNK     1      21.270  -6.527  38.890  1.00  0.00     0.002 A 
HETATM   23  C14 UNK     1      21.117  -5.549  37.908  1.00  0.00     0.030 A 
ENDBRANCH  15  17
ENDBRANCH   7  13
TORSDOF 2
ENDMDL
MODEL 6
REMARK VINA RESULT:      -9.0     19.546     22.220
REMARK  2 active torsions:
REMARK  status: ('A' for Active; 'I' for Inactive)
REMARK       I    between atoms: C12_16  and  N1_4 
REMARK    1  A    between atoms: C8_12  and  N1_4 
REMARK    2  A    between atoms: C12_16  and  C5_9 
ROOT
HETATM    1  O1  UNK     1      19.863  -5.474  37.687  1.00  0.00    -0.304 OA
HETATM    2  O2  UNK     1      19.853  -7.524  34.162  1.00  0.00    -0.287 OA
HETATM    3  C1  UNK     1      19.817  -7.609  36.525  1.00  0.00     0.048 A 
HETATM    4  C2  UNK     1      19.824  -6.846  37.695  1.00  0.00     0.090 A 
HETATM    5  C3  UNK     1      19.777  -9.003  36.592  1.00  0.00     0.025 A 
HETATM    6  C4  UNK     1      19.743  -9.631  37.839  1.00  0.00    -0.061 A 
HETATM    7  C5  UNK     1      19.897  -4.838  36.464  1.00  0.00     0.147 A 
HETATM    8  C6  UNK     1      19.854  -6.919  35.224  1.00  0.00     0.187 A 
HETATM    9  C7  UNK     1      19.790  -7.476  38.938  1.00  0.00     0.039 A 
HETATM   10  C9  UNK     1      19.895  -5.443  35.270  1.00  0.00     0.098 A 
HETATM   11  C10 UNK     1      19.750  -8.869  39.008  1.00  0.00     0.009 A 
HETATM   12  C13 UNK     1      19.702 -11.119  37.921  1.00  0.00     0.048 C 
ENDROOT
BRANCH   7  13
HETATM   13  C12 UNK     1      19.939  -3.374  36.478  1.00  0.00     0.280 C 
HETATM   14  O3  UNK     1      21.023  -2.792  36.426  1.00  0.00    -0.265 OA
HETATM   15  N1  UNK     1      18.672  -2.811  36.556  1.00  0.00    -0.321 N 
HETATM   16  H5  UNK     1      17.887  -3.457  36.592  1.00  0.00     0.169 HD
BRANCH  15  17
HETATM   17  C8  UNK     1      18.336  -1.436  36.593  1.00  0.00     0.041 A 
HETATM   18  C11 UNK     1      18.363  -0.662  35.432  1.00  0.00    -0.035 A 
HETATM   19  C15 UNK     1      18.030   0.691  35.489  1.00  0.00     0.009 A 
HETATM   20  C16 UNK     1      18.746  -1.255  34.115  1.00  0.00     0.050 C 
HETATM   21  C18 UNK     1      17.669   1.271  36.706  1.00  0.00     0.001 A 
HETATM   22  C17 UNK     1      17.642   0.497  37.865  1.00  0.00     0.002 A 
HETATM   23  C14 UNK     1      17.975  -0.856  37.809  1.00  0.00     0.030 A 
ENDBRANCH  15  17
ENDBRANCH   7  13
TORSDOF 2
ENDMDL
MODEL 7
REMARK VINA RESULT:      -8.9     14.995     18.760
REMARK  2 active torsions:
REMARK  status: ('A' for Active; 'I' for Inactive)
REMARK       I    between atoms: C12_16  and  N1_4 
REMARK    1  A    between atoms: C8_12  and  N1_4 
REMARK    2  A    between atoms: C12_16  and  C5_9 
ROOT
HETATM    1  O1  UNK     1      17.033   4.768  31.715  1.00  0.00    -0.304 OA
HETATM    2  O2  UNK     1      20.603   6.655  32.280  1.00  0.00    -0.287 OA
HETATM    3  C1  UNK     1      18.245   6.746  32.439  1.00  0.00     0.048 A 
HETATM    4  C2  UNK     1      17.059   6.043  32.220  1.00  0.00     0.090 A 
HETATM    5  C3  UNK     1      18.212   8.043  32.955  1.00  0.00     0.025 A 
HETATM    6  C4  UNK     1      16.982   8.634  33.252  1.00  0.00    -0.061 A 
HETATM    7  C5  UNK     1      18.239   4.169  31.416  1.00  0.00     0.147 A 
HETATM    8  C6  UNK     1      19.527   6.097  32.116  1.00  0.00     0.187 A 
HETATM    9  C7  UNK     1      15.832   6.636  32.518  1.00  0.00     0.039 A 
HETATM   10  C9  UNK     1      19.446   4.725  31.575  1.00  0.00     0.098 A 
HETATM   11  C10 UNK     1      15.796   7.933  33.035  1.00  0.00     0.009 A 
HETATM   12  C13 UNK     1      16.937  10.019  33.803  1.00  0.00     0.048 C 
ENDROOT
BRANCH   7  13
HETATM   13  C12 UNK     1      18.189   2.809  30.877  1.00  0.00     0.280 C 
HETATM   14  O3  UNK     1      17.205   2.440  30.234  1.00  0.00    -0.265 OA
HETATM   15  N1  UNK     1      19.327   2.076  31.188  1.00  0.00    -0.321 N 
HETATM   16  H5  UNK     1      20.041   2.552  31.734  1.00  0.00     0.169 HD
BRANCH  15  17
HETATM   17  C8  UNK     1      19.618   0.736  30.835  1.00  0.00     0.041 A 
HETATM   18  C11 UNK     1      19.244  -0.320  31.668  1.00  0.00    -0.035 A 
HETATM   19  C15 UNK     1      19.541  -1.633  31.303  1.00  0.00     0.009 A 
HETATM   20  C16 UNK     1      18.525  -0.074  32.954  1.00  0.00     0.050 C 
HETATM   21  C18 UNK     1      20.212  -1.891  30.107  1.00  0.00     0.001 A 
HETATM   22  C17 UNK     1      20.586  -0.835  29.276  1.00  0.00     0.002 A 
HETATM   23  C14 UNK     1      20.290   0.478  29.640  1.00  0.00     0.030 A 
ENDBRANCH  15  17
ENDBRANCH   7  13
TORSDOF 2
ENDMDL
MODEL 8
REMARK VINA RESULT:      -8.8     20.188     22.926
REMARK  2 active torsions:
REMARK  status: ('A' for Active; 'I' for Inactive)
REMARK       I    between atoms: C12_16  and  N1_4 
REMARK    1  A    between atoms: C8_12  and  N1_4 
REMARK    2  A    between atoms: C12_16  and  C5_9 
ROOT
HETATM    1  O1  UNK     1      19.288  -2.933  37.624  1.00  0.00    -0.304 OA
HETATM    2  O2  UNK     1      20.040  -1.670  33.821  1.00  0.00    -0.287 OA
HETATM    3  C1  UNK     1      19.076  -1.203  35.930  1.00  0.00     0.048 A 
HETATM    4  C2  UNK     1      18.852  -1.698  37.217  1.00  0.00     0.090 A 
HETATM    5  C3  UNK     1      18.609   0.062  35.569  1.00  0.00     0.025 A 
HETATM    6  C4  UNK     1      17.915   0.832  36.504  1.00  0.00    -0.061 A 
HETATM    7  C5  UNK     1      19.975  -3.707  36.713  1.00  0.00     0.147 A 
HETATM    8  C6  UNK     1      19.811  -2.038  34.964  1.00  0.00     0.187 A 
HETATM    9  C7  UNK     1      18.159  -0.926  38.148  1.00  0.00     0.039 A 
HETATM   10  C9  UNK     1      20.259  -3.359  35.451  1.00  0.00     0.098 A 
HETATM   11  C10 UNK     1      17.691   0.339  37.790  1.00  0.00     0.009 A 
HETATM   12  C13 UNK     1      17.412   2.184  36.127  1.00  0.00     0.048 C 
ENDROOT
BRANCH   7  13
HETATM   13  C12 UNK     1      20.431  -5.021  37.168  1.00  0.00     0.280 C 
HETATM   14  O3  UNK     1      21.637  -5.270  37.214  1.00  0.00    -0.265 OA
HETATM   15  N1  UNK     1      19.375  -5.859  37.503  1.00  0.00    -0.321 N 
HETATM   16  H5  UNK     1      18.438  -5.477  37.398  1.00  0.00     0.169 HD
BRANCH  15  17
HETATM   17  C8  UNK     1      19.442  -7.192  37.976  1.00  0.00     0.041 A 
HETATM   18  C11 UNK     1      18.922  -8.246  37.223  1.00  0.00    -0.035 A 
HETATM   19  C15 UNK     1      18.998  -9.551  37.706  1.00  0.00     0.009 A 
HETATM   20  C16 UNK     1      18.279  -8.004  35.896  1.00  0.00     0.050 C 
HETATM   21  C18 UNK     1      19.593  -9.805  38.943  1.00  0.00     0.001 A 
HETATM   22  C17 UNK     1      20.112  -8.752  39.695  1.00  0.00     0.002 A 
HETATM   23  C14 UNK     1      20.037  -7.446  39.212  1.00  0.00     0.030 A 
ENDBRANCH  15  17
ENDBRANCH   7  13
TORSDOF 2
ENDMDL
MODEL 9
REMARK VINA RESULT:      -8.6     12.117     14.105
REMARK  2 active torsions:
REMARK  status: ('A' for Active; 'I' for Inactive)
REMARK       I    between atoms: C12_16  and  N1_4 
REMARK    1  A    between atoms: C8_12  and  N1_4 
REMARK    2  A    between atoms: C12_16  and  C5_9 
ROOT
HETATM    1  O1  UNK     1      14.156   9.052   8.838  1.00  0.00    -0.304 OA
HETATM    2  O2  UNK     1      17.244   7.439  10.956  1.00  0.00    -0.287 OA
HETATM    3  C1  UNK     1      16.464   9.202   9.587  1.00  0.00     0.048 A 
HETATM    4  C2  UNK     1      15.366   9.698   8.881  1.00  0.00     0.090 A 
HETATM    5  C3  UNK     1      17.672   9.901   9.595  1.00  0.00     0.025 A 
HETATM    6  C4  UNK     1      17.776  11.103   8.892  1.00  0.00    -0.061 A 
HETATM    7  C5  UNK     1      14.036   7.864   9.528  1.00  0.00     0.147 A 
HETATM    8  C6  UNK     1      16.324   7.932  10.320  1.00  0.00     0.187 A 
HETATM    9  C7  UNK     1      15.474  10.898   8.179  1.00  0.00     0.039 A 
HETATM   10  C9  UNK     1      15.002   7.276  10.243  1.00  0.00     0.098 A 
HETATM   11  C10 UNK     1      16.680  11.600   8.186  1.00  0.00     0.009 A 
HETATM   12  C13 UNK     1      19.063  11.856   8.894  1.00  0.00     0.048 C 
ENDROOT
BRANCH   7  13
HETATM   13  C12 UNK     1      12.737   7.191   9.469  1.00  0.00     0.280 C 
HETATM   14  O3  UNK     1      12.487   6.272  10.249  1.00  0.00    -0.265 OA
HETATM   15  N1  UNK     1      11.916   7.714   8.477  1.00  0.00    -0.321 N 
HETATM   16  H5  UNK     1      12.298   8.478   7.926  1.00  0.00     0.169 HD
BRANCH  15  17
HETATM   17  C8  UNK     1      10.602   7.310   8.137  1.00  0.00     0.041 A 
HETATM   18  C11 UNK     1      10.361   6.559   6.986  1.00  0.00    -0.035 A 
HETATM   19  C15 UNK     1       9.060   6.171   6.668  1.00  0.00     0.009 A 
HETATM   20  C16 UNK     1      11.476   6.157   6.076  1.00  0.00     0.050 C 
HETATM   21  C18 UNK     1       8.000   6.533   7.500  1.00  0.00     0.001 A 
HETATM   22  C17 UNK     1       8.242   7.284   8.650  1.00  0.00     0.002 A 
HETATM   23  C14 UNK     1       9.543   7.672   8.969  1.00  0.00     0.030 A 
ENDBRANCH  15  17
ENDBRANCH   7  13
TORSDOF 2
ENDMDL
MODEL 10
REMARK VINA RESULT:      -8.6     15.013     17.551
REMARK  2 active torsions:
REMARK  status: ('A' for Active; 'I' for Inactive)
REMARK       I    between atoms: C12_16  and  N1_4 
REMARK    1  A    between atoms: C8_12  and  N1_4 
REMARK    2  A    between atoms: C12_16  and  C5_9 
ROOT
HETATM    1  O1  UNK     1      19.035   2.563  30.256  1.00  0.00    -0.304 OA
HETATM    2  O2  UNK     1      18.532   0.603  33.796  1.00  0.00    -0.287 OA
HETATM    3  C1  UNK     1      19.242   0.511  31.541  1.00  0.00     0.048 A 
HETATM    4  C2  UNK     1      19.386   1.241  30.360  1.00  0.00     0.090 A 
HETATM    5  C3  UNK     1      19.615  -0.833  31.590  1.00  0.00     0.025 A 
HETATM    6  C4  UNK     1      20.136  -1.444  30.448  1.00  0.00    -0.061 A 
HETATM    7  C5  UNK     1      18.519   3.183  31.375  1.00  0.00     0.147 A 
HETATM    8  C6  UNK     1      18.688   1.182  32.730  1.00  0.00     0.187 A 
HETATM    9  C7  UNK     1      19.907   0.628  29.221  1.00  0.00     0.039 A 
HETATM   10  C9  UNK     1      18.326   2.605  32.567  1.00  0.00     0.098 A 
HETATM   11  C10 UNK     1      20.282  -0.716  29.267  1.00  0.00     0.009 A 
HETATM   12  C13 UNK     1      20.537  -2.880  30.490  1.00  0.00     0.048 C 
ENDROOT
BRANCH   7  13
HETATM   13  C12 UNK     1      18.150   4.593  31.242  1.00  0.00     0.280 C 
HETATM   14  O3  UNK     1      18.451   5.212  30.221  1.00  0.00    -0.265 OA
HETATM   15  N1  UNK     1      17.471   5.068  32.357  1.00  0.00    -0.321 N 
HETATM   16  H5  UNK     1      17.313   4.405  33.111  1.00  0.00     0.169 HD
BRANCH  15  17
HETATM   17  C8  UNK     1      16.969   6.375  32.575  1.00  0.00     0.041 A 
HETATM   18  C11 UNK     1      17.753   7.347  33.197  1.00  0.00    -0.035 A 
HETATM   19  C15 UNK     1      17.240   8.628  33.402  1.00  0.00     0.009 A 
HETATM   20  C16 UNK     1      19.144   7.046  33.652  1.00  0.00     0.050 C 
HETATM   21  C18 UNK     1      15.944   8.936  32.988  1.00  0.00     0.001 A 
HETATM   22  C17 UNK     1      15.162   7.963  32.366  1.00  0.00     0.002 A 
HETATM   23  C14 UNK     1      15.673   6.683  32.160  1.00  0.00     0.030 A 
ENDBRANCH  15  17
ENDBRANCH   7  13
TORSDOF 2
ENDMDL
