MODEL 1
REMARK VINA RESULT:      -8.7      0.000      0.000
REMARK  2 active torsions:
REMARK  status: ('A' for Active; 'I' for Inactive)
REMARK    1  A    between atoms: C13_16  and  O3_3 
REMARK    2  A    between atoms: C2_5  and  C4_7 
ROOT
HETATM    1  O1  UNK     1      18.873  -0.304  32.738  1.00  0.00    -0.309 OA
HETATM    2  O2  UNK     1      18.874   2.835  30.141  1.00  0.00    -0.287 OA
HETATM    3  C1  UNK     1      19.447   0.579  30.550  1.00  0.00     0.048 A 
HETATM    4  C2  UNK     1      18.324   0.923  33.079  1.00  0.00     0.090 A 
HETATM    5  C3  UNK     1      19.416  -0.452  31.487  1.00  0.00     0.090 A 
HETATM    6  C5  UNK     1      18.876   1.885  30.912  1.00  0.00     0.187 A 
HETATM    7  C6  UNK     1      18.301   1.993  32.267  1.00  0.00     0.093 A 
HETATM    8  C7  UNK     1      20.015   0.372  29.290  1.00  0.00     0.018 A 
HETATM    9  C8  UNK     1      19.953  -1.700  31.170  1.00  0.00     0.038 A 
HETATM   10  C11 UNK     1      20.551  -0.877  28.975  1.00  0.00     0.001 A 
HETATM   11  C12 UNK     1      20.520  -1.911  29.913  1.00  0.00     0.003 A 
ENDROOT
BRANCH   4  12
HETATM   12  C4  UNK     1      17.772   0.975  34.448  1.00  0.00     0.001 A 
HETATM   13  C10 UNK     1      16.541   0.378  34.731  1.00  0.00     0.014 A 
HETATM   14  C14 UNK     1      16.020   0.426  36.024  1.00  0.00     0.004 A 
HETATM   15  C15 UNK     1      16.729   1.070  37.038  1.00  0.00     0.036 A 
HETATM   16  C13 UNK     1      17.959   1.667  36.760  1.00  0.00     0.066 A 
HETATM   17  C9  UNK     1      18.480   1.619  35.467  1.00  0.00     0.050 A 
BRANCH  16  18
HETATM   18  O3  UNK     1      18.651   2.293  37.751  1.00  0.00    -0.361 OA
HETATM   19  H10 UNK     1      19.207   2.986  37.356  1.00  0.00     0.217 HD
ENDBRANCH  16  18
ENDBRANCH   4  12
TORSDOF 2
ENDMDL
MODEL 2
REMARK VINA RESULT:      -8.6      1.216      2.476
REMARK  2 active torsions:
REMARK  status: ('A' for Active; 'I' for Inactive)
REMARK    1  A    between atoms: C13_16  and  O3_3 
REMARK    2  A    between atoms: C2_5  and  C4_7 
ROOT
HETATM    1  O1  UNK     1      18.611   0.286  32.478  1.00  0.00    -0.309 OA
HETATM    2  O2  UNK     1      20.883  -3.092  32.632  1.00  0.00    -0.287 OA
HETATM    3  C1  UNK     1      20.098  -1.268  31.351  1.00  0.00     0.048 A 
HETATM    4  C2  UNK     1      18.719  -0.466  33.638  1.00  0.00     0.090 A 
HETATM    5  C3  UNK     1      19.301  -0.124  31.366  1.00  0.00     0.090 A 
HETATM    6  C5  UNK     1      20.206  -2.074  32.576  1.00  0.00     0.187 A 
HETATM    7  C6  UNK     1      19.447  -1.589  33.746  1.00  0.00     0.093 A 
HETATM    8  C7  UNK     1      20.778  -1.639  30.188  1.00  0.00     0.018 A 
HETATM    9  C8  UNK     1      19.180   0.657  30.217  1.00  0.00     0.038 A 
HETATM   10  C11 UNK     1      20.655  -0.856  29.040  1.00  0.00     0.001 A 
HETATM   11  C12 UNK     1      19.857   0.290  29.055  1.00  0.00     0.003 A 
ENDROOT
BRANCH   4  12
HETATM   12  C4  UNK     1      17.933   0.062  34.771  1.00  0.00     0.001 A 
HETATM   13  C10 UNK     1      16.566  -0.215  34.866  1.00  0.00     0.014 A 
HETATM   14  C14 UNK     1      15.823   0.283  35.937  1.00  0.00     0.004 A 
HETATM   15  C15 UNK     1      16.444   1.058  36.916  1.00  0.00     0.036 A 
HETATM   16  C13 UNK     1      17.808   1.336  36.826  1.00  0.00     0.066 A 
HETATM   17  C9  UNK     1      18.551   0.838  35.755  1.00  0.00     0.050 A 
BRANCH  16  18
HETATM   18  O3  UNK     1      18.413   2.091  37.783  1.00  0.00    -0.361 OA
HETATM   19  H10 UNK     1      18.266   1.677  38.650  1.00  0.00     0.217 HD
ENDBRANCH  16  18
ENDBRANCH   4  12
TORSDOF 2
ENDMDL
MODEL 3
REMARK VINA RESULT:      -8.6      2.326      6.646
REMARK  2 active torsions:
REMARK  status: ('A' for Active; 'I' for Inactive)
REMARK    1  A    between atoms: C13_16  and  O3_3 
REMARK    2  A    between atoms: C2_5  and  C4_7 
ROOT
HETATM    1  O1  UNK     1      18.773  -0.619  33.755  1.00  0.00    -0.309 OA
HETATM    2  O2  UNK     1      20.626  -3.659  35.736  1.00  0.00    -0.287 OA
HETATM    3  C1  UNK     1      19.127  -1.834  35.827  1.00  0.00     0.048 A 
HETATM    4  C2  UNK     1      19.646  -1.483  33.110  1.00  0.00     0.090 A 
HETATM    5  C3  UNK     1      18.529  -0.813  35.091  1.00  0.00     0.090 A 
HETATM    6  C5  UNK     1      20.062  -2.745  35.150  1.00  0.00     0.187 A 
HETATM    7  C6  UNK     1      20.288  -2.497  33.712  1.00  0.00     0.093 A 
HETATM    8  C7  UNK     1      18.843  -1.984  37.187  1.00  0.00     0.018 A 
HETATM    9  C8  UNK     1      17.641   0.067  35.710  1.00  0.00     0.038 A 
HETATM   10  C11 UNK     1      17.954  -1.103  37.804  1.00  0.00     0.001 A 
HETATM   11  C12 UNK     1      17.354  -0.080  37.067  1.00  0.00     0.003 A 
ENDROOT
BRANCH   4  12
HETATM   12  C4  UNK     1      19.840  -1.181  31.677  1.00  0.00     0.001 A 
HETATM   13  C10 UNK     1      20.297  -2.174  30.807  1.00  0.00     0.014 A 
HETATM   14  C14 UNK     1      20.480  -1.890  29.454  1.00  0.00     0.004 A 
HETATM   15  C15 UNK     1      20.206  -0.612  28.966  1.00  0.00     0.036 A 
HETATM   16  C13 UNK     1      19.749   0.382  29.831  1.00  0.00     0.066 A 
HETATM   17  C9  UNK     1      19.566   0.097  31.185  1.00  0.00     0.050 A 
BRANCH  16  18
HETATM   18  O3  UNK     1      19.479   1.628  29.354  1.00  0.00    -0.361 OA
HETATM   19  H10 UNK     1      19.746   1.671  28.420  1.00  0.00     0.217 HD
ENDBRANCH  16  18
ENDBRANCH   4  12
TORSDOF 2
ENDMDL
MODEL 4
REMARK VINA RESULT:      -8.2     23.960     26.199
REMARK  2 active torsions:
REMARK  status: ('A' for Active; 'I' for Inactive)
REMARK    1  A    between atoms: C13_16  and  O3_3 
REMARK    2  A    between atoms: C2_5  and  C4_7 
ROOT
HETATM    1  O1  UNK     1      13.328   7.526   8.512  1.00  0.00    -0.309 OA
HETATM    2  O2  UNK     1      15.423   4.239   9.699  1.00  0.00    -0.287 OA
HETATM    3  C1  UNK     1      15.325   6.594   9.532  1.00  0.00     0.048 A 
HETATM    4  C2  UNK     1      12.825   6.243   8.347  1.00  0.00     0.090 A 
HETATM    5  C3  UNK     1      14.557   7.675   9.101  1.00  0.00     0.090 A 
HETATM    6  C5  UNK     1      14.800   5.233   9.349  1.00  0.00     0.187 A 
HETATM    7  C6  UNK     1      13.472   5.125   8.713  1.00  0.00     0.093 A 
HETATM    8  C7  UNK     1      16.573   6.806  10.125  1.00  0.00     0.018 A 
HETATM    9  C8  UNK     1      15.033   8.977   9.261  1.00  0.00     0.038 A 
HETATM   10  C11 UNK     1      17.046   8.109  10.284  1.00  0.00     0.001 A 
HETATM   11  C12 UNK     1      16.277   9.192   9.853  1.00  0.00     0.003 A 
ENDROOT
BRANCH   4  12
HETATM   12  C4  UNK     1      11.499   6.197   7.699  1.00  0.00     0.001 A 
HETATM   13  C10 UNK     1      11.397   6.239   6.307  1.00  0.00     0.014 A 
HETATM   14  C14 UNK     1      10.144   6.195   5.694  1.00  0.00     0.004 A 
HETATM   15  C15 UNK     1       8.990   6.108   6.472  1.00  0.00     0.036 A 
HETATM   16  C13 UNK     1       9.087   6.065   7.863  1.00  0.00     0.066 A 
HETATM   17  C9  UNK     1      10.340   6.109   8.476  1.00  0.00     0.050 A 
BRANCH  16  18
HETATM   18  O3  UNK     1       7.961   5.979   8.622  1.00  0.00    -0.361 OA
HETATM   19  H10 UNK     1       7.933   6.735   9.232  1.00  0.00     0.217 HD
ENDBRANCH  16  18
ENDBRANCH   4  12
TORSDOF 2
ENDMDL
MODEL 5
REMARK VINA RESULT:      -8.1      2.381      4.733
REMARK  2 active torsions:
REMARK  status: ('A' for Active; 'I' for Inactive)
REMARK    1  A    between atoms: C13_16  and  O3_3 
REMARK    2  A    between atoms: C2_5  and  C4_7 
ROOT
HETATM    1  O1  UNK     1      19.381   1.765  30.610  1.00  0.00    -0.309 OA
HETATM    2  O2  UNK     1      18.294  -0.450  33.851  1.00  0.00    -0.287 OA
HETATM    3  C1  UNK     1      19.298  -0.397  31.713  1.00  0.00     0.048 A 
HETATM    4  C2  UNK     1      18.757   2.339  31.708  1.00  0.00     0.090 A 
HETATM    5  C3  UNK     1      19.641   0.419  30.635  1.00  0.00     0.090 A 
HETATM    6  C5  UNK     1      18.627   0.206  32.874  1.00  0.00     0.187 A 
HETATM    7  C6  UNK     1      18.372   1.659  32.799  1.00  0.00     0.093 A 
HETATM    8  C7  UNK     1      19.587  -1.764  31.684  1.00  0.00     0.018 A 
HETATM    9  C8  UNK     1      20.276  -0.128  29.520  1.00  0.00     0.038 A 
HETATM   10  C11 UNK     1      20.223  -2.308  30.568  1.00  0.00     0.001 A 
HETATM   11  C12 UNK     1      20.566  -1.492  29.489  1.00  0.00     0.003 A 
ENDROOT
BRANCH   4  12
HETATM   12  C4  UNK     1      18.520   3.790  31.573  1.00  0.00     0.001 A 
HETATM   13  C10 UNK     1      17.837   4.486  32.574  1.00  0.00     0.014 A 
HETATM   14  C14 UNK     1      17.614   5.857  32.447  1.00  0.00     0.004 A 
HETATM   15  C15 UNK     1      18.073   6.537  31.320  1.00  0.00     0.036 A 
HETATM   16  C13 UNK     1      18.756   5.847  30.318  1.00  0.00     0.066 A 
HETATM   17  C9  UNK     1      18.979   4.476  30.445  1.00  0.00     0.050 A 
BRANCH  16  18
HETATM   18  O3  UNK     1      19.205   6.512  29.219  1.00  0.00    -0.361 OA
HETATM   19  H10 UNK     1      19.412   7.429  29.469  1.00  0.00     0.217 HD
ENDBRANCH  16  18
ENDBRANCH   4  12
TORSDOF 2
ENDMDL
MODEL 6
REMARK VINA RESULT:      -7.9      1.724      6.124
REMARK  2 active torsions:
REMARK  status: ('A' for Active; 'I' for Inactive)
REMARK    1  A    between atoms: C13_16  and  O3_3 
REMARK    2  A    between atoms: C2_5  and  C4_7 
ROOT
HETATM    1  O1  UNK     1      18.828  -0.611  33.735  1.00  0.00    -0.309 OA
HETATM    2  O2  UNK     1      17.887   3.273  34.525  1.00  0.00    -0.287 OA
HETATM    3  C1  UNK     1      18.076   1.058  35.329  1.00  0.00     0.048 A 
HETATM    4  C2  UNK     1      18.929   0.374  32.764  1.00  0.00     0.090 A 
HETATM    5  C3  UNK     1      18.411  -0.251  34.991  1.00  0.00     0.090 A 
HETATM    6  C5  UNK     1      18.170   2.104  34.300  1.00  0.00     0.187 A 
HETATM    7  C6  UNK     1      18.627   1.667  32.965  1.00  0.00     0.093 A 
HETATM    8  C7  UNK     1      17.655   1.368  36.626  1.00  0.00     0.018 A 
HETATM    9  C8  UNK     1      18.328  -1.263  35.948  1.00  0.00     0.038 A 
HETATM   10  C11 UNK     1      17.573   0.355  37.581  1.00  0.00     0.001 A 
HETATM   11  C12 UNK     1      17.908  -0.957  37.243  1.00  0.00     0.003 A 
ENDROOT
BRANCH   4  12
HETATM   12  C4  UNK     1      19.381  -0.123  31.449  1.00  0.00     0.001 A 
HETATM   13  C10 UNK     1      19.284   0.693  30.319  1.00  0.00     0.014 A 
HETATM   14  C14 UNK     1      19.712   0.224  29.077  1.00  0.00     0.004 A 
HETATM   15  C15 UNK     1      20.239  -1.061  28.961  1.00  0.00     0.036 A 
HETATM   16  C13 UNK     1      20.339  -1.880  30.086  1.00  0.00     0.066 A 
HETATM   17  C9  UNK     1      19.911  -1.410  31.329  1.00  0.00     0.050 A 
BRANCH  16  18
HETATM   18  O3  UNK     1      20.856  -3.133  29.973  1.00  0.00    -0.361 OA
HETATM   19  H10 UNK     1      20.172  -3.724  29.614  1.00  0.00     0.217 HD
ENDBRANCH  16  18
ENDBRANCH   4  12
TORSDOF 2
ENDMDL
MODEL 7
REMARK VINA RESULT:      -7.9      3.418      5.141
REMARK  2 active torsions:
REMARK  status: ('A' for Active; 'I' for Inactive)
REMARK    1  A    between atoms: C13_16  and  O3_3 
REMARK    2  A    between atoms: C2_5  and  C4_7 
ROOT
HETATM    1  O1  UNK     1      18.020   3.101  33.236  1.00  0.00    -0.309 OA
HETATM    2  O2  UNK     1      19.223   1.680  29.612  1.00  0.00    -0.287 OA
HETATM    3  C1  UNK     1      18.710   1.214  31.871  1.00  0.00     0.048 A 
HETATM    4  C2  UNK     1      18.150   3.934  32.134  1.00  0.00     0.090 A 
HETATM    5  C3  UNK     1      18.296   1.767  33.083  1.00  0.00     0.090 A 
HETATM    6  C5  UNK     1      18.859   2.096  30.704  1.00  0.00     0.187 A 
HETATM    7  C6  UNK     1      18.547   3.523  30.919  1.00  0.00     0.093 A 
HETATM    8  C7  UNK     1      18.979  -0.153  31.774  1.00  0.00     0.018 A 
HETATM    9  C8  UNK     1      18.148   0.953  34.206  1.00  0.00     0.038 A 
HETATM   10  C11 UNK     1      18.829  -0.965  32.899  1.00  0.00     0.001 A 
HETATM   11  C12 UNK     1      18.415  -0.413  34.112  1.00  0.00     0.003 A 
ENDROOT
BRANCH   4  12
HETATM   12  C4  UNK     1      17.834   5.350  32.410  1.00  0.00     0.001 A 
HETATM   13  C10 UNK     1      18.028   5.875  33.690  1.00  0.00     0.014 A 
HETATM   14  C14 UNK     1      17.730   7.213  33.952  1.00  0.00     0.004 A 
HETATM   15  C15 UNK     1      17.237   8.029  32.934  1.00  0.00     0.036 A 
HETATM   16  C13 UNK     1      17.041   7.509  31.655  1.00  0.00     0.066 A 
HETATM   17  C9  UNK     1      17.339   6.171  31.393  1.00  0.00     0.050 A 
BRANCH  16  18
HETATM   18  O3  UNK     1      16.561   8.306  30.662  1.00  0.00    -0.361 OA
HETATM   19  H10 UNK     1      15.779   8.782  30.991  1.00  0.00     0.217 HD
ENDBRANCH  16  18
ENDBRANCH   4  12
TORSDOF 2
ENDMDL
MODEL 8
REMARK VINA RESULT:      -7.8     23.176     26.084
REMARK  2 active torsions:
REMARK  status: ('A' for Active; 'I' for Inactive)
REMARK    1  A    between atoms: C13_16  and  O3_3 
REMARK    2  A    between atoms: C2_5  and  C4_7 
ROOT
HETATM    1  O1  UNK     1      11.492   7.487   9.390  1.00  0.00    -0.309 OA
HETATM    2  O2  UNK     1      12.041   6.198   5.565  1.00  0.00    -0.287 OA
HETATM    3  C1  UNK     1      10.522   6.770   7.282  1.00  0.00     0.048 A 
HETATM    4  C2  UNK     1      12.760   7.327   8.850  1.00  0.00     0.090 A 
HETATM    5  C3  UNK     1      10.406   7.212   8.599  1.00  0.00     0.090 A 
HETATM    6  C5  UNK     1      11.865   6.588   6.711  1.00  0.00     0.187 A 
HETATM    7  C6  UNK     1      13.001   6.900   7.601  1.00  0.00     0.093 A 
HETATM    8  C7  UNK     1       9.380   6.503   6.523  1.00  0.00     0.018 A 
HETATM    9  C8  UNK     1       9.144   7.391   9.166  1.00  0.00     0.038 A 
HETATM   10  C11 UNK     1       8.119   6.684   7.092  1.00  0.00     0.001 A 
HETATM   11  C12 UNK     1       8.001   7.126   8.411  1.00  0.00     0.003 A 
ENDROOT
BRANCH   4  12
HETATM   12  C4  UNK     1      13.856   7.645   9.788  1.00  0.00     0.001 A 
HETATM   13  C10 UNK     1      13.652   8.565  10.819  1.00  0.00     0.014 A 
HETATM   14  C14 UNK     1      14.686   8.866  11.705  1.00  0.00     0.004 A 
HETATM   15  C15 UNK     1      15.928   8.248  11.563  1.00  0.00     0.036 A 
HETATM   16  C13 UNK     1      16.136   7.328  10.535  1.00  0.00     0.066 A 
HETATM   17  C9  UNK     1      15.102   7.027   9.649  1.00  0.00     0.050 A 
BRANCH  16  18
HETATM   18  O3  UNK     1      17.348   6.723  10.398  1.00  0.00    -0.361 OA
HETATM   19  H10 UNK     1      17.452   6.064  11.106  1.00  0.00     0.217 HD
ENDBRANCH  16  18
ENDBRANCH   4  12
TORSDOF 2
ENDMDL
MODEL 9
REMARK VINA RESULT:      -7.8      3.029      3.906
REMARK  2 active torsions:
REMARK  status: ('A' for Active; 'I' for Inactive)
REMARK    1  A    between atoms: C13_16  and  O3_3 
REMARK    2  A    between atoms: C2_5  and  C4_7 
ROOT
HETATM    1  O1  UNK     1      19.225   1.920  31.391  1.00  0.00    -0.309 OA
HETATM    2  O2  UNK     1      17.769   2.032  27.588  1.00  0.00    -0.287 OA
HETATM    3  C1  UNK     1      19.008   0.854  29.220  1.00  0.00     0.048 A 
HETATM    4  C2  UNK     1      18.462   2.985  30.935  1.00  0.00     0.090 A 
HETATM    5  C3  UNK     1      19.477   0.881  30.532  1.00  0.00     0.090 A 
HETATM    6  C5  UNK     1      18.208   1.987  28.729  1.00  0.00     0.187 A 
HETATM    7  C6  UNK     1      17.962   3.078  29.693  1.00  0.00     0.093 A 
HETATM    8  C7  UNK     1      19.297  -0.230  28.388  1.00  0.00     0.018 A 
HETATM    9  C8  UNK     1      20.240  -0.179  31.023  1.00  0.00     0.038 A 
HETATM   10  C11 UNK     1      20.059  -1.290  28.881  1.00  0.00     0.001 A 
HETATM   11  C12 UNK     1      20.530  -1.264  30.195  1.00  0.00     0.003 A 
ENDROOT
BRANCH   4  12
HETATM   12  C4  UNK     1      18.256   4.049  31.937  1.00  0.00     0.001 A 
HETATM   13  C10 UNK     1      18.322   3.751  33.301  1.00  0.00     0.014 A 
HETATM   14  C14 UNK     1      18.128   4.757  34.248  1.00  0.00     0.004 A 
HETATM   15  C15 UNK     1      17.867   6.063  33.836  1.00  0.00     0.036 A 
HETATM   16  C13 UNK     1      17.801   6.365  32.476  1.00  0.00     0.066 A 
HETATM   17  C9  UNK     1      17.995   5.360  31.528  1.00  0.00     0.050 A 
BRANCH  16  18
HETATM   18  O3  UNK     1      17.549   7.641  32.074  1.00  0.00    -0.361 OA
HETATM   19  H10 UNK     1      16.781   7.980  32.566  1.00  0.00     0.217 HD
ENDBRANCH  16  18
ENDBRANCH   4  12
TORSDOF 2
ENDMDL
MODEL 10
REMARK VINA RESULT:      -7.7      2.634      4.261
REMARK  2 active torsions:
REMARK  status: ('A' for Active; 'I' for Inactive)
REMARK    1  A    between atoms: C13_16  and  O3_3 
REMARK    2  A    between atoms: C2_5  and  C4_7 
ROOT
HETATM    1  O1  UNK     1      18.244   3.557  34.263  1.00  0.00    -0.309 OA
HETATM    2  O2  UNK     1      18.401   2.463  30.342  1.00  0.00    -0.287 OA
HETATM    3  C1  UNK     1      18.482   4.206  31.935  1.00  0.00     0.048 A 
HETATM    4  C2  UNK     1      18.138   2.230  33.873  1.00  0.00     0.090 A 
HETATM    5  C3  UNK     1      18.417   4.512  33.293  1.00  0.00     0.090 A 
HETATM    6  C5  UNK     1      18.358   2.802  31.517  1.00  0.00     0.187 A 
HETATM    7  C6  UNK     1      18.177   1.812  32.598  1.00  0.00     0.093 A 
HETATM    8  C7  UNK     1      18.658   5.220  30.990  1.00  0.00     0.018 A 
HETATM    9  C8  UNK     1      18.529   5.836  33.717  1.00  0.00     0.038 A 
HETATM   10  C11 UNK     1      18.771   6.544  31.416  1.00  0.00     0.001 A 
HETATM   11  C12 UNK     1      18.706   6.851  32.777  1.00  0.00     0.003 A 
ENDROOT
BRANCH   4  12
HETATM   12  C4  UNK     1      17.949   1.288  34.994  1.00  0.00     0.001 A 
HETATM   13  C10 UNK     1      17.705  -0.064  34.741  1.00  0.00     0.014 A 
HETATM   14  C14 UNK     1      17.527  -0.954  35.800  1.00  0.00     0.004 A 
HETATM   15  C15 UNK     1      17.593  -0.496  37.115  1.00  0.00     0.036 A 
HETATM   16  C13 UNK     1      17.837   0.853  37.373  1.00  0.00     0.066 A 
HETATM   17  C9  UNK     1      18.015   1.744  36.314  1.00  0.00     0.050 A 
BRANCH  16  18
HETATM   18  O3  UNK     1      17.903   1.300  38.657  1.00  0.00    -0.361 OA
HETATM   19  H10 UNK     1      17.541   2.202  38.695  1.00  0.00     0.217 HD
ENDBRANCH  16  18
ENDBRANCH   4  12
TORSDOF 2
ENDMDL
