MODEL 1
REMARK VINA RESULT:      -9.4      0.000      0.000
REMARK  6 active torsions:
REMARK  status: ('A' for Active; 'I' for Inactive)
REMARK    1  A    between atoms: C2_8  and  O1_2 
REMARK    2  A    between atoms: C3_9  and  O1_2 
REMARK    3  A    between atoms: C16_22  and  N1_5 
REMARK    4  A    between atoms: C1_7  and  C6_12 
REMARK    5  A    between atoms: C2_8  and  C4_10 
REMARK    6  A    between atoms: C5_11  and  C9_15 
ROOT
HETATM    1  N2  UNK     1      20.620   9.501  34.726  1.00  0.00    -0.191 NA
HETATM    2  C6  UNK     1      19.995   6.596  32.945  1.00  0.00     0.034 C 
HETATM    3  C9  UNK     1      19.321   7.665  33.442  1.00  0.00     0.055 C 
HETATM    4  C22 UNK     1      20.039   8.677  34.150  1.00  0.00     0.100 C 
ENDROOT
BRANCH   3   5
HETATM    5  C5  UNK     1      17.865   7.832  33.272  1.00  0.00    -0.015 A 
HETATM    6  C14 UNK     1      17.040   7.744  34.381  1.00  0.00     0.015 A 
HETATM    7  C17 UNK     1      15.663   7.901  34.220  1.00  0.00     0.037 A 
HETATM    8  C16 UNK     1      15.133   8.145  32.953  1.00  0.00     0.102 A 
HETATM    9  C18 UNK     1      15.978   8.231  31.848  1.00  0.00     0.037 A 
HETATM   10  C15 UNK     1      17.354   8.074  32.008  1.00  0.00     0.015 A 
BRANCH   8  11
HETATM   11  N1  UNK     1      13.731   8.305  32.789  1.00  0.00    -0.116 N 
HETATM   12  O2  UNK     1      13.029   7.297  32.533  1.00  0.00    -0.532 OA
HETATM   13  O3  UNK     1      13.233   9.451  32.907  1.00  0.00    -0.532 OA
ENDBRANCH   8  11
ENDBRANCH   3   5
BRANCH   2  14
HETATM   14  C1  UNK     1      19.432   5.466  32.222  1.00  0.00    -0.035 A 
HETATM   15  C7  UNK     1      18.676   4.511  32.901  1.00  0.00     0.014 A 
HETATM   16  C10 UNK     1      18.136   3.428  32.208  1.00  0.00     0.037 A 
HETATM   17  C3  UNK     1      18.352   3.301  30.835  1.00  0.00     0.069 A 
HETATM   18  C11 UNK     1      19.108   4.256  30.157  1.00  0.00     0.037 A 
HETATM   19  C8  UNK     1      19.649   5.339  30.850  1.00  0.00     0.014 A 
BRANCH  17  20
HETATM   20  O1  UNK     1      17.825   2.245  30.158  1.00  0.00    -0.347 OA
BRANCH  20  21
HETATM   21  C2  UNK     1      18.588   1.724  29.070  1.00  0.00     0.217 C 
BRANCH  21  22
HETATM   22  C4  UNK     1      19.317   0.495  29.526  1.00  0.00     0.004 A 
HETATM   23  C12 UNK     1      19.466  -0.582  28.659  1.00  0.00     0.124 A 
HETATM   24  F1  UNK     1      18.963  -0.537  27.417  1.00  0.00    -0.205 F 
HETATM   25  C19 UNK     1      20.145  -1.724  29.086  1.00  0.00     0.043 A 
HETATM   26  C21 UNK     1      20.671  -1.780  30.376  1.00  0.00     0.003 A 
HETATM   27  C20 UNK     1      20.519  -0.695  31.240  1.00  0.00     0.001 A 
HETATM   28  C13 UNK     1      19.839   0.446  30.813  1.00  0.00     0.012 A 
ENDBRANCH  21  22
ENDBRANCH  20  21
ENDBRANCH  17  20
ENDBRANCH   2  14
TORSDOF 6
ENDMDL
MODEL 2
REMARK VINA RESULT:      -9.0     15.632     17.297
REMARK  6 active torsions:
REMARK  status: ('A' for Active; 'I' for Inactive)
REMARK    1  A    between atoms: C2_8  and  O1_2 
REMARK    2  A    between atoms: C3_9  and  O1_2 
REMARK    3  A    between atoms: C16_22  and  N1_5 
REMARK    4  A    between atoms: C1_7  and  C6_12 
REMARK    5  A    between atoms: C2_8  and  C4_10 
REMARK    6  A    between atoms: C5_11  and  C9_15 
ROOT
HETATM    1  N2  UNK     1      35.697  -5.759  36.336  1.00  0.00    -0.191 NA
HETATM    2  C6  UNK     1      32.959  -6.385  34.307  1.00  0.00     0.034 C 
HETATM    3  C9  UNK     1      33.232  -5.933  35.558  1.00  0.00     0.055 C 
HETATM    4  C22 UNK     1      34.593  -5.837  35.986  1.00  0.00     0.100 C 
ENDROOT
BRANCH   3   5
HETATM    5  C5  UNK     1      32.175  -5.525  36.502  1.00  0.00    -0.015 A 
HETATM    6  C14 UNK     1      31.629  -6.467  37.357  1.00  0.00     0.015 A 
HETATM    7  C17 UNK     1      30.629  -6.081  38.248  1.00  0.00     0.037 A 
HETATM    8  C16 UNK     1      30.189  -4.758  38.272  1.00  0.00     0.102 A 
HETATM    9  C18 UNK     1      30.749  -3.821  37.404  1.00  0.00     0.037 A 
HETATM   10  C15 UNK     1      31.750  -4.207  36.513  1.00  0.00     0.015 A 
BRANCH   8  11
HETATM   11  N1  UNK     1      29.170  -4.364  39.180  1.00  0.00    -0.116 N 
HETATM   12  O2  UNK     1      28.003  -4.794  39.009  1.00  0.00    -0.532 OA
HETATM   13  O3  UNK     1      29.465  -3.599  40.129  1.00  0.00    -0.532 OA
ENDBRANCH   8  11
ENDBRANCH   3   5
BRANCH   2  14
HETATM   14  C1  UNK     1      31.645  -6.568  33.711  1.00  0.00    -0.035 A 
HETATM   15  C7  UNK     1      31.047  -7.827  33.719  1.00  0.00     0.014 A 
HETATM   16  C10 UNK     1      29.785  -8.004  33.148  1.00  0.00     0.037 A 
HETATM   17  C3  UNK     1      29.125  -6.919  32.570  1.00  0.00     0.069 A 
HETATM   18  C11 UNK     1      29.724  -5.661  32.563  1.00  0.00     0.037 A 
HETATM   19  C8  UNK     1      30.984  -5.484  33.133  1.00  0.00     0.014 A 
BRANCH  17  20
HETATM   20  O1  UNK     1      27.895  -7.090  32.014  1.00  0.00    -0.347 OA
BRANCH  20  21
HETATM   21  C2  UNK     1      27.747  -6.732  30.640  1.00  0.00     0.217 C 
BRANCH  21  22
HETATM   22  C4  UNK     1      28.370  -7.796  29.785  1.00  0.00     0.004 A 
HETATM   23  C12 UNK     1      29.636  -7.597  29.247  1.00  0.00     0.124 A 
HETATM   24  F1  UNK     1      30.311  -6.463  29.481  1.00  0.00    -0.205 F 
HETATM   25  C19 UNK     1      30.212  -8.589  28.452  1.00  0.00     0.043 A 
HETATM   26  C21 UNK     1      29.518  -9.773  28.202  1.00  0.00     0.003 A 
HETATM   27  C20 UNK     1      28.247  -9.965  28.746  1.00  0.00     0.001 A 
HETATM   28  C13 UNK     1      27.672  -8.973  29.540  1.00  0.00     0.012 A 
ENDBRANCH  21  22
ENDBRANCH  20  21
ENDBRANCH  17  20
ENDBRANCH   2  14
TORSDOF 6
ENDMDL
MODEL 3
REMARK VINA RESULT:      -8.6     10.403     14.928
REMARK  6 active torsions:
REMARK  status: ('A' for Active; 'I' for Inactive)
REMARK    1  A    between atoms: C2_8  and  O1_2 
REMARK    2  A    between atoms: C3_9  and  O1_2 
REMARK    3  A    between atoms: C16_22  and  N1_5 
REMARK    4  A    between atoms: C1_7  and  C6_12 
REMARK    5  A    between atoms: C2_8  and  C4_10 
REMARK    6  A    between atoms: C5_11  and  C9_15 
ROOT
HETATM    1  N2  UNK     1      19.359 -11.793  38.475  1.00  0.00    -0.191 NA
HETATM    2  C6  UNK     1      19.239  -8.638  37.047  1.00  0.00     0.034 C 
HETATM    3  C9  UNK     1      20.118  -9.439  37.704  1.00  0.00     0.055 C 
HETATM    4  C22 UNK     1      19.697 -10.738  38.129  1.00  0.00     0.100 C 
ENDROOT
BRANCH   3   5
HETATM    5  C5  UNK     1      21.503  -9.025  37.995  1.00  0.00    -0.015 A 
HETATM    6  C14 UNK     1      22.490  -9.251  37.051  1.00  0.00     0.015 A 
HETATM    7  C17 UNK     1      23.800  -8.861  37.326  1.00  0.00     0.037 A 
HETATM    8  C16 UNK     1      24.104  -8.250  38.543  1.00  0.00     0.102 A 
HETATM    9  C18 UNK     1      23.098  -8.030  39.483  1.00  0.00     0.037 A 
HETATM   10  C15 UNK     1      21.788  -8.420  39.208  1.00  0.00     0.015 A 
BRANCH   8  11
HETATM   11  N1  UNK     1      25.438  -7.852  38.824  1.00  0.00    -0.116 N 
HETATM   12  O2  UNK     1      25.795  -6.681  38.547  1.00  0.00    -0.532 OA
HETATM   13  O3  UNK     1      26.223  -8.681  39.343  1.00  0.00    -0.532 OA
ENDBRANCH   8  11
ENDBRANCH   3   5
BRANCH   2  14
HETATM   14  C1  UNK     1      19.481  -7.288  36.563  1.00  0.00    -0.035 A 
HETATM   15  C7  UNK     1      19.893  -7.083  35.247  1.00  0.00     0.014 A 
HETATM   16  C10 UNK     1      20.125  -5.788  34.782  1.00  0.00     0.037 A 
HETATM   17  C3  UNK     1      19.943  -4.699  35.635  1.00  0.00     0.069 A 
HETATM   18  C11 UNK     1      19.531  -4.905  36.951  1.00  0.00     0.037 A 
HETATM   19  C8  UNK     1      19.299  -6.199  37.416  1.00  0.00     0.014 A 
BRANCH  17  20
HETATM   20  O1  UNK     1      20.168  -3.436  35.183  1.00  0.00    -0.347 OA
BRANCH  20  21
HETATM   21  C2  UNK     1      20.242  -2.398  36.160  1.00  0.00     0.217 C 
BRANCH  21  22
HETATM   22  C4  UNK     1      19.041  -1.510  36.025  1.00  0.00     0.004 A 
HETATM   23  C12 UNK     1      18.280  -1.201  37.146  1.00  0.00     0.124 A 
HETATM   24  F1  UNK     1      18.604  -1.689  38.351  1.00  0.00    -0.205 F 
HETATM   25  C19 UNK     1      17.163  -0.374  37.016  1.00  0.00     0.043 A 
HETATM   26  C21 UNK     1      16.817   0.139  35.767  1.00  0.00     0.003 A 
HETATM   27  C20 UNK     1      17.587  -0.174  34.646  1.00  0.00     0.001 A 
HETATM   28  C13 UNK     1      18.702  -1.002  34.776  1.00  0.00     0.012 A 
ENDBRANCH  21  22
ENDBRANCH  20  21
ENDBRANCH  17  20
ENDBRANCH   2  14
TORSDOF 6
ENDMDL
MODEL 4
REMARK VINA RESULT:      -8.6     15.978     18.221
REMARK  6 active torsions:
REMARK  status: ('A' for Active; 'I' for Inactive)
REMARK    1  A    between atoms: C2_8  and  O1_2 
REMARK    2  A    between atoms: C3_9  and  O1_2 
REMARK    3  A    between atoms: C16_22  and  N1_5 
REMARK    4  A    between atoms: C1_7  and  C6_12 
REMARK    5  A    between atoms: C2_8  and  C4_10 
REMARK    6  A    between atoms: C5_11  and  C9_15 
ROOT
HETATM    1  N2  UNK     1      30.108  -2.706  29.874  1.00  0.00    -0.191 NA
HETATM    2  C6  UNK     1      30.016  -4.992  32.476  1.00  0.00     0.034 C 
HETATM    3  C9  UNK     1      29.995  -4.975  31.118  1.00  0.00     0.055 C 
HETATM    4  C22 UNK     1      30.057  -3.722  30.433  1.00  0.00     0.100 C 
ENDROOT
BRANCH   3   5
HETATM    5  C5  UNK     1      29.917  -6.208  30.311  1.00  0.00    -0.015 A 
HETATM    6  C14 UNK     1      28.700  -6.854  30.178  1.00  0.00     0.015 A 
HETATM    7  C17 UNK     1      28.627  -8.020  29.416  1.00  0.00     0.037 A 
HETATM    8  C16 UNK     1      29.773  -8.521  28.798  1.00  0.00     0.102 A 
HETATM    9  C18 UNK     1      30.990  -7.858  28.942  1.00  0.00     0.037 A 
HETATM   10  C15 UNK     1      31.063  -6.693  29.704  1.00  0.00     0.015 A 
BRANCH   8  11
HETATM   11  N1  UNK     1      29.698  -9.708  28.021  1.00  0.00    -0.116 N 
HETATM   12  O2  UNK     1      30.679 -10.031  27.307  1.00  0.00    -0.532 OA
HETATM   13  O3  UNK     1      28.654 -10.403  28.071  1.00  0.00    -0.532 OA
ENDBRANCH   8  11
ENDBRANCH   3   5
BRANCH   2  14
HETATM   14  C1  UNK     1      29.940  -6.162  33.337  1.00  0.00    -0.035 A 
HETATM   15  C7  UNK     1      28.704  -6.594  33.817  1.00  0.00     0.014 A 
HETATM   16  C10 UNK     1      28.630  -7.716  34.642  1.00  0.00     0.037 A 
HETATM   17  C3  UNK     1      29.793  -8.406  34.987  1.00  0.00     0.069 A 
HETATM   18  C11 UNK     1      31.029  -7.973  34.506  1.00  0.00     0.037 A 
HETATM   19  C8  UNK     1      31.103  -6.851  33.681  1.00  0.00     0.014 A 
BRANCH  17  20
HETATM   20  O1  UNK     1      29.722  -9.500  35.791  1.00  0.00    -0.347 OA
BRANCH  20  21
HETATM   21  C2  UNK     1      30.347  -9.408  37.071  1.00  0.00     0.217 C 
BRANCH  21  22
HETATM   22  C4  UNK     1      29.505  -8.549  37.968  1.00  0.00     0.004 A 
HETATM   23  C12 UNK     1      29.835  -7.211  38.153  1.00  0.00     0.124 A 
HETATM   24  F1  UNK     1      30.900  -6.677  37.540  1.00  0.00    -0.205 F 
HETATM   25  C19 UNK     1      29.050  -6.416  38.988  1.00  0.00     0.043 A 
HETATM   26  C21 UNK     1      27.940  -6.963  39.632  1.00  0.00     0.003 A 
HETATM   27  C20 UNK     1      27.615  -8.306  39.440  1.00  0.00     0.001 A 
HETATM   28  C13 UNK     1      28.401  -9.102  38.606  1.00  0.00     0.012 A 
ENDBRANCH  21  22
ENDBRANCH  20  21
ENDBRANCH  17  20
ENDBRANCH   2  14
TORSDOF 6
ENDMDL
MODEL 5
REMARK VINA RESULT:      -8.4     16.674     18.217
REMARK  6 active torsions:
REMARK  status: ('A' for Active; 'I' for Inactive)
REMARK    1  A    between atoms: C2_8  and  O1_2 
REMARK    2  A    between atoms: C3_9  and  O1_2 
REMARK    3  A    between atoms: C16_22  and  N1_5 
REMARK    4  A    between atoms: C1_7  and  C6_12 
REMARK    5  A    between atoms: C2_8  and  C4_10 
REMARK    6  A    between atoms: C5_11  and  C9_15 
ROOT
HETATM    1  N2  UNK     1      29.464  -3.603  39.989  1.00  0.00    -0.191 NA
HETATM    2  C6  UNK     1      28.842  -6.068  37.635  1.00  0.00     0.034 C 
HETATM    3  C9  UNK     1      29.852  -5.250  38.027  1.00  0.00     0.055 C 
HETATM    4  C22 UNK     1      29.637  -4.342  39.110  1.00  0.00     0.100 C 
ENDROOT
BRANCH   3   5
HETATM    5  C5  UNK     1      31.179  -5.264  37.383  1.00  0.00    -0.015 A 
HETATM    6  C14 UNK     1      32.142  -6.151  37.835  1.00  0.00     0.015 A 
HETATM    7  C17 UNK     1      33.396  -6.164  37.227  1.00  0.00     0.037 A 
HETATM    8  C16 UNK     1      33.670  -5.289  36.175  1.00  0.00     0.102 A 
HETATM    9  C18 UNK     1      32.689  -4.403  35.732  1.00  0.00     0.037 A 
HETATM   10  C15 UNK     1      31.434  -4.390  36.340  1.00  0.00     0.015 A 
BRANCH   8  11
HETATM   11  N1  UNK     1      34.948  -5.302  35.555  1.00  0.00    -0.116 N 
HETATM   12  O2  UNK     1      35.926  -5.769  36.187  1.00  0.00    -0.532 OA
HETATM   13  O3  UNK     1      35.063  -4.847  34.391  1.00  0.00    -0.532 OA
ENDBRANCH   8  11
ENDBRANCH   3   5
BRANCH   2  14
HETATM   14  C1  UNK     1      28.871  -7.033  36.548  1.00  0.00    -0.035 A 
HETATM   15  C7  UNK     1      28.594  -6.623  35.244  1.00  0.00     0.014 A 
HETATM   16  C10 UNK     1      28.622  -7.549  34.201  1.00  0.00     0.037 A 
HETATM   17  C3  UNK     1      28.928  -8.884  34.462  1.00  0.00     0.069 A 
HETATM   18  C11 UNK     1      29.205  -9.294  35.766  1.00  0.00     0.037 A 
HETATM   19  C8  UNK     1      29.177  -8.369  36.809  1.00  0.00     0.014 A 
BRANCH  17  20
HETATM   20  O1  UNK     1      28.956  -9.788  33.445  1.00  0.00    -0.347 OA
BRANCH  20  21
HETATM   21  C2  UNK     1      30.009  -9.659  32.490  1.00  0.00     0.217 C 
BRANCH  21  22
HETATM   22  C4  UNK     1      29.428  -9.724  31.108  1.00  0.00     0.004 A 
HETATM   23  C12 UNK     1      30.006 -10.555  30.154  1.00  0.00     0.124 A 
HETATM   24  F1  UNK     1      31.079 -11.299  30.453  1.00  0.00    -0.205 F 
HETATM   25  C19 UNK     1      29.463 -10.612  28.870  1.00  0.00     0.043 A 
HETATM   26  C21 UNK     1      28.347  -9.841  28.548  1.00  0.00     0.003 A 
HETATM   27  C20 UNK     1      27.772  -9.010  29.512  1.00  0.00     0.001 A 
HETATM   28  C13 UNK     1      28.316  -8.952  30.795  1.00  0.00     0.012 A 
ENDBRANCH  21  22
ENDBRANCH  20  21
ENDBRANCH  17  20
ENDBRANCH   2  14
TORSDOF 6
ENDMDL
MODEL 6
REMARK VINA RESULT:      -8.1     15.672     18.564
REMARK  6 active torsions:
REMARK  status: ('A' for Active; 'I' for Inactive)
REMARK    1  A    between atoms: C2_8  and  O1_2 
REMARK    2  A    between atoms: C3_9  and  O1_2 
REMARK    3  A    between atoms: C16_22  and  N1_5 
REMARK    4  A    between atoms: C1_7  and  C6_12 
REMARK    5  A    between atoms: C2_8  and  C4_10 
REMARK    6  A    between atoms: C5_11  and  C9_15 
ROOT
HETATM    1  N2  UNK     1      25.550  -6.283  29.723  1.00  0.00    -0.191 NA
HETATM    2  C6  UNK     1      27.532  -6.704  32.534  1.00  0.00     0.034 C 
HETATM    3  C9  UNK     1      27.580  -6.934  31.196  1.00  0.00     0.055 C 
HETATM    4  C22 UNK     1      26.459  -6.574  30.385  1.00  0.00     0.100 C 
ENDROOT
BRANCH   3   5
HETATM    5  C5  UNK     1      28.753  -7.538  30.536  1.00  0.00    -0.015 A 
HETATM    6  C14 UNK     1      28.836  -8.916  30.432  1.00  0.00     0.015 A 
HETATM    7  C17 UNK     1      29.946  -9.486  29.808  1.00  0.00     0.037 A 
HETATM    8  C16 UNK     1      30.955  -8.669  29.298  1.00  0.00     0.102 A 
HETATM    9  C18 UNK     1      30.855  -7.283  29.411  1.00  0.00     0.037 A 
HETATM   10  C15 UNK     1      29.746  -6.713  30.035  1.00  0.00     0.015 A 
BRANCH   8  11
HETATM   11  N1  UNK     1      32.085  -9.250  28.663  1.00  0.00    -0.116 N 
HETATM   12  O2  UNK     1      32.368  -8.905  27.490  1.00  0.00    -0.532 OA
HETATM   13  O3  UNK     1      32.771 -10.091  29.293  1.00  0.00    -0.532 OA
ENDBRANCH   8  11
ENDBRANCH   3   5
BRANCH   2  14
HETATM   14  C1  UNK     1      28.561  -7.022  33.512  1.00  0.00    -0.035 A 
HETATM   15  C7  UNK     1      28.493  -8.215  34.231  1.00  0.00     0.014 A 
HETATM   16  C10 UNK     1      29.480  -8.521  35.169  1.00  0.00     0.037 A 
HETATM   17  C3  UNK     1      30.534  -7.633  35.386  1.00  0.00     0.069 A 
HETATM   18  C11 UNK     1      30.601  -6.441  34.666  1.00  0.00     0.037 A 
HETATM   19  C8  UNK     1      29.615  -6.135  33.729  1.00  0.00     0.014 A 
BRANCH  17  20
HETATM   20  O1  UNK     1      31.496  -7.930  36.301  1.00  0.00    -0.347 OA
BRANCH  20  21
HETATM   21  C2  UNK     1      31.072  -8.135  37.648  1.00  0.00     0.217 C 
BRANCH  21  22
HETATM   22  C4  UNK     1      30.478  -6.862  38.174  1.00  0.00     0.004 A 
HETATM   23  C12 UNK     1      29.165  -6.849  38.632  1.00  0.00     0.124 A 
HETATM   24  F1  UNK     1      28.420  -7.963  38.608  1.00  0.00    -0.205 F 
HETATM   25  C19 UNK     1      28.615  -5.663  39.120  1.00  0.00     0.043 A 
HETATM   26  C21 UNK     1      29.382  -4.499  39.149  1.00  0.00     0.003 A 
HETATM   27  C20 UNK     1      30.699  -4.520  38.689  1.00  0.00     0.001 A 
HETATM   28  C13 UNK     1      31.248  -5.705  38.199  1.00  0.00     0.012 A 
ENDBRANCH  21  22
ENDBRANCH  20  21
ENDBRANCH  17  20
ENDBRANCH   2  14
TORSDOF 6
ENDMDL
MODEL 7
REMARK VINA RESULT:      -8.1     15.685     17.265
REMARK  6 active torsions:
REMARK  status: ('A' for Active; 'I' for Inactive)
REMARK    1  A    between atoms: C2_8  and  O1_2 
REMARK    2  A    between atoms: C3_9  and  O1_2 
REMARK    3  A    between atoms: C16_22  and  N1_5 
REMARK    4  A    between atoms: C1_7  and  C6_12 
REMARK    5  A    between atoms: C2_8  and  C4_10 
REMARK    6  A    between atoms: C5_11  and  C9_15 
ROOT
HETATM    1  N2  UNK     1      29.543  -3.601  40.039  1.00  0.00    -0.191 NA
HETATM    2  C6  UNK     1      30.479  -4.829  36.937  1.00  0.00     0.034 C 
HETATM    3  C9  UNK     1      29.740  -5.203  38.013  1.00  0.00     0.055 C 
HETATM    4  C22 UNK     1      29.632  -4.318  39.130  1.00  0.00     0.100 C 
ENDROOT
BRANCH   3   5
HETATM    5  C5  UNK     1      29.029  -6.494  38.076  1.00  0.00    -0.015 A 
HETATM    6  C14 UNK     1      29.744  -7.649  38.347  1.00  0.00     0.015 A 
HETATM    7  C17 UNK     1      29.071  -8.869  38.405  1.00  0.00     0.037 A 
HETATM    8  C16 UNK     1      27.693  -8.916  38.192  1.00  0.00     0.102 A 
HETATM    9  C18 UNK     1      26.988  -7.744  37.921  1.00  0.00     0.037 A 
HETATM   10  C15 UNK     1      27.661  -6.524  37.862  1.00  0.00     0.015 A 
BRANCH   8  11
HETATM   11  N1  UNK     1      27.008 -10.159  38.252  1.00  0.00    -0.116 N 
HETATM   12  O2  UNK     1      27.136 -10.876  39.275  1.00  0.00    -0.532 OA
HETATM   13  O3  UNK     1      26.293 -10.506  37.281  1.00  0.00    -0.532 OA
ENDBRANCH   8  11
ENDBRANCH   3   5
BRANCH   2  14
HETATM   14  C1  UNK     1      30.718  -5.602  35.729  1.00  0.00    -0.035 A 
HETATM   15  C7  UNK     1      32.014  -5.740  35.235  1.00  0.00     0.014 A 
HETATM   16  C10 UNK     1      32.244  -6.483  34.077  1.00  0.00     0.037 A 
HETATM   17  C3  UNK     1      31.176  -7.087  33.413  1.00  0.00     0.069 A 
HETATM   18  C11 UNK     1      29.879  -6.947  33.907  1.00  0.00     0.037 A 
HETATM   19  C8  UNK     1      29.649  -6.206  35.065  1.00  0.00     0.014 A 
BRANCH  17  20
HETATM   20  O1  UNK     1      31.399  -7.811  32.283  1.00  0.00    -0.347 OA
BRANCH  20  21
HETATM   21  C2  UNK     1      31.133  -7.169  31.036  1.00  0.00     0.217 C 
BRANCH  21  22
HETATM   22  C4  UNK     1      29.670  -7.285  30.726  1.00  0.00     0.004 A 
HETATM   23  C12 UNK     1      28.914  -6.137  30.515  1.00  0.00     0.124 A 
HETATM   24  F1  UNK     1      29.477  -4.923  30.587  1.00  0.00    -0.205 F 
HETATM   25  C19 UNK     1      27.553  -6.249  30.228  1.00  0.00     0.043 A 
HETATM   26  C21 UNK     1      26.958  -7.507  30.152  1.00  0.00     0.003 A 
HETATM   27  C20 UNK     1      27.722  -8.655  30.364  1.00  0.00     0.001 A 
HETATM   28  C13 UNK     1      29.083  -8.543  30.652  1.00  0.00     0.012 A 
ENDBRANCH  21  22
ENDBRANCH  20  21
ENDBRANCH  17  20
ENDBRANCH   2  14
TORSDOF 6
ENDMDL
MODEL 8
REMARK VINA RESULT:      -8.1     17.242     19.634
REMARK  6 active torsions:
REMARK  status: ('A' for Active; 'I' for Inactive)
REMARK    1  A    between atoms: C2_8  and  O1_2 
REMARK    2  A    between atoms: C3_9  and  O1_2 
REMARK    3  A    between atoms: C16_22  and  N1_5 
REMARK    4  A    between atoms: C1_7  and  C6_12 
REMARK    5  A    between atoms: C2_8  and  C4_10 
REMARK    6  A    between atoms: C5_11  and  C9_15 
ROOT
HETATM    1  N2  UNK     1      28.046  -9.409  29.036  1.00  0.00    -0.191 NA
HETATM    2  C6  UNK     1      29.344  -8.369  32.076  1.00  0.00     0.034 C 
HETATM    3  C9  UNK     1      29.731  -8.497  30.780  1.00  0.00     0.055 C 
HETATM    4  C22 UNK     1      28.800  -9.000  29.819  1.00  0.00     0.100 C 
ENDROOT
BRANCH   3   5
HETATM    5  C5  UNK     1      31.081  -8.128  30.316  1.00  0.00    -0.015 A 
HETATM    6  C14 UNK     1      32.117  -9.037  30.452  1.00  0.00     0.015 A 
HETATM    7  C17 UNK     1      33.393  -8.687  30.013  1.00  0.00     0.037 A 
HETATM    8  C16 UNK     1      33.615  -7.433  29.445  1.00  0.00     0.102 A 
HETATM    9  C18 UNK     1      32.562  -6.529  29.314  1.00  0.00     0.037 A 
HETATM   10  C15 UNK     1      31.285  -6.879  29.753  1.00  0.00     0.015 A 
BRANCH   8  11
HETATM   11  N1  UNK     1      34.916  -7.077  28.998  1.00  0.00    -0.116 N 
HETATM   12  O2  UNK     1      35.406  -7.679  28.011  1.00  0.00    -0.532 OA
HETATM   13  O3  UNK     1      35.538  -6.169  29.600  1.00  0.00    -0.532 OA
ENDBRANCH   8  11
ENDBRANCH   3   5
BRANCH   2  14
HETATM   14  C1  UNK     1      30.156  -7.899  33.188  1.00  0.00    -0.035 A 
HETATM   15  C7  UNK     1      30.332  -6.531  33.392  1.00  0.00     0.014 A 
HETATM   16  C10 UNK     1      31.110  -6.080  34.459  1.00  0.00     0.037 A 
HETATM   17  C3  UNK     1      31.710  -6.999  35.321  1.00  0.00     0.069 A 
HETATM   18  C11 UNK     1      31.533  -8.366  35.115  1.00  0.00     0.037 A 
HETATM   19  C8  UNK     1      30.756  -8.818  34.049  1.00  0.00     0.014 A 
BRANCH  17  20
HETATM   20  O1  UNK     1      32.469  -6.560  36.361  1.00  0.00    -0.347 OA
BRANCH  20  21
HETATM   21  C2  UNK     1      32.137  -7.050  37.660  1.00  0.00     0.217 C 
BRANCH  21  22
HETATM   22  C4  UNK     1      30.952  -6.293  38.183  1.00  0.00     0.004 A 
HETATM   23  C12 UNK     1      29.780  -6.973  38.494  1.00  0.00     0.124 A 
HETATM   24  F1  UNK     1      29.694  -8.300  38.333  1.00  0.00    -0.205 F 
HETATM   25  C19 UNK     1      28.679  -6.265  38.980  1.00  0.00     0.043 A 
HETATM   26  C21 UNK     1      28.758  -4.884  39.151  1.00  0.00     0.003 A 
HETATM   27  C20 UNK     1      29.939  -4.208  38.837  1.00  0.00     0.001 A 
HETATM   28  C13 UNK     1      31.038  -4.916  38.351  1.00  0.00     0.012 A 
ENDBRANCH  21  22
ENDBRANCH  20  21
ENDBRANCH  17  20
ENDBRANCH   2  14
TORSDOF 6
ENDMDL
MODEL 9
REMARK VINA RESULT:      -8.0     17.422     19.830
REMARK  6 active torsions:
REMARK  status: ('A' for Active; 'I' for Inactive)
REMARK    1  A    between atoms: C2_8  and  O1_2 
REMARK    2  A    between atoms: C3_9  and  O1_2 
REMARK    3  A    between atoms: C16_22  and  N1_5 
REMARK    4  A    between atoms: C1_7  and  C6_12 
REMARK    5  A    between atoms: C2_8  and  C4_10 
REMARK    6  A    between atoms: C5_11  and  C9_15 
ROOT
HETATM    1  N2  UNK     1      28.174  -9.554  28.977  1.00  0.00    -0.191 NA
HETATM    2  C6  UNK     1      29.463  -8.629  32.057  1.00  0.00     0.034 C 
HETATM    3  C9  UNK     1      29.847  -8.689  30.756  1.00  0.00     0.055 C 
HETATM    4  C22 UNK     1      28.922  -9.167  29.776  1.00  0.00     0.100 C 
ENDROOT
BRANCH   3   5
HETATM    5  C5  UNK     1      31.187  -8.270  30.304  1.00  0.00    -0.015 A 
HETATM    6  C14 UNK     1      31.359  -7.000  29.779  1.00  0.00     0.015 A 
HETATM    7  C17 UNK     1      32.626  -6.605  29.351  1.00  0.00     0.037 A 
HETATM    8  C16 UNK     1      33.703  -7.486  29.455  1.00  0.00     0.102 A 
HETATM    9  C18 UNK     1      33.513  -8.760  29.987  1.00  0.00     0.037 A 
HETATM   10  C15 UNK     1      32.246  -9.156  30.414  1.00  0.00     0.015 A 
BRANCH   8  11
HETATM   11  N1  UNK     1      34.993  -7.083  29.020  1.00  0.00    -0.116 N 
HETATM   12  O2  UNK     1      35.577  -6.151  29.626  1.00  0.00    -0.532 OA
HETATM   13  O3  UNK     1      35.516  -7.670  28.042  1.00  0.00    -0.532 OA
ENDBRANCH   8  11
ENDBRANCH   3   5
BRANCH   2  14
HETATM   14  C1  UNK     1      30.270  -8.195  33.187  1.00  0.00    -0.035 A 
HETATM   15  C7  UNK     1      30.910  -9.138  33.990  1.00  0.00     0.014 A 
HETATM   16  C10 UNK     1      31.684  -8.721  35.073  1.00  0.00     0.037 A 
HETATM   17  C3  UNK     1      31.817  -7.361  35.352  1.00  0.00     0.069 A 
HETATM   18  C11 UNK     1      31.177  -6.418  34.548  1.00  0.00     0.037 A 
HETATM   19  C8  UNK     1      30.403  -6.834  33.466  1.00  0.00     0.014 A 
BRANCH  17  20
HETATM   20  O1  UNK     1      32.572  -6.954  36.408  1.00  0.00    -0.347 OA
BRANCH  20  21
HETATM   21  C2  UNK     1      32.164  -7.388  37.705  1.00  0.00     0.217 C 
BRANCH  21  22
HETATM   22  C4  UNK     1      31.034  -6.523  38.179  1.00  0.00     0.004 A 
HETATM   23  C12 UNK     1      31.245  -5.165  38.394  1.00  0.00     0.124 A 
HETATM   24  F1  UNK     1      32.450  -4.617  38.182  1.00  0.00    -0.205 F 
HETATM   25  C19 UNK     1      30.191  -4.364  38.835  1.00  0.00     0.043 A 
HETATM   26  C21 UNK     1      28.934  -4.925  39.058  1.00  0.00     0.003 A 
HETATM   27  C20 UNK     1      28.730  -6.288  38.840  1.00  0.00     0.001 A 
HETATM   28  C13 UNK     1      29.784  -7.089  38.400  1.00  0.00     0.012 A 
ENDBRANCH  21  22
ENDBRANCH  20  21
ENDBRANCH  17  20
ENDBRANCH   2  14
TORSDOF 6
ENDMDL
MODEL 10
REMARK VINA RESULT:      -8.0     15.634     18.655
REMARK  6 active torsions:
REMARK  status: ('A' for Active; 'I' for Inactive)
REMARK    1  A    between atoms: C2_8  and  O1_2 
REMARK    2  A    between atoms: C3_9  and  O1_2 
REMARK    3  A    between atoms: C16_22  and  N1_5 
REMARK    4  A    between atoms: C1_7  and  C6_12 
REMARK    5  A    between atoms: C2_8  and  C4_10 
REMARK    6  A    between atoms: C5_11  and  C9_15 
ROOT
HETATM    1  N2  UNK     1      25.600  -6.166  29.583  1.00  0.00    -0.191 NA
HETATM    2  C6  UNK     1      27.451  -6.769  32.449  1.00  0.00     0.034 C 
HETATM    3  C9  UNK     1      27.553  -6.928  31.105  1.00  0.00     0.055 C 
HETATM    4  C22 UNK     1      26.475  -6.507  30.266  1.00  0.00     0.100 C 
ENDROOT
BRANCH   3   5
HETATM    5  C5  UNK     1      28.746  -7.515  30.464  1.00  0.00    -0.015 A 
HETATM    6  C14 UNK     1      29.825  -6.700  30.167  1.00  0.00     0.015 A 
HETATM    7  C17 UNK     1      30.952  -7.255  29.561  1.00  0.00     0.037 A 
HETATM    8  C16 UNK     1      30.982  -8.617  29.261  1.00  0.00     0.102 A 
HETATM    9  C18 UNK     1      29.886  -9.423  29.567  1.00  0.00     0.037 A 
HETATM   10  C15 UNK     1      28.760  -8.868  30.173  1.00  0.00     0.015 A 
BRANCH   8  11
HETATM   11  N1  UNK     1      32.129  -9.182  28.644  1.00  0.00    -0.116 N 
HETATM   12  O2  UNK     1      32.861  -9.954  29.311  1.00  0.00    -0.532 OA
HETATM   13  O3  UNK     1      32.380  -8.896  27.448  1.00  0.00    -0.532 OA
ENDBRANCH   8  11
ENDBRANCH   3   5
BRANCH   2  14
HETATM   14  C1  UNK     1      28.431  -7.155  33.452  1.00  0.00    -0.035 A 
HETATM   15  C7  UNK     1      29.326  -6.211  33.952  1.00  0.00     0.014 A 
HETATM   16  C10 UNK     1      30.265  -6.581  34.915  1.00  0.00     0.037 A 
HETATM   17  C3  UNK     1      30.308  -7.897  35.377  1.00  0.00     0.069 A 
HETATM   18  C11 UNK     1      29.413  -8.841  34.876  1.00  0.00     0.037 A 
HETATM   19  C8  UNK     1      28.474  -8.471  33.914  1.00  0.00     0.014 A 
BRANCH  17  20
HETATM   20  O1  UNK     1      31.224  -8.258  36.316  1.00  0.00    -0.347 OA
BRANCH  20  21
HETATM   21  C2  UNK     1      31.153  -7.601  37.581  1.00  0.00     0.217 C 
BRANCH  21  22
HETATM   22  C4  UNK     1      29.903  -8.033  38.288  1.00  0.00     0.004 A 
HETATM   23  C12 UNK     1      28.983  -7.079  38.710  1.00  0.00     0.124 A 
HETATM   24  F1  UNK     1      29.200  -5.775  38.494  1.00  0.00    -0.205 F 
HETATM   25  C19 UNK     1      27.821  -7.484  39.369  1.00  0.00     0.043 A 
HETATM   26  C21 UNK     1      27.587  -8.839  39.600  1.00  0.00     0.003 A 
HETATM   27  C20 UNK     1      28.514  -9.791  39.172  1.00  0.00     0.001 A 
HETATM   28  C13 UNK     1      29.676  -9.385  38.515  1.00  0.00     0.012 A 
ENDBRANCH  21  22
ENDBRANCH  20  21
ENDBRANCH  17  20
ENDBRANCH   2  14
TORSDOF 6
ENDMDL
