MODEL 1
REMARK VINA RESULT:      -8.9      0.000      0.000
REMARK  3 active torsions:
REMARK  status: ('A' for Active; 'I' for Inactive)
REMARK    1  A    between atoms: C19_23  and  O2_2 
REMARK    2  A    between atoms: C6_10  and  N1_4 
REMARK    3  A    between atoms: C6_10  and  C7_11 
ROOT
HETATM    1  O1  UNK     1      17.736  -0.550  34.313  1.00  0.00    -0.275 OA
HETATM    2  O3  UNK     1      16.625  -0.247  36.288  1.00  0.00    -0.260 OA
HETATM    3  C7  UNK     1      19.512  -2.270  35.689  1.00  0.00    -0.011 A 
HETATM    4  C10 UNK     1      19.690  -2.014  34.253  1.00  0.00     0.006 A 
HETATM    5  C11 UNK     1      18.496  -1.677  36.331  1.00  0.00     0.092 A 
HETATM    6  C14 UNK     1      18.795  -1.159  33.610  1.00  0.00     0.093 A 
HETATM    7  C15 UNK     1      20.715  -2.581  33.484  1.00  0.00     0.017 A 
HETATM    8  C16 UNK     1      17.543  -0.773  35.668  1.00  0.00     0.288 A 
HETATM    9  C17 UNK     1      18.894  -0.862  32.249  1.00  0.00     0.075 A 
HETATM   10  C18 UNK     1      20.828  -2.293  32.118  1.00  0.00     0.038 A 
HETATM   11  C19 UNK     1      19.919  -1.435  31.502  1.00  0.00     0.070 A 
ENDROOT
BRANCH   3  12
HETATM   12  C6  UNK     1      20.450  -3.178  36.405  1.00  0.00     0.312 C 
BRANCH  12  13
HETATM   13  N1  UNK     1      19.845  -4.476  36.699  1.00  0.00     0.097 N 
HETATM   14  C1  UNK     1      19.885  -5.350  35.519  1.00  0.00     0.277 C 
HETATM   15  C3  UNK     1      19.067  -6.617  35.784  1.00  0.00     0.069 C 
HETATM   16  C5  UNK     1      19.393  -7.260  37.107  1.00  0.00    -0.049 A 
HETATM   17  C4  UNK     1      20.059  -6.526  38.104  1.00  0.00    -0.024 A 
HETATM   18  C9  UNK     1      18.980  -8.572  37.371  1.00  0.00     0.007 A 
HETATM   19  C2  UNK     1      20.539  -5.120  37.830  1.00  0.00     0.311 C 
HETATM   20  C8  UNK     1      20.334  -7.131  39.338  1.00  0.00     0.009 A 
HETATM   21  C12 UNK     1      19.928  -8.441  39.587  1.00  0.00     0.001 A 
HETATM   22  C13 UNK     1      19.249  -9.161  38.606  1.00  0.00     0.001 A 
ENDBRANCH  12  13
ENDBRANCH   3  12
BRANCH  11  23
HETATM   23  O2  UNK     1      20.032  -1.159  30.175  1.00  0.00    -0.356 OA
HETATM   24  C20 UNK     1      20.126   0.215  29.802  1.00  0.00     0.210 C 
ENDBRANCH  11  23
TORSDOF 3
ENDMDL
MODEL 2
REMARK VINA RESULT:      -8.9      5.046     10.226
REMARK  3 active torsions:
REMARK  status: ('A' for Active; 'I' for Inactive)
REMARK    1  A    between atoms: C19_23  and  O2_2 
REMARK    2  A    between atoms: C6_10  and  N1_4 
REMARK    3  A    between atoms: C6_10  and  C7_11 
ROOT
HETATM    1  O1  UNK     1      19.927  -0.742  30.631  1.00  0.00    -0.275 OA
HETATM    2  O3  UNK     1      20.525  -0.455  28.443  1.00  0.00    -0.260 OA
HETATM    3  C7  UNK     1      18.723   1.817  30.535  1.00  0.00    -0.011 A 
HETATM    4  C10 UNK     1      18.688   1.026  31.773  1.00  0.00     0.006 A 
HETATM    5  C11 UNK     1      19.334   1.305  29.456  1.00  0.00     0.092 A 
HETATM    6  C14 UNK     1      19.293  -0.230  31.781  1.00  0.00     0.093 A 
HETATM    7  C15 UNK     1      18.078   1.463  32.956  1.00  0.00     0.017 A 
HETATM    8  C16 UNK     1      19.977  -0.019  29.449  1.00  0.00     0.288 A 
HETATM    9  C17 UNK     1      19.305  -1.045  32.915  1.00  0.00     0.075 A 
HETATM   10  C18 UNK     1      18.082   0.657  34.102  1.00  0.00     0.038 A 
HETATM   11  C19 UNK     1      18.694  -0.594  34.081  1.00  0.00     0.070 A 
ENDROOT
BRANCH   3  12
HETATM   12  C6  UNK     1      18.086   3.162  30.493  1.00  0.00     0.312 C 
BRANCH  12  13
HETATM   13  N1  UNK     1      18.743   4.112  31.388  1.00  0.00     0.097 N 
HETATM   14  C1  UNK     1      19.612   5.025  30.634  1.00  0.00     0.277 C 
HETATM   15  C3  UNK     1      20.445   5.870  31.602  1.00  0.00     0.069 C 
HETATM   16  C5  UNK     1      19.619   6.484  32.703  1.00  0.00    -0.049 A 
HETATM   17  C4  UNK     1      18.340   5.978  32.994  1.00  0.00    -0.024 A 
HETATM   18  C9  UNK     1      20.147   7.521  33.482  1.00  0.00     0.007 A 
HETATM   19  C2  UNK     1      17.739   4.879  32.148  1.00  0.00     0.311 C 
HETATM   20  C8  UNK     1      17.595   6.545  34.036  1.00  0.00     0.009 A 
HETATM   21  C12 UNK     1      18.125   7.584  34.799  1.00  0.00     0.001 A 
HETATM   22  C13 UNK     1      19.402   8.071  34.524  1.00  0.00     0.001 A 
ENDBRANCH  12  13
ENDBRANCH   3  12
BRANCH  11  23
HETATM   23  O2  UNK     1      18.694  -1.372  35.197  1.00  0.00    -0.356 OA
HETATM   24  C20 UNK     1      17.571  -1.258  36.069  1.00  0.00     0.210 C 
ENDBRANCH  11  23
TORSDOF 3
ENDMDL
MODEL 3
REMARK VINA RESULT:      -8.7      6.287     10.687
REMARK  3 active torsions:
REMARK  status: ('A' for Active; 'I' for Inactive)
REMARK    1  A    between atoms: C19_23  and  O2_2 
REMARK    2  A    between atoms: C6_10  and  N1_4 
REMARK    3  A    between atoms: C6_10  and  C7_11 
ROOT
HETATM    1  O1  UNK     1      18.777   0.346  33.347  1.00  0.00    -0.275 OA
HETATM    2  O3  UNK     1      18.017   1.325  35.269  1.00  0.00    -0.260 OA
HETATM    3  C7  UNK     1      18.341   2.814  32.034  1.00  0.00    -0.011 A 
HETATM    4  C10 UNK     1      18.871   1.663  31.292  1.00  0.00     0.006 A 
HETATM    5  C11 UNK     1      18.070   2.674  33.340  1.00  0.00     0.092 A 
HETATM    6  C14 UNK     1      19.071   0.462  31.974  1.00  0.00     0.093 A 
HETATM    7  C15 UNK     1      19.188   1.697  29.927  1.00  0.00     0.017 A 
HETATM    8  C16 UNK     1      18.276   1.415  34.074  1.00  0.00     0.288 A 
HETATM    9  C17 UNK     1      19.570  -0.680  31.343  1.00  0.00     0.075 A 
HETATM   10  C18 UNK     1      19.690   0.560  29.281  1.00  0.00     0.038 A 
HETATM   11  C19 UNK     1      19.880  -0.626  29.988  1.00  0.00     0.070 A 
ENDROOT
BRANCH   3  12
HETATM   12  C6  UNK     1      18.115   4.110  31.335  1.00  0.00     0.312 C 
BRANCH  12  13
HETATM   13  N1  UNK     1      18.282   5.255  32.229  1.00  0.00     0.097 N 
HETATM   14  C1  UNK     1      19.607   5.865  32.052  1.00  0.00     0.277 C 
HETATM   15  C3  UNK     1      19.839   6.924  33.134  1.00  0.00     0.069 C 
HETATM   16  C5  UNK     1      18.677   7.872  33.286  1.00  0.00    -0.049 A 
HETATM   17  C4  UNK     1      17.414   7.529  32.774  1.00  0.00    -0.024 A 
HETATM   18  C9  UNK     1      18.837   9.070  33.992  1.00  0.00     0.007 A 
HETATM   19  C2  UNK     1      17.226   6.254  31.984  1.00  0.00     0.311 C 
HETATM   20  C8  UNK     1      16.338   8.410  32.944  1.00  0.00     0.009 A 
HETATM   21  C12 UNK     1      16.510   9.606  33.640  1.00  0.00     0.001 A 
HETATM   22  C13 UNK     1      17.758   9.935  34.166  1.00  0.00     0.001 A 
ENDBRANCH  12  13
ENDBRANCH   3  12
BRANCH  11  23
HETATM   23  O2  UNK     1      20.368  -1.727  29.355  1.00  0.00    -0.356 OA
HETATM   24  C20 UNK     1      20.781  -2.819  30.175  1.00  0.00     0.210 C 
ENDBRANCH  11  23
TORSDOF 3
ENDMDL
MODEL 4
REMARK VINA RESULT:      -8.2      8.490     11.116
REMARK  3 active torsions:
REMARK  status: ('A' for Active; 'I' for Inactive)
REMARK    1  A    between atoms: C19_23  and  O2_2 
REMARK    2  A    between atoms: C6_10  and  N1_4 
REMARK    3  A    between atoms: C6_10  and  C7_11 
ROOT
HETATM    1  O1  UNK     1      14.535   8.689  32.873  1.00  0.00    -0.275 OA
HETATM    2  O3  UNK     1      13.397   6.933  31.953  1.00  0.00    -0.260 OA
HETATM    3  C7  UNK     1      16.918   7.205  32.517  1.00  0.00    -0.011 A 
HETATM    4  C10 UNK     1      16.962   8.546  33.115  1.00  0.00     0.006 A 
HETATM    5  C11 UNK     1      15.733   6.700  32.145  1.00  0.00     0.092 A 
HETATM    6  C14 UNK     1      15.766   9.246  33.275  1.00  0.00     0.093 A 
HETATM    7  C15 UNK     1      18.143   9.169  33.539  1.00  0.00     0.017 A 
HETATM    8  C16 UNK     1      14.463   7.426  32.306  1.00  0.00     0.288 A 
HETATM    9  C17 UNK     1      15.720  10.525  33.835  1.00  0.00     0.075 A 
HETATM   10  C18 UNK     1      18.113  10.451  34.102  1.00  0.00     0.038 A 
HETATM   11  C19 UNK     1      16.903  11.128  34.250  1.00  0.00     0.070 A 
ENDROOT
BRANCH   3  12
HETATM   12  C6  UNK     1      18.177   6.431  32.332  1.00  0.00     0.312 C 
BRANCH  12  13
HETATM   13  N1  UNK     1      17.967   4.992  32.481  1.00  0.00     0.097 N 
HETATM   14  C1  UNK     1      18.660   4.252  31.419  1.00  0.00     0.277 C 
HETATM   15  C3  UNK     1      18.261   2.774  31.469  1.00  0.00     0.069 C 
HETATM   16  C5  UNK     1      18.340   2.192  32.857  1.00  0.00    -0.049 A 
HETATM   17  C4  UNK     1      18.378   3.039  33.977  1.00  0.00    -0.024 A 
HETATM   18  C9  UNK     1      18.316   0.803  33.038  1.00  0.00     0.007 A 
HETATM   19  C2  UNK     1      18.435   4.540  33.804  1.00  0.00     0.311 C 
HETATM   20  C8  UNK     1      18.428   2.482  35.262  1.00  0.00     0.009 A 
HETATM   21  C12 UNK     1      18.413   1.098  35.432  1.00  0.00     0.001 A 
HETATM   22  C13 UNK     1      18.355   0.259  34.321  1.00  0.00     0.001 A 
ENDBRANCH  12  13
ENDBRANCH   3  12
BRANCH  11  23
HETATM   23  O2  UNK     1      16.880  12.373  34.797  1.00  0.00    -0.356 OA
HETATM   24  C20 UNK     1      18.133  13.035  34.959  1.00  0.00     0.210 C 
ENDBRANCH  11  23
TORSDOF 3
ENDMDL
MODEL 5
REMARK VINA RESULT:      -8.1     27.746     30.210
REMARK  3 active torsions:
REMARK  status: ('A' for Active; 'I' for Inactive)
REMARK    1  A    between atoms: C19_23  and  O2_2 
REMARK    2  A    between atoms: C6_10  and  N1_4 
REMARK    3  A    between atoms: C6_10  and  C7_11 
ROOT
HETATM    1  O1  UNK     1      13.982   4.585   8.963  1.00  0.00    -0.275 OA
HETATM    2  O3  UNK     1      16.056   4.023   9.745  1.00  0.00    -0.260 OA
HETATM    3  C7  UNK     1      14.431   7.203   9.939  1.00  0.00    -0.011 A 
HETATM    4  C10 UNK     1      13.170   6.869   9.264  1.00  0.00     0.006 A 
HETATM    5  C11 UNK     1      15.361   6.248  10.083  1.00  0.00     0.092 A 
HETATM    6  C14 UNK     1      12.985   5.568   8.797  1.00  0.00     0.093 A 
HETATM    7  C15 UNK     1      12.132   7.788   9.059  1.00  0.00     0.017 A 
HETATM    8  C16 UNK     1      15.182   4.870   9.596  1.00  0.00     0.288 A 
HETATM    9  C17 UNK     1      11.817   5.168   8.145  1.00  0.00     0.075 A 
HETATM   10  C18 UNK     1      10.954   7.402   8.407  1.00  0.00     0.038 A 
HETATM   11  C19 UNK     1      10.797   6.094   7.951  1.00  0.00     0.070 A 
ENDROOT
BRANCH   3  12
HETATM   12  C6  UNK     1      14.660   8.583  10.449  1.00  0.00     0.312 C 
BRANCH  12  13
HETATM   13  N1  UNK     1      15.509   9.368   9.555  1.00  0.00     0.097 N 
HETATM   14  C1  UNK     1      14.725  10.401   8.866  1.00  0.00     0.277 C 
HETATM   15  C3  UNK     1      15.582  11.071   7.788  1.00  0.00     0.069 C 
HETATM   16  C5  UNK     1      16.942  11.482   8.291  1.00  0.00    -0.049 A 
HETATM   17  C4  UNK     1      17.454  10.928   9.477  1.00  0.00    -0.024 A 
HETATM   18  C9  UNK     1      17.726  12.373   7.547  1.00  0.00     0.007 A 
HETATM   19  C2  UNK     1      16.613   9.988  10.310  1.00  0.00     0.311 C 
HETATM   20  C8  UNK     1      18.730  11.303   9.919  1.00  0.00     0.009 A 
HETATM   21  C12 UNK     1      19.499  12.198   9.177  1.00  0.00     0.001 A 
HETATM   22  C13 UNK     1      18.999  12.731   7.990  1.00  0.00     0.001 A 
ENDBRANCH  12  13
ENDBRANCH   3  12
BRANCH  11  23
HETATM   23  O2  UNK     1       9.651   5.725   7.318  1.00  0.00    -0.356 OA
HETATM   24  C20 UNK     1       9.497   6.135   5.960  1.00  0.00     0.210 C 
ENDBRANCH  11  23
TORSDOF 3
ENDMDL
MODEL 6
REMARK VINA RESULT:      -8.1      1.435      3.682
REMARK  3 active torsions:
REMARK  status: ('A' for Active; 'I' for Inactive)
REMARK    1  A    between atoms: C19_23  and  O2_2 
REMARK    2  A    between atoms: C6_10  and  N1_4 
REMARK    3  A    between atoms: C6_10  and  C7_11 
ROOT
HETATM    1  O1  UNK     1      18.985  -1.093  33.861  1.00  0.00    -0.275 OA
HETATM    2  O3  UNK     1      20.314  -2.147  32.328  1.00  0.00    -0.260 OA
HETATM    3  C7  UNK     1      20.107  -2.772  35.843  1.00  0.00    -0.011 A 
HETATM    4  C10 UNK     1      19.093  -1.772  36.204  1.00  0.00     0.006 A 
HETATM    5  C11 UNK     1      20.489  -2.873  34.561  1.00  0.00     0.092 A 
HETATM    6  C14 UNK     1      18.563  -0.963  35.199  1.00  0.00     0.093 A 
HETATM    7  C15 UNK     1      18.622  -1.581  37.510  1.00  0.00     0.017 A 
HETATM    8  C16 UNK     1      19.940  -2.027  33.489  1.00  0.00     0.288 A 
HETATM    9  C17 UNK     1      17.595   0.011  35.457  1.00  0.00     0.075 A 
HETATM   10  C18 UNK     1      17.652  -0.608  37.785  1.00  0.00     0.038 A 
HETATM   11  C19 UNK     1      17.140   0.186  36.760  1.00  0.00     0.070 A 
ENDROOT
BRANCH   3  12
HETATM   12  C6  UNK     1      20.693  -3.651  36.892  1.00  0.00     0.312 C 
BRANCH  12  13
HETATM   13  N1  UNK     1      19.992  -4.929  36.996  1.00  0.00     0.097 N 
HETATM   14  C1  UNK     1      20.004  -5.637  35.709  1.00  0.00     0.277 C 
HETATM   15  C3  UNK     1      19.093  -6.866  35.783  1.00  0.00     0.069 C 
HETATM   16  C5  UNK     1      19.336  -7.703  37.013  1.00  0.00    -0.049 A 
HETATM   17  C4  UNK     1      20.022  -7.159  38.113  1.00  0.00    -0.024 A 
HETATM   18  C9  UNK     1      18.826  -9.005  37.088  1.00  0.00     0.007 A 
HETATM   19  C2  UNK     1      20.606  -5.767  38.042  1.00  0.00     0.311 C 
HETATM   20  C8  UNK     1      20.220  -7.943  39.258  1.00  0.00     0.009 A 
HETATM   21  C12 UNK     1      19.717  -9.242  39.319  1.00  0.00     0.001 A 
HETATM   22  C13 UNK     1      19.019  -9.772  38.236  1.00  0.00     0.001 A 
ENDBRANCH  12  13
ENDBRANCH   3  12
BRANCH  11  23
HETATM   23  O2  UNK     1      16.199   1.129  37.033  1.00  0.00    -0.356 OA
HETATM   24  C20 UNK     1      14.876   0.884  36.559  1.00  0.00     0.210 C 
ENDBRANCH  11  23
TORSDOF 3
ENDMDL
MODEL 7
REMARK VINA RESULT:      -8.0      7.689     11.618
REMARK  3 active torsions:
REMARK  status: ('A' for Active; 'I' for Inactive)
REMARK    1  A    between atoms: C19_23  and  O2_2 
REMARK    2  A    between atoms: C6_10  and  N1_4 
REMARK    3  A    between atoms: C6_10  and  C7_11 
ROOT
HETATM    1  O1  UNK     1      18.415   1.741  32.932  1.00  0.00    -0.275 OA
HETATM    2  O3  UNK     1      18.149   2.479  35.080  1.00  0.00    -0.260 OA
HETATM    3  C7  UNK     1      18.283   4.440  32.093  1.00  0.00    -0.011 A 
HETATM    4  C10 UNK     1      18.464   3.365  31.108  1.00  0.00     0.006 A 
HETATM    5  C11 UNK     1      18.183   4.119  33.391  1.00  0.00     0.092 A 
HETATM    6  C14 UNK     1      18.523   2.046  31.561  1.00  0.00     0.093 A 
HETATM    7  C15 UNK     1      18.580   3.585  29.729  1.00  0.00     0.017 A 
HETATM    8  C16 UNK     1      18.244   2.734  33.885  1.00  0.00     0.288 A 
HETATM    9  C17 UNK     1      18.692   0.966  30.692  1.00  0.00     0.075 A 
HETATM   10  C18 UNK     1      18.750   2.512  28.845  1.00  0.00     0.038 A 
HETATM   11  C19 UNK     1      18.806   1.205  29.326  1.00  0.00     0.070 A 
ENDROOT
BRANCH   3  12
HETATM   12  C6  UNK     1      18.216   5.857  31.642  1.00  0.00     0.312 C 
BRANCH  12  13
HETATM   13  N1  UNK     1      17.607   6.728  32.647  1.00  0.00     0.097 N 
HETATM   14  C1  UNK     1      18.555   7.761  33.084  1.00  0.00     0.277 C 
HETATM   15  C3  UNK     1      17.976   8.527  34.277  1.00  0.00     0.069 C 
HETATM   16  C5  UNK     1      16.553   8.970  34.054  1.00  0.00    -0.049 A 
HETATM   17  C4  UNK     1      15.777   8.376  33.044  1.00  0.00    -0.024 A 
HETATM   18  C9  UNK     1      15.979   9.935  34.891  1.00  0.00     0.007 A 
HETATM   19  C2  UNK     1      16.386   7.354  32.110  1.00  0.00     0.311 C 
HETATM   20  C8  UNK     1      14.449   8.783  32.864  1.00  0.00     0.009 A 
HETATM   21  C12 UNK     1      13.889   9.751  33.697  1.00  0.00     0.001 A 
HETATM   22  C13 UNK     1      14.653  10.325  34.711  1.00  0.00     0.001 A 
ENDBRANCH  12  13
ENDBRANCH   3  12
BRANCH  11  23
HETATM   23  O2  UNK     1      18.971   0.167  28.463  1.00  0.00    -0.356 OA
HETATM   24  C20 UNK     1      20.097  -0.684  28.677  1.00  0.00     0.210 C 
ENDBRANCH  11  23
TORSDOF 3
ENDMDL
MODEL 8
REMARK VINA RESULT:      -8.0     27.926     30.016
REMARK  3 active torsions:
REMARK  status: ('A' for Active; 'I' for Inactive)
REMARK    1  A    between atoms: C19_23  and  O2_2 
REMARK    2  A    between atoms: C6_10  and  N1_4 
REMARK    3  A    between atoms: C6_10  and  C7_11 
ROOT
HETATM    1  O1  UNK     1       7.387   6.352   9.282  1.00  0.00    -0.275 OA
HETATM    2  O3  UNK     1       7.459   4.469   7.986  1.00  0.00    -0.260 OA
HETATM    3  C7  UNK     1       9.857   7.118   8.132  1.00  0.00    -0.011 A 
HETATM    4  C10 UNK     1       9.208   7.974   9.135  1.00  0.00     0.006 A 
HETATM    5  C11 UNK     1       9.259   5.973   7.774  1.00  0.00     0.092 A 
HETATM    6  C14 UNK     1       7.991   7.562   9.680  1.00  0.00     0.093 A 
HETATM    7  C15 UNK     1       9.742   9.190   9.581  1.00  0.00     0.017 A 
HETATM    8  C16 UNK     1       7.976   5.524   8.339  1.00  0.00     0.288 A 
HETATM    9  C17 UNK     1       7.309   8.315  10.637  1.00  0.00     0.075 A 
HETATM   10  C18 UNK     1       9.069   9.957  10.541  1.00  0.00     0.038 A 
HETATM   11  C19 UNK     1       7.855   9.520  11.068  1.00  0.00     0.070 A 
ENDROOT
BRANCH   3  12
HETATM   12  C6  UNK     1      11.155   7.530   7.532  1.00  0.00     0.312 C 
BRANCH  12  13
HETATM   13  N1  UNK     1      12.295   7.135   8.357  1.00  0.00     0.097 N 
HETATM   14  C1  UNK     1      12.954   5.946   7.800  1.00  0.00     0.277 C 
HETATM   15  C3  UNK     1      14.008   5.428   8.783  1.00  0.00     0.069 C 
HETATM   16  C5  UNK     1      14.912   6.516   9.301  1.00  0.00    -0.049 A 
HETATM   17  C4  UNK     1      14.531   7.865   9.188  1.00  0.00    -0.024 A 
HETATM   18  C9  UNK     1      16.107   6.186   9.951  1.00  0.00     0.007 A 
HETATM   19  C2  UNK     1      13.259   8.245   8.465  1.00  0.00     0.311 C 
HETATM   20  C8  UNK     1      15.372   8.864   9.696  1.00  0.00     0.009 A 
HETATM   21  C12 UNK     1      16.565   8.526  10.333  1.00  0.00     0.001 A 
HETATM   22  C13 UNK     1      16.932   7.188  10.463  1.00  0.00     0.001 A 
ENDBRANCH  12  13
ENDBRANCH   3  12
BRANCH  11  23
HETATM   23  O2  UNK     1       7.207  10.269  12.000  1.00  0.00    -0.356 OA
HETATM   24  C20 UNK     1       5.971   9.760  12.499  1.00  0.00     0.210 C 
ENDBRANCH  11  23
TORSDOF 3
ENDMDL
MODEL 9
REMARK VINA RESULT:      -7.9      3.654      7.785
REMARK  3 active torsions:
REMARK  status: ('A' for Active; 'I' for Inactive)
REMARK    1  A    between atoms: C19_23  and  O2_2 
REMARK    2  A    between atoms: C6_10  and  N1_4 
REMARK    3  A    between atoms: C6_10  and  C7_11 
ROOT
HETATM    1  O1  UNK     1      20.092  -8.011  36.895  1.00  0.00    -0.275 OA
HETATM    2  O3  UNK     1      18.127  -7.901  35.730  1.00  0.00    -0.260 OA
HETATM    3  C7  UNK     1      20.009  -5.190  37.108  1.00  0.00    -0.011 A 
HETATM    4  C10 UNK     1      21.119  -5.947  37.703  1.00  0.00     0.006 A 
HETATM    5  C11 UNK     1      19.040  -5.859  36.466  1.00  0.00     0.092 A 
HETATM    6  C14 UNK     1      21.125  -7.336  37.575  1.00  0.00     0.093 A 
HETATM    7  C15 UNK     1      22.183  -5.352  38.394  1.00  0.00     0.017 A 
HETATM    8  C16 UNK     1      19.031  -7.324  36.324  1.00  0.00     0.288 A 
HETATM    9  C17 UNK     1      22.143  -8.130  38.110  1.00  0.00     0.075 A 
HETATM   10  C18 UNK     1      23.210  -6.135  38.936  1.00  0.00     0.038 A 
HETATM   11  C19 UNK     1      23.190  -7.521  38.794  1.00  0.00     0.070 A 
ENDROOT
BRANCH   3  12
HETATM   12  C6  UNK     1      19.973  -3.707  37.226  1.00  0.00     0.312 C 
BRANCH  12  13
HETATM   13  N1  UNK     1      19.489  -3.067  36.004  1.00  0.00     0.097 N 
HETATM   14  C1  UNK     1      19.032  -1.699  36.277  1.00  0.00     0.277 C 
HETATM   15  C3  UNK     1      18.341  -1.124  35.037  1.00  0.00     0.069 C 
HETATM   16  C5  UNK     1      19.139  -1.327  33.775  1.00  0.00    -0.049 A 
HETATM   17  C4  UNK     1      20.167  -2.284  33.735  1.00  0.00    -0.024 A 
HETATM   18  C9  UNK     1      18.819  -0.605  32.618  1.00  0.00     0.007 A 
HETATM   19  C2  UNK     1      20.549  -3.053  34.979  1.00  0.00     0.311 C 
HETATM   20  C8  UNK     1      20.884  -2.477  32.546  1.00  0.00     0.009 A 
HETATM   21  C12 UNK     1      20.565  -1.746  31.403  1.00  0.00     0.001 A 
HETATM   22  C13 UNK     1      19.531  -0.812  31.438  1.00  0.00     0.001 A 
ENDBRANCH  12  13
ENDBRANCH   3  12
BRANCH  11  23
HETATM   23  O2  UNK     1      24.190  -8.276  39.322  1.00  0.00    -0.356 OA
HETATM   24  C20 UNK     1      25.476  -8.170  38.713  1.00  0.00     0.210 C 
ENDBRANCH  11  23
TORSDOF 3
ENDMDL
MODEL 10
REMARK VINA RESULT:      -7.9     27.963     29.516
REMARK  3 active torsions:
REMARK  status: ('A' for Active; 'I' for Inactive)
REMARK    1  A    between atoms: C19_23  and  O2_2 
REMARK    2  A    between atoms: C6_10  and  N1_4 
REMARK    3  A    between atoms: C6_10  and  C7_11 
ROOT
HETATM    1  O1  UNK     1      17.512   8.003   9.811  1.00  0.00    -0.275 OA
HETATM    2  O3  UNK     1      18.578   6.167   8.962  1.00  0.00    -0.260 OA
HETATM    3  C7  UNK     1      15.148   6.451   9.933  1.00  0.00    -0.011 A 
HETATM    4  C10 UNK     1      15.140   7.853  10.374  1.00  0.00     0.006 A 
HETATM    5  C11 UNK     1      16.293   5.924   9.474  1.00  0.00     0.092 A 
HETATM    6  C14 UNK     1      16.324   8.585  10.298  1.00  0.00     0.093 A 
HETATM    7  C15 UNK     1      14.003   8.504  10.870  1.00  0.00     0.017 A 
HETATM    8  C16 UNK     1      17.551   6.683   9.387  1.00  0.00     0.288 A 
HETATM    9  C17 UNK     1      16.402   9.922  10.696  1.00  0.00     0.075 A 
HETATM   10  C18 UNK     1      14.065   9.844  11.274  1.00  0.00     0.038 A 
HETATM   11  C19 UNK     1      15.263  10.551  11.186  1.00  0.00     0.070 A 
ENDROOT
BRANCH   3  12
HETATM   12  C6  UNK     1      13.901   5.642  10.001  1.00  0.00     0.312 C 
BRANCH  12  13
HETATM   13  N1  UNK     1      12.895   6.096   9.042  1.00  0.00     0.097 N 
HETATM   14  C1  UNK     1      13.236   5.656   7.683  1.00  0.00     0.277 C 
HETATM   15  C3  UNK     1      12.290   6.312   6.672  1.00  0.00     0.069 C 
HETATM   16  C5  UNK     1      10.841   6.205   7.070  1.00  0.00    -0.049 A 
HETATM   17  C4  UNK     1      10.493   5.904   8.398  1.00  0.00    -0.024 A 
HETATM   18  C9  UNK     1       9.834   6.465   6.132  1.00  0.00     0.007 A 
HETATM   19  C2  UNK     1      11.562   5.592   9.420  1.00  0.00     0.311 C 
HETATM   20  C8  UNK     1       9.140   5.831   8.757  1.00  0.00     0.009 A 
HETATM   21  C12 UNK     1       8.145   6.082   7.814  1.00  0.00     0.001 A 
HETATM   22  C13 UNK     1       8.492   6.401   6.502  1.00  0.00     0.001 A 
ENDBRANCH  12  13
ENDBRANCH   3  12
BRANCH  11  23
HETATM   23  O2  UNK     1      15.317  11.852  11.580  1.00  0.00    -0.356 OA
HETATM   24  C20 UNK     1      16.386  12.644  11.064  1.00  0.00     0.210 C 
ENDBRANCH  11  23
TORSDOF 3
ENDMDL
