MODEL 1
REMARK VINA RESULT:     -10.4      0.000      0.000
REMARK  3 active torsions:
REMARK  status: ('A' for Active; 'I' for Inactive)
REMARK    1  A    between atoms: C15_22  and  O3_4 
REMARK    2  A    between atoms: C7_14  and  N1_6 
REMARK       I    between atoms: C9_16  and  N1_6 
REMARK    3  A    between atoms: C10_17  and  C9_16 
ROOT
HETATM    1  S1  UNK     1      19.237  -7.194  37.969  1.00  0.00    -0.075 SA
HETATM    2  N2  UNK     1      20.906  -7.240  33.115  1.00  0.00    -0.191 NA
HETATM    3  C1  UNK     1      20.578 -10.907  37.347  1.00  0.00     0.010 C 
HETATM    4  C2  UNK     1      20.550 -10.244  35.933  1.00  0.00     0.042 C 
HETATM    5  C3  UNK     1      19.702 -10.018  38.282  1.00  0.00     0.047 C 
HETATM    6  C4  UNK     1      20.162  -8.848  36.250  1.00  0.00    -0.021 A 
HETATM    7  C5  UNK     1      19.701  -8.741  37.532  1.00  0.00    -0.007 A 
HETATM    8  C6  UNK     1      20.146  -7.613  35.570  1.00  0.00     0.085 A 
HETATM    9  C7  UNK     1      19.660  -6.611  36.395  1.00  0.00     0.098 A 
HETATM   10  C8  UNK     1      20.564  -7.403  34.216  1.00  0.00     0.103 C 
ENDROOT
BRANCH   9  11
HETATM   11  N1  UNK     1      19.461  -5.258  36.177  1.00  0.00    -0.316 N 
HETATM   12  C9  UNK     1      20.257  -4.203  36.603  1.00  0.00     0.262 C 
HETATM   13  O2  UNK     1      21.297  -4.256  37.258  1.00  0.00    -0.267 OA
HETATM   14  H7  UNK     1      18.525  -5.039  35.844  1.00  0.00     0.170 HD
BRANCH  12  15
HETATM   15  C10 UNK     1      19.726  -2.901  36.180  1.00  0.00     0.108 A 
HETATM   16  C12 UNK     1      19.024  -2.225  37.096  1.00  0.00     0.037 A 
HETATM   17  C11 UNK     1      18.459  -0.924  36.771  1.00  0.00     0.002 A 
HETATM   18  C13 UNK     1      18.662  -0.400  35.499  1.00  0.00     0.123 A 
HETATM   19  C16 UNK     1      17.719  -0.182  37.696  1.00  0.00     0.014 A 
HETATM   20  C15 UNK     1      18.147   0.840  35.125  1.00  0.00     0.102 A 
HETATM   21  O1  UNK     1      19.401  -1.118  34.539  1.00  0.00    -0.271 OA
HETATM   22  C17 UNK     1      17.410   1.573  36.053  1.00  0.00     0.040 A 
HETATM   23  C18 UNK     1      17.197   1.063  37.336  1.00  0.00     0.004 A 
HETATM   24  C14 UNK     1      19.955  -2.365  34.820  1.00  0.00     0.304 A 
HETATM   25  O4  UNK     1      20.600  -2.982  33.979  1.00  0.00    -0.259 OA
BRANCH  20  26
HETATM   26  O3  UNK     1      18.353   1.340  33.877  1.00  0.00    -0.353 OA
HETATM   27  C19 UNK     1      18.235   2.753  33.714  1.00  0.00     0.210 C 
ENDBRANCH  20  26
ENDBRANCH  12  15
ENDBRANCH   9  11
TORSDOF 3
ENDMDL
MODEL 2
REMARK VINA RESULT:      -9.8      2.880      4.068
REMARK  3 active torsions:
REMARK  status: ('A' for Active; 'I' for Inactive)
REMARK    1  A    between atoms: C15_22  and  O3_4 
REMARK    2  A    between atoms: C7_14  and  N1_6 
REMARK       I    between atoms: C9_16  and  N1_6 
REMARK    3  A    between atoms: C10_17  and  C9_16 
ROOT
HETATM    1  S1  UNK     1      19.634  -4.717  37.274  1.00  0.00    -0.075 SA
HETATM    2  N2  UNK     1      20.801  -7.496  33.120  1.00  0.00    -0.191 NA
HETATM    3  C1  UNK     1      20.619  -8.332  38.663  1.00  0.00     0.010 C 
HETATM    4  C2  UNK     1      20.500  -8.510  37.116  1.00  0.00     0.042 C 
HETATM    5  C3  UNK     1      19.910  -6.988  39.021  1.00  0.00     0.047 C 
HETATM    6  C4  UNK     1      20.254  -7.121  36.659  1.00  0.00    -0.021 A 
HETATM    7  C5  UNK     1      19.932  -6.305  37.707  1.00  0.00    -0.007 A 
HETATM    8  C6  UNK     1      20.264  -6.434  35.428  1.00  0.00     0.085 A 
HETATM    9  C7  UNK     1      19.941  -5.099  35.615  1.00  0.00     0.098 A 
HETATM   10  C8  UNK     1      20.559  -7.015  34.153  1.00  0.00     0.103 C 
ENDROOT
BRANCH   9  11
HETATM   11  N1  UNK     1      19.824  -4.049  34.719  1.00  0.00    -0.316 N 
HETATM   12  C9  UNK     1      20.443  -2.808  34.782  1.00  0.00     0.262 C 
HETATM   13  O2  UNK     1      21.218  -2.390  35.641  1.00  0.00    -0.267 OA
HETATM   14  H7  UNK     1      19.045  -4.156  34.074  1.00  0.00     0.170 HD
BRANCH  12  15
HETATM   15  C10 UNK     1      20.079  -1.948  33.650  1.00  0.00     0.108 A 
HETATM   16  C12 UNK     1      20.685  -2.214  32.487  1.00  0.00     0.037 A 
HETATM   17  C11 UNK     1      20.388  -1.418  31.307  1.00  0.00     0.002 A 
HETATM   18  C13 UNK     1      19.466  -0.380  31.408  1.00  0.00     0.123 A 
HETATM   19  C16 UNK     1      20.997  -1.660  30.072  1.00  0.00     0.014 A 
HETATM   20  C15 UNK     1      19.138   0.420  30.315  1.00  0.00     0.102 A 
HETATM   21  O1  UNK     1      18.832  -0.105  32.636  1.00  0.00    -0.271 OA
HETATM   22  C17 UNK     1      19.750   0.172  29.089  1.00  0.00     0.040 A 
HETATM   23  C18 UNK     1      20.677  -0.866  28.967  1.00  0.00     0.004 A 
HETATM   24  C14 UNK     1      19.095  -0.849  33.782  1.00  0.00     0.304 A 
HETATM   25  O4  UNK     1      18.537  -0.604  34.846  1.00  0.00    -0.259 OA
BRANCH  20  26
HETATM   26  O3  UNK     1      18.235   1.430  30.430  1.00  0.00    -0.353 OA
HETATM   27  C19 UNK     1      17.906   2.147  29.240  1.00  0.00     0.210 C 
ENDBRANCH  20  26
ENDBRANCH  12  15
ENDBRANCH   9  11
TORSDOF 3
ENDMDL
MODEL 3
REMARK VINA RESULT:      -9.4      1.305      2.029
REMARK  3 active torsions:
REMARK  status: ('A' for Active; 'I' for Inactive)
REMARK    1  A    between atoms: C15_22  and  O3_4 
REMARK    2  A    between atoms: C7_14  and  N1_6 
REMARK       I    between atoms: C9_16  and  N1_6 
REMARK    3  A    between atoms: C10_17  and  C9_16 
ROOT
HETATM    1  S1  UNK     1      20.828  -7.511  34.497  1.00  0.00    -0.075 SA
HETATM    2  N2  UNK     1      19.876  -6.688  39.472  1.00  0.00    -0.191 NA
HETATM    3  C1  UNK     1      21.353 -11.051  36.274  1.00  0.00     0.010 C 
HETATM    4  C2  UNK     1      21.232 -10.024  37.444  1.00  0.00     0.042 C 
HETATM    5  C3  UNK     1      21.639 -10.231  34.978  1.00  0.00     0.047 C 
HETATM    6  C4  UNK     1      20.922  -8.765  36.725  1.00  0.00    -0.021 A 
HETATM    7  C5  UNK     1      21.150  -8.893  35.383  1.00  0.00    -0.007 A 
HETATM    8  C6  UNK     1      20.459  -7.480  37.070  1.00  0.00     0.085 A 
HETATM    9  C7  UNK     1      20.358  -6.681  35.940  1.00  0.00     0.098 A 
HETATM   10  C8  UNK     1      20.136  -7.038  38.393  1.00  0.00     0.103 C 
ENDROOT
BRANCH   9  11
HETATM   11  N1  UNK     1      19.956  -5.365  35.780  1.00  0.00    -0.316 N 
HETATM   12  C9  UNK     1      20.512  -4.232  36.358  1.00  0.00     0.262 C 
HETATM   13  O2  UNK     1      21.470  -4.166  37.126  1.00  0.00    -0.267 OA
HETATM   14  H7  UNK     1      19.038  -5.276  35.352  1.00  0.00     0.170 HD
BRANCH  12  15
HETATM   15  C10 UNK     1      19.817  -3.004  35.952  1.00  0.00     0.108 A 
HETATM   16  C12 UNK     1      19.068  -2.413  36.890  1.00  0.00     0.037 A 
HETATM   17  C11 UNK     1      18.342  -1.190  36.584  1.00  0.00     0.002 A 
HETATM   18  C13 UNK     1      18.440  -0.650  35.306  1.00  0.00     0.123 A 
HETATM   19  C16 UNK     1      17.548  -0.539  37.532  1.00  0.00     0.014 A 
HETATM   20  C15 UNK     1      17.769   0.518  34.949  1.00  0.00     0.102 A 
HETATM   21  O1  UNK     1      19.230  -1.278  34.323  1.00  0.00    -0.271 OA
HETATM   22  C17 UNK     1      16.980   1.161  35.900  1.00  0.00     0.040 A 
HETATM   23  C18 UNK     1      16.870   0.634  37.189  1.00  0.00     0.004 A 
HETATM   24  C14 UNK     1      19.936  -2.449  34.585  1.00  0.00     0.304 A 
HETATM   25  O4  UNK     1      20.624  -2.987  33.725  1.00  0.00    -0.259 OA
BRANCH  20  26
HETATM   26  O3  UNK     1      17.875   1.034  33.696  1.00  0.00    -0.353 OA
HETATM   27  C19 UNK     1      18.171   2.426  33.588  1.00  0.00     0.210 C 
ENDBRANCH  20  26
ENDBRANCH  12  15
ENDBRANCH   9  11
TORSDOF 3
ENDMDL
MODEL 4
REMARK VINA RESULT:      -9.4     18.725     20.729
REMARK  3 active torsions:
REMARK  status: ('A' for Active; 'I' for Inactive)
REMARK    1  A    between atoms: C15_22  and  O3_4 
REMARK    2  A    between atoms: C7_14  and  N1_6 
REMARK       I    between atoms: C9_16  and  N1_6 
REMARK    3  A    between atoms: C10_17  and  C9_16 
ROOT
HETATM    1  S1  UNK     1      20.376  -4.479  14.686  1.00  0.00    -0.075 SA
HETATM    2  N2  UNK     1      18.885  -0.827  11.403  1.00  0.00    -0.191 NA
HETATM    3  C1  UNK     1      20.613  -6.152  11.066  1.00  0.00     0.010 C 
HETATM    4  C2  UNK     1      19.853  -4.807  10.842  1.00  0.00     0.042 C 
HETATM    5  C3  UNK     1      20.567  -6.449  12.596  1.00  0.00     0.047 C 
HETATM    6  C4  UNK     1      19.905  -4.189  12.188  1.00  0.00    -0.021 A 
HETATM    7  C5  UNK     1      20.295  -5.097  13.134  1.00  0.00    -0.007 A 
HETATM    8  C6  UNK     1      19.656  -2.916  12.738  1.00  0.00     0.085 A 
HETATM    9  C7  UNK     1      19.875  -2.927  14.108  1.00  0.00     0.098 A 
HETATM   10  C8  UNK     1      19.230  -1.761  12.006  1.00  0.00     0.103 C 
ENDROOT
BRANCH   9  11
HETATM   11  N1  UNK     1      19.761  -1.931  15.064  1.00  0.00    -0.316 N 
HETATM   12  C9  UNK     1      18.708  -1.714  15.942  1.00  0.00     0.262 C 
HETATM   13  O2  UNK     1      17.666  -2.359  16.049  1.00  0.00    -0.267 OA
HETATM   14  H7  UNK     1      20.441  -1.183  14.946  1.00  0.00     0.170 HD
BRANCH  12  15
HETATM   15  C10 UNK     1      18.942  -0.557  16.815  1.00  0.00     0.108 A 
HETATM   16  C12 UNK     1      18.952  -0.803  18.130  1.00  0.00     0.037 A 
HETATM   17  C11 UNK     1      19.178   0.280  19.075  1.00  0.00     0.002 A 
HETATM   18  C13 UNK     1      19.383   1.567  18.589  1.00  0.00     0.123 A 
HETATM   19  C16 UNK     1      19.196   0.070  20.457  1.00  0.00     0.014 A 
HETATM   20  C15 UNK     1      19.605   2.647  19.441  1.00  0.00     0.102 A 
HETATM   21  O1  UNK     1      19.371   1.818  17.203  1.00  0.00    -0.271 OA
HETATM   22  C17 UNK     1      19.622   2.429  20.817  1.00  0.00     0.040 A 
HETATM   23  C18 UNK     1      19.419   1.143  21.324  1.00  0.00     0.004 A 
HETATM   24  C14 UNK     1      19.157   0.804  16.274  1.00  0.00     0.304 A 
HETATM   25  O4  UNK     1      19.151   1.031  15.069  1.00  0.00    -0.259 OA
BRANCH  20  26
HETATM   26  O3  UNK     1      19.804   3.900  18.951  1.00  0.00    -0.353 OA
HETATM   27  C19 UNK     1      21.134   4.244  18.565  1.00  0.00     0.210 C 
ENDBRANCH  20  26
ENDBRANCH  12  15
ENDBRANCH   9  11
TORSDOF 3
ENDMDL
MODEL 5
REMARK VINA RESULT:      -9.3      1.786      2.090
REMARK  3 active torsions:
REMARK  status: ('A' for Active; 'I' for Inactive)
REMARK    1  A    between atoms: C15_22  and  O3_4 
REMARK    2  A    between atoms: C7_14  and  N1_6 
REMARK       I    between atoms: C9_16  and  N1_6 
REMARK    3  A    between atoms: C10_17  and  C9_16 
ROOT
HETATM    1  S1  UNK     1      18.467  -7.135  37.558  1.00  0.00    -0.075 SA
HETATM    2  N2  UNK     1      23.183  -5.505  38.761  1.00  0.00    -0.191 NA
HETATM    3  C1  UNK     1      20.202 -10.209  39.429  1.00  0.00     0.010 C 
HETATM    4  C2  UNK     1      21.357  -9.192  39.163  1.00  0.00     0.042 C 
HETATM    5  C3  UNK     1      19.013  -9.797  38.507  1.00  0.00     0.047 C 
HETATM    6  C4  UNK     1      20.630  -8.038  38.582  1.00  0.00    -0.021 A 
HETATM    7  C5  UNK     1      19.355  -8.384  38.228  1.00  0.00    -0.007 A 
HETATM    8  C6  UNK     1      20.917  -6.687  38.300  1.00  0.00     0.085 A 
HETATM    9  C7  UNK     1      19.815  -6.065  37.733  1.00  0.00     0.098 A 
HETATM   10  C8  UNK     1      22.165  -6.031  38.552  1.00  0.00     0.103 C 
ENDROOT
BRANCH   9  11
HETATM   11  N1  UNK     1      19.620  -4.766  37.294  1.00  0.00    -0.316 N 
HETATM   12  C9  UNK     1      19.878  -4.250  36.032  1.00  0.00     0.262 C 
HETATM   13  O2  UNK     1      20.330  -4.837  35.050  1.00  0.00    -0.267 OA
HETATM   14  H7  UNK     1      19.462  -4.106  38.052  1.00  0.00     0.170 HD
BRANCH  12  15
HETATM   15  C10 UNK     1      19.543  -2.823  35.937  1.00  0.00     0.108 A 
HETATM   16  C12 UNK     1      18.833  -2.315  36.950  1.00  0.00     0.037 A 
HETATM   17  C11 UNK     1      18.454  -0.910  36.947  1.00  0.00     0.002 A 
HETATM   18  C13 UNK     1      18.843  -0.110  35.878  1.00  0.00     0.123 A 
HETATM   19  C16 UNK     1      17.712  -0.337  37.984  1.00  0.00     0.014 A 
HETATM   20  C15 UNK     1      18.512   1.242  35.815  1.00  0.00     0.102 A 
HETATM   21  O1  UNK     1      19.590  -0.652  34.814  1.00  0.00    -0.271 OA
HETATM   22  C17 UNK     1      17.772   1.806  36.852  1.00  0.00     0.040 A 
HETATM   23  C18 UNK     1      17.374   1.018  37.935  1.00  0.00     0.004 A 
HETATM   24  C14 UNK     1      19.968  -1.992  34.788  1.00  0.00     0.304 A 
HETATM   25  O4  UNK     1      20.621  -2.454  33.859  1.00  0.00    -0.259 OA
BRANCH  20  26
HETATM   26  O3  UNK     1      18.899   2.012  34.763  1.00  0.00    -0.353 OA
HETATM   27  C19 UNK     1      18.127   1.915  33.566  1.00  0.00     0.210 C 
ENDBRANCH  20  26
ENDBRANCH  12  15
ENDBRANCH   9  11
TORSDOF 3
ENDMDL
MODEL 6
REMARK VINA RESULT:      -9.2      6.990     12.604
REMARK  3 active torsions:
REMARK  status: ('A' for Active; 'I' for Inactive)
REMARK    1  A    between atoms: C15_22  and  O3_4 
REMARK    2  A    between atoms: C7_14  and  N1_6 
REMARK       I    between atoms: C9_16  and  N1_6 
REMARK    3  A    between atoms: C10_17  and  C9_16 
ROOT
HETATM    1  S1  UNK     1      17.986   8.369  34.214  1.00  0.00    -0.075 SA
HETATM    2  N2  UNK     1      13.660   6.867  31.898  1.00  0.00    -0.191 NA
HETATM    3  C1  UNK     1      15.702  11.641  34.017  1.00  0.00     0.010 C 
HETATM    4  C2  UNK     1      14.983  10.589  33.114  1.00  0.00     0.042 C 
HETATM    5  C3  UNK     1      17.156  11.125  34.244  1.00  0.00     0.047 C 
HETATM    6  C4  UNK     1      15.810   9.377  33.326  1.00  0.00    -0.021 A 
HETATM    7  C5  UNK     1      16.991   9.685  33.942  1.00  0.00    -0.007 A 
HETATM    8  C6  UNK     1      15.690   7.999  33.055  1.00  0.00     0.085 A 
HETATM    9  C7  UNK     1      16.817   7.319  33.491  1.00  0.00     0.098 A 
HETATM   10  C8  UNK     1      14.573   7.370  32.417  1.00  0.00     0.103 C 
ENDROOT
BRANCH   9  11
HETATM   11  N1  UNK     1      17.154   5.976  33.444  1.00  0.00    -0.316 N 
HETATM   12  C9  UNK     1      18.190   5.387  32.731  1.00  0.00     0.262 C 
HETATM   13  O2  UNK     1      19.014   5.934  32.001  1.00  0.00    -0.267 OA
HETATM   14  H7  UNK     1      16.430   5.367  33.816  1.00  0.00     0.170 HD
BRANCH  12  15
HETATM   15  C10 UNK     1      18.240   3.932  32.927  1.00  0.00     0.108 A 
HETATM   16  C12 UNK     1      18.342   3.510  34.192  1.00  0.00     0.037 A 
HETATM   17  C11 UNK     1      18.397   2.087  34.487  1.00  0.00     0.002 A 
HETATM   18  C13 UNK     1      18.341   1.178  33.435  1.00  0.00     0.123 A 
HETATM   19  C16 UNK     1      18.505   1.600  35.792  1.00  0.00     0.014 A 
HETATM   20  C15 UNK     1      18.389  -0.198  33.650  1.00  0.00     0.102 A 
HETATM   21  O1  UNK     1      18.233   1.630  32.105  1.00  0.00    -0.271 OA
HETATM   22  C17 UNK     1      18.496  -0.674  34.955  1.00  0.00     0.040 A 
HETATM   23  C18 UNK     1      18.553   0.223  36.024  1.00  0.00     0.004 A 
HETATM   24  C14 UNK     1      18.178   2.985  31.791  1.00  0.00     0.304 A 
HETATM   25  O4  UNK     1      18.082   3.369  30.630  1.00  0.00    -0.259 OA
BRANCH  20  26
HETATM   26  O3  UNK     1      18.332  -1.074  32.611  1.00  0.00    -0.353 OA
HETATM   27  C19 UNK     1      19.571  -1.601  32.136  1.00  0.00     0.210 C 
ENDBRANCH  20  26
ENDBRANCH  12  15
ENDBRANCH   9  11
TORSDOF 3
ENDMDL
MODEL 7
REMARK VINA RESULT:      -9.2      2.444      8.369
REMARK  3 active torsions:
REMARK  status: ('A' for Active; 'I' for Inactive)
REMARK    1  A    between atoms: C15_22  and  O3_4 
REMARK    2  A    between atoms: C7_14  and  N1_6 
REMARK       I    between atoms: C9_16  and  N1_6 
REMARK    3  A    between atoms: C10_17  and  C9_16 
ROOT
HETATM    1  S1  UNK     1      18.044  -1.607  37.888  1.00  0.00    -0.075 SA
HETATM    2  N2  UNK     1      20.078  -2.008  33.193  1.00  0.00    -0.191 NA
HETATM    3  C1  UNK     1      17.459   1.955  36.174  1.00  0.00     0.010 C 
HETATM    4  C2  UNK     1      18.434   1.199  35.217  1.00  0.00     0.042 C 
HETATM    5  C3  UNK     1      17.480   1.194  37.536  1.00  0.00     0.047 C 
HETATM    6  C4  UNK     1      18.512  -0.142  35.844  1.00  0.00    -0.021 A 
HETATM    7  C5  UNK     1      17.989  -0.129  37.107  1.00  0.00    -0.007 A 
HETATM    8  C6  UNK     1      18.986  -1.417  35.473  1.00  0.00     0.085 A 
HETATM    9  C7  UNK     1      18.792  -2.325  36.503  1.00  0.00     0.098 A 
HETATM   10  C8  UNK     1      19.589  -1.747  34.217  1.00  0.00     0.103 C 
ENDROOT
BRANCH   9  11
HETATM   11  N1  UNK     1      19.092  -3.673  36.606  1.00  0.00    -0.316 N 
HETATM   12  C9  UNK     1      20.312  -4.249  36.932  1.00  0.00     0.262 C 
HETATM   13  O2  UNK     1      21.371  -3.681  37.196  1.00  0.00    -0.267 OA
HETATM   14  H7  UNK     1      18.379  -4.275  36.198  1.00  0.00     0.170 HD
BRANCH  12  15
HETATM   15  C10 UNK     1      20.249  -5.715  36.944  1.00  0.00     0.108 A 
HETATM   16  C12 UNK     1      20.118  -6.291  38.145  1.00  0.00     0.037 A 
HETATM   17  C11 UNK     1      20.044  -7.739  38.258  1.00  0.00     0.002 A 
HETATM   18  C13 UNK     1      20.112  -8.510  37.102  1.00  0.00     0.123 A 
HETATM   19  C16 UNK     1      19.908  -8.383  39.491  1.00  0.00     0.014 A 
HETATM   20  C15 UNK     1      20.048  -9.902  37.143  1.00  0.00     0.102 A 
HETATM   21  O1  UNK     1      20.251  -7.897  35.841  1.00  0.00    -0.271 OA
HETATM   22  C17 UNK     1      19.912 -10.536  38.376  1.00  0.00     0.040 A 
HETATM   23  C18 UNK     1      19.841  -9.778  39.548  1.00  0.00     0.004 A 
HETATM   24  C14 UNK     1      20.323  -6.514  35.700  1.00  0.00     0.304 A 
HETATM   25  O4  UNK     1      20.441  -5.989  34.598  1.00  0.00    -0.259 OA
BRANCH  20  26
HETATM   26  O3  UNK     1      20.115 -10.642  36.004  1.00  0.00    -0.353 OA
HETATM   27  C19 UNK     1      21.414 -11.025  35.552  1.00  0.00     0.210 C 
ENDBRANCH  20  26
ENDBRANCH  12  15
ENDBRANCH   9  11
TORSDOF 3
ENDMDL
MODEL 8
REMARK VINA RESULT:      -8.8      6.957     12.658
REMARK  3 active torsions:
REMARK  status: ('A' for Active; 'I' for Inactive)
REMARK    1  A    between atoms: C15_22  and  O3_4 
REMARK    2  A    between atoms: C7_14  and  N1_6 
REMARK       I    between atoms: C9_16  and  N1_6 
REMARK    3  A    between atoms: C10_17  and  C9_16 
ROOT
HETATM    1  S1  UNK     1      15.081   6.995  32.305  1.00  0.00    -0.075 SA
HETATM    2  N2  UNK     1      19.418   7.627  34.975  1.00  0.00    -0.191 NA
HETATM    3  C1  UNK     1      14.984  10.774  33.600  1.00  0.00     0.010 C 
HETATM    4  C2  UNK     1      16.170  10.112  34.370  1.00  0.00     0.042 C 
HETATM    5  C3  UNK     1      14.120   9.615  33.014  1.00  0.00     0.047 C 
HETATM    6  C4  UNK     1      16.224   8.761  33.760  1.00  0.00    -0.021 A 
HETATM    7  C5  UNK     1      15.100   8.505  33.025  1.00  0.00    -0.007 A 
HETATM    8  C6  UNK     1      17.131   7.683  33.746  1.00  0.00     0.085 A 
HETATM    9  C7  UNK     1      16.632   6.638  32.983  1.00  0.00     0.098 A 
HETATM   10  C8  UNK     1      18.393   7.647  34.423  1.00  0.00     0.103 C 
ENDROOT
BRANCH   9  11
HETATM   11  N1  UNK     1      17.154   5.391  32.681  1.00  0.00    -0.316 N 
HETATM   12  C9  UNK     1      17.999   5.057  31.631  1.00  0.00     0.262 C 
HETATM   13  O2  UNK     1      18.456   5.796  30.761  1.00  0.00    -0.267 OA
HETATM   14  H7  UNK     1      16.690   4.632  33.175  1.00  0.00     0.170 HD
BRANCH  12  15
HETATM   15  C10 UNK     1      18.344   3.630  31.631  1.00  0.00     0.108 A 
HETATM   16  C12 UNK     1      18.724   3.115  30.456  1.00  0.00     0.037 A 
HETATM   17  C11 UNK     1      19.088   1.710  30.355  1.00  0.00     0.002 A 
HETATM   18  C13 UNK     1      19.034   0.916  31.496  1.00  0.00     0.123 A 
HETATM   19  C16 UNK     1      19.490   1.130  29.149  1.00  0.00     0.014 A 
HETATM   20  C15 UNK     1      19.369  -0.436  31.467  1.00  0.00     0.102 A 
HETATM   21  O1  UNK     1      18.632   1.465  32.730  1.00  0.00    -0.271 OA
HETATM   22  C17 UNK     1      19.769  -1.006  30.260  1.00  0.00     0.040 A 
HETATM   23  C18 UNK     1      19.830  -0.225  29.104  1.00  0.00     0.004 A 
HETATM   24  C14 UNK     1      18.278   2.805  32.858  1.00  0.00     0.304 A 
HETATM   25  O4  UNK     1      17.933   3.275  33.937  1.00  0.00    -0.259 OA
BRANCH  20  26
HETATM   26  O3  UNK     1      19.311  -1.199  32.591  1.00  0.00    -0.353 OA
HETATM   27  C19 UNK     1      20.299  -2.219  32.736  1.00  0.00     0.210 C 
ENDBRANCH  20  26
ENDBRANCH  12  15
ENDBRANCH   9  11
TORSDOF 3
ENDMDL
MODEL 9
REMARK VINA RESULT:      -8.8      2.297      3.587
REMARK  3 active torsions:
REMARK  status: ('A' for Active; 'I' for Inactive)
REMARK    1  A    between atoms: C15_22  and  O3_4 
REMARK    2  A    between atoms: C7_14  and  N1_6 
REMARK       I    between atoms: C9_16  and  N1_6 
REMARK    3  A    between atoms: C10_17  and  C9_16 
ROOT
HETATM    1  S1  UNK     1      18.526  -7.029  36.456  1.00  0.00    -0.075 SA
HETATM    2  N2  UNK     1      22.864  -4.876  38.155  1.00  0.00    -0.191 NA
HETATM    3  C1  UNK     1      19.825  -9.429  39.374  1.00  0.00     0.010 C 
HETATM    4  C2  UNK     1      21.007  -8.445  39.102  1.00  0.00     0.042 C 
HETATM    5  C3  UNK     1      18.863  -9.331  38.150  1.00  0.00     0.047 C 
HETATM    6  C4  UNK     1      20.419  -7.518  38.105  1.00  0.00    -0.021 A 
HETATM    7  C5  UNK     1      19.253  -8.015  37.595  1.00  0.00    -0.007 A 
HETATM    8  C6  UNK     1      20.756  -6.266  37.552  1.00  0.00     0.085 A 
HETATM    9  C7  UNK     1      19.801  -5.871  36.627  1.00  0.00     0.098 A 
HETATM   10  C8  UNK     1      21.918  -5.496  37.881  1.00  0.00     0.103 C 
ENDROOT
BRANCH   9  11
HETATM   11  N1  UNK     1      19.701  -4.737  35.838  1.00  0.00    -0.316 N 
HETATM   12  C9  UNK     1      19.792  -3.412  36.243  1.00  0.00     0.262 C 
HETATM   13  O2  UNK     1      19.979  -2.977  37.378  1.00  0.00    -0.267 OA
HETATM   14  H7  UNK     1      19.322  -4.925  34.913  1.00  0.00     0.170 HD
BRANCH  12  15
HETATM   15  C10 UNK     1      19.636  -2.478  35.121  1.00  0.00     0.108 A 
HETATM   16  C12 UNK     1      20.211  -2.839  33.968  1.00  0.00     0.037 A 
HETATM   17  C11 UNK     1      20.110  -1.979  32.799  1.00  0.00     0.002 A 
HETATM   18  C13 UNK     1      19.407  -0.783  32.901  1.00  0.00     0.123 A 
HETATM   19  C16 UNK     1      20.696  -2.315  31.575  1.00  0.00     0.014 A 
HETATM   20  C15 UNK     1      19.274   0.084  31.818  1.00  0.00     0.102 A 
HETATM   21  O1  UNK     1      18.804  -0.409  34.118  1.00  0.00    -0.271 OA
HETATM   22  C17 UNK     1      19.861  -0.258  30.602  1.00  0.00     0.040 A 
HETATM   23  C18 UNK     1      20.569  -1.456  30.480  1.00  0.00     0.004 A 
HETATM   24  C14 UNK     1      18.883  -1.210  35.254  1.00  0.00     0.304 A 
HETATM   25  O4  UNK     1      18.353  -0.879  36.308  1.00  0.00    -0.259 OA
BRANCH  20  26
HETATM   26  O3  UNK     1      18.584   1.250  31.932  1.00  0.00    -0.353 OA
HETATM   27  C19 UNK     1      18.588   2.123  30.803  1.00  0.00     0.210 C 
ENDBRANCH  20  26
ENDBRANCH  12  15
ENDBRANCH   9  11
TORSDOF 3
ENDMDL
MODEL 10
REMARK VINA RESULT:      -8.8      7.040     12.919
REMARK  3 active torsions:
REMARK  status: ('A' for Active; 'I' for Inactive)
REMARK    1  A    between atoms: C15_22  and  O3_4 
REMARK    2  A    between atoms: C7_14  and  N1_6 
REMARK       I    between atoms: C9_16  and  N1_6 
REMARK    3  A    between atoms: C10_17  and  C9_16 
ROOT
HETATM    1  S1  UNK     1      18.391   8.159  33.629  1.00  0.00    -0.075 SA
HETATM    2  N2  UNK     1      13.825   6.693  31.799  1.00  0.00    -0.191 NA
HETATM    3  C1  UNK     1      15.957  11.267  34.246  1.00  0.00     0.010 C 
HETATM    4  C2  UNK     1      15.153  10.300  33.321  1.00  0.00     0.042 C 
HETATM    5  C3  UNK     1      17.451  10.824  34.176  1.00  0.00     0.047 C 
HETATM    6  C4  UNK     1      16.057   9.128  33.231  1.00  0.00    -0.021 A 
HETATM    7  C5  UNK     1      17.305   9.430  33.700  1.00  0.00    -0.007 A 
HETATM    8  C6  UNK     1      15.959   7.794  32.788  1.00  0.00     0.085 A 
HETATM    9  C7  UNK     1      17.170   7.139  32.948  1.00  0.00     0.098 A 
HETATM   10  C8  UNK     1      14.785   7.182  32.242  1.00  0.00     0.103 C 
ENDROOT
BRANCH   9  11
HETATM   11  N1  UNK     1      17.557   5.840  32.659  1.00  0.00    -0.316 N 
HETATM   12  C9  UNK     1      18.037   5.346  31.454  1.00  0.00     0.262 C 
HETATM   13  O2  UNK     1      18.217   5.958  30.402  1.00  0.00    -0.267 OA
HETATM   14  H7  UNK     1      17.255   5.167  33.360  1.00  0.00     0.170 HD
BRANCH  12  15
HETATM   15  C10 UNK     1      18.346   3.913  31.526  1.00  0.00     0.108 A 
HETATM   16  C12 UNK     1      18.739   3.336  30.384  1.00  0.00     0.037 A 
HETATM   17  C11 UNK     1      19.068   1.919  30.356  1.00  0.00     0.002 A 
HETATM   18  C13 UNK     1      18.968   1.180  31.530  1.00  0.00     0.123 A 
HETATM   19  C16 UNK     1      19.482   1.274  29.187  1.00  0.00     0.014 A 
HETATM   20  C15 UNK     1      19.269  -0.180  31.569  1.00  0.00     0.102 A 
HETATM   21  O1  UNK     1      18.553   1.794  32.728  1.00  0.00    -0.271 OA
HETATM   22  C17 UNK     1      19.681  -0.815  30.400  1.00  0.00     0.040 A 
HETATM   23  C18 UNK     1      19.788  -0.089  29.211  1.00  0.00     0.004 A 
HETATM   24  C14 UNK     1      18.232   3.147  32.788  1.00  0.00     0.304 A 
HETATM   25  O4  UNK     1      17.874   3.674  33.835  1.00  0.00    -0.259 OA
BRANCH  20  26
HETATM   26  O3  UNK     1      19.167  -0.890  32.725  1.00  0.00    -0.353 OA
HETATM   27  C19 UNK     1      19.916  -2.102  32.813  1.00  0.00     0.210 C 
ENDBRANCH  20  26
ENDBRANCH  12  15
ENDBRANCH   9  11
TORSDOF 3
ENDMDL
