MODEL 1
REMARK VINA RESULT:      -8.8      0.000      0.000
REMARK  2 active torsions:
REMARK  status: ('A' for Active; 'I' for Inactive)
REMARK    1  A    between atoms: C5_8  and  O2_2 
REMARK    2  A    between atoms: C2_5  and  C4_7 
ROOT
HETATM    1  O1  UNK     1      18.944  -0.183  32.813  1.00  0.00    -0.306 OA
HETATM    2  O3  UNK     1      18.794   2.902  30.155  1.00  0.00    -0.284 OA
HETATM    3  C1  UNK     1      19.401   0.663  30.585  1.00  0.00     0.051 A 
HETATM    4  C2  UNK     1      18.398   1.043  33.158  1.00  0.00     0.123 A 
HETATM    5  C3  UNK     1      19.426  -0.349  31.540  1.00  0.00     0.090 A 
HETATM    6  C5  UNK     1      18.322   2.104  32.334  1.00  0.00     0.152 A 
HETATM    7  C6  UNK     1      18.837   1.972  30.950  1.00  0.00     0.220 A 
HETATM    8  C7  UNK     1      19.908   0.437  29.303  1.00  0.00     0.018 A 
HETATM    9  C8  UNK     1      19.959  -1.598  31.220  1.00  0.00     0.038 A 
HETATM   10  C11 UNK     1      20.439  -0.813  28.984  1.00  0.00     0.001 A 
HETATM   11  C12 UNK     1      20.465  -1.829  29.941  1.00  0.00     0.003 A 
ENDROOT
BRANCH   4  12
HETATM   12  C4  UNK     1      17.918   1.087  34.550  1.00  0.00     0.001 A 
HETATM   13  C10 UNK     1      18.685   1.710  35.535  1.00  0.00     0.014 A 
HETATM   14  C14 UNK     1      18.229   1.753  36.852  1.00  0.00     0.001 A 
HETATM   15  C15 UNK     1      17.007   1.170  37.187  1.00  0.00     0.000 A 
HETATM   16  C13 UNK     1      16.240   0.546  36.204  1.00  0.00     0.001 A 
HETATM   17  C9  UNK     1      16.695   0.504  34.885  1.00  0.00     0.014 A 
ENDBRANCH   4  12
BRANCH   6  18
HETATM   18  O2  UNK     1      17.801   3.320  32.720  1.00  0.00    -0.355 OA
HETATM   19  H10 UNK     1      18.397   4.036  32.446  1.00  0.00     0.218 HD
ENDBRANCH   6  18
TORSDOF 2
ENDMDL
MODEL 2
REMARK VINA RESULT:      -8.6      1.471      3.145
REMARK  2 active torsions:
REMARK  status: ('A' for Active; 'I' for Inactive)
REMARK    1  A    between atoms: C5_8  and  O2_2 
REMARK    2  A    between atoms: C2_5  and  C4_7 
ROOT
HETATM    1  O1  UNK     1      18.572   0.289  32.566  1.00  0.00    -0.306 OA
HETATM    2  O3  UNK     1      20.846  -3.090  32.691  1.00  0.00    -0.284 OA
HETATM    3  C1  UNK     1      20.072  -1.249  31.437  1.00  0.00     0.051 A 
HETATM    4  C2  UNK     1      18.670  -0.475  33.718  1.00  0.00     0.123 A 
HETATM    5  C3  UNK     1      19.276  -0.107  31.458  1.00  0.00     0.090 A 
HETATM    6  C5  UNK     1      19.396  -1.603  33.827  1.00  0.00     0.152 A 
HETATM    7  C6  UNK     1      20.167  -2.073  32.652  1.00  0.00     0.220 A 
HETATM    8  C7  UNK     1      20.766  -1.604  30.277  1.00  0.00     0.018 A 
HETATM    9  C8  UNK     1      19.167   0.689  30.317  1.00  0.00     0.038 A 
HETATM   10  C11 UNK     1      20.657  -0.806  29.138  1.00  0.00     0.001 A 
HETATM   11  C12 UNK     1      19.858   0.338  29.157  1.00  0.00     0.003 A 
ENDROOT
BRANCH   4  12
HETATM   12  C4  UNK     1      17.868   0.060  34.832  1.00  0.00     0.001 A 
HETATM   13  C10 UNK     1      16.500  -0.206  34.900  1.00  0.00     0.014 A 
HETATM   14  C14 UNK     1      15.742   0.300  35.955  1.00  0.00     0.001 A 
HETATM   15  C15 UNK     1      16.350   1.075  36.943  1.00  0.00     0.000 A 
HETATM   16  C13 UNK     1      17.717   1.341  36.876  1.00  0.00     0.001 A 
HETATM   17  C9  UNK     1      18.477   0.835  35.821  1.00  0.00     0.014 A 
ENDBRANCH   4  12
BRANCH   6  18
HETATM   18  O2  UNK     1      19.445  -2.357  34.980  1.00  0.00    -0.355 OA
HETATM   19  H10 UNK     1      18.887  -1.952  35.663  1.00  0.00     0.218 HD
ENDBRANCH   6  18
TORSDOF 2
ENDMDL
MODEL 3
REMARK VINA RESULT:      -8.4     23.715     25.908
REMARK  2 active torsions:
REMARK  status: ('A' for Active; 'I' for Inactive)
REMARK    1  A    between atoms: C5_8  and  O2_2 
REMARK    2  A    between atoms: C2_5  and  C4_7 
ROOT
HETATM    1  O1  UNK     1      13.263   7.579   8.482  1.00  0.00    -0.306 OA
HETATM    2  O3  UNK     1      15.258   4.256   9.738  1.00  0.00    -0.284 OA
HETATM    3  C1  UNK     1      15.229   6.604   9.518  1.00  0.00     0.051 A 
HETATM    4  C2  UNK     1      12.715   6.313   8.350  1.00  0.00     0.123 A 
HETATM    5  C3  UNK     1      14.498   7.699   9.066  1.00  0.00     0.090 A 
HETATM    6  C5  UNK     1      13.319   5.175   8.736  1.00  0.00     0.152 A 
HETATM    7  C6  UNK     1      14.660   5.256   9.366  1.00  0.00     0.220 A 
HETATM    8  C7  UNK     1      16.484   6.786  10.104  1.00  0.00     0.018 A 
HETATM    9  C8  UNK     1      15.018   8.987   9.196  1.00  0.00     0.038 A 
HETATM   10  C11 UNK     1      17.001   8.076  10.234  1.00  0.00     0.001 A 
HETATM   11  C12 UNK     1      16.271   9.174   9.781  1.00  0.00     0.003 A 
ENDROOT
BRANCH   4  12
HETATM   12  C4  UNK     1      11.388   6.326   7.710  1.00  0.00     0.001 A 
HETATM   13  C10 UNK     1      10.236   6.419   8.492  1.00  0.00     0.014 A 
HETATM   14  C14 UNK     1       8.980   6.432   7.885  1.00  0.00     0.001 A 
HETATM   15  C15 UNK     1       8.875   6.349   6.497  1.00  0.00     0.000 A 
HETATM   16  C13 UNK     1      10.025   6.256   5.715  1.00  0.00     0.001 A 
HETATM   17  C9  UNK     1      11.282   6.243   6.321  1.00  0.00     0.014 A 
ENDBRANCH   4  12
BRANCH   6  18
HETATM   18  O2  UNK     1      12.759   3.929   8.559  1.00  0.00    -0.355 OA
HETATM   19  H10 UNK     1      12.819   3.421   9.384  1.00  0.00     0.218 HD
ENDBRANCH   6  18
TORSDOF 2
ENDMDL
MODEL 4
REMARK VINA RESULT:      -7.9      2.286      6.563
REMARK  2 active torsions:
REMARK  status: ('A' for Active; 'I' for Inactive)
REMARK    1  A    between atoms: C5_8  and  O2_2 
REMARK    2  A    between atoms: C2_5  and  C4_7 
ROOT
HETATM    1  O1  UNK     1      18.675  -0.532  33.499  1.00  0.00    -0.306 OA
HETATM    2  O3  UNK     1      20.586  -3.355  35.731  1.00  0.00    -0.284 OA
HETATM    3  C1  UNK     1      18.991  -1.620  35.646  1.00  0.00     0.051 A 
HETATM    4  C2  UNK     1      19.621  -1.377  32.941  1.00  0.00     0.123 A 
HETATM    5  C3  UNK     1      18.376  -0.674  34.830  1.00  0.00     0.090 A 
HETATM    6  C5  UNK     1      20.293  -2.325  33.620  1.00  0.00     0.152 A 
HETATM    7  C6  UNK     1      20.008  -2.509  35.063  1.00  0.00     0.220 A 
HETATM    8  C7  UNK     1      18.646  -1.718  36.996  1.00  0.00     0.018 A 
HETATM    9  C8  UNK     1      17.411   0.183  35.360  1.00  0.00     0.038 A 
HETATM   10  C11 UNK     1      17.680  -0.861  37.524  1.00  0.00     0.001 A 
HETATM   11  C12 UNK     1      17.064   0.089  36.708  1.00  0.00     0.003 A 
ENDROOT
BRANCH   4  12
HETATM   12  C4  UNK     1      19.847  -1.121  31.508  1.00  0.00     0.001 A 
HETATM   13  C10 UNK     1      20.161  -2.175  30.651  1.00  0.00     0.014 A 
HETATM   14  C14 UNK     1      20.374  -1.932  29.294  1.00  0.00     0.001 A 
HETATM   15  C15 UNK     1      20.273  -0.634  28.794  1.00  0.00     0.000 A 
HETATM   16  C13 UNK     1      19.959   0.421  29.650  1.00  0.00     0.001 A 
HETATM   17  C9  UNK     1      19.746   0.178  31.008  1.00  0.00     0.014 A 
ENDBRANCH   4  12
BRANCH   6  18
HETATM   18  O2  UNK     1      21.253  -3.127  33.040  1.00  0.00    -0.355 OA
HETATM   19  H10 UNK     1      21.916  -2.578  32.595  1.00  0.00     0.218 HD
ENDBRANCH   6  18
TORSDOF 2
ENDMDL
MODEL 5
REMARK VINA RESULT:      -7.8     13.244     16.876
REMARK  2 active torsions:
REMARK  status: ('A' for Active; 'I' for Inactive)
REMARK    1  A    between atoms: C5_8  and  O2_2 
REMARK    2  A    between atoms: C2_5  and  C4_7 
ROOT
HETATM    1  O1  UNK     1      18.858  -1.010  17.738  1.00  0.00    -0.306 OA
HETATM    2  O3  UNK     1      19.378   2.343  15.482  1.00  0.00    -0.284 OA
HETATM    3  C1  UNK     1      19.015   1.409  17.617  1.00  0.00     0.051 A 
HETATM    4  C2  UNK     1      19.070  -1.084  16.371  1.00  0.00     0.123 A 
HETATM    5  C3  UNK     1      18.842   0.226  18.331  1.00  0.00     0.090 A 
HETATM    6  C5  UNK     1      19.243  -0.020  15.566  1.00  0.00     0.152 A 
HETATM    7  C6  UNK     1      19.225   1.338  16.163  1.00  0.00     0.220 A 
HETATM    8  C7  UNK     1      18.988   2.641  18.275  1.00  0.00     0.018 A 
HETATM    9  C8  UNK     1      18.638   0.267  19.711  1.00  0.00     0.038 A 
HETATM   10  C11 UNK     1      18.785   2.679  19.655  1.00  0.00     0.001 A 
HETATM   11  C12 UNK     1      18.610   1.495  20.372  1.00  0.00     0.003 A 
ENDROOT
BRANCH   4  12
HETATM   12  C4  UNK     1      19.065  -2.467  15.863  1.00  0.00     0.001 A 
HETATM   13  C10 UNK     1      17.876  -3.043  15.415  1.00  0.00     0.014 A 
HETATM   14  C14 UNK     1      17.873  -4.352  14.934  1.00  0.00     0.001 A 
HETATM   15  C15 UNK     1      19.058  -5.086  14.900  1.00  0.00     0.000 A 
HETATM   16  C13 UNK     1      20.248  -4.511  15.347  1.00  0.00     0.001 A 
HETATM   17  C9  UNK     1      20.251  -3.201  15.829  1.00  0.00     0.014 A 
ENDBRANCH   4  12
BRANCH   6  18
HETATM   18  O2  UNK     1      19.419  -0.128  14.204  1.00  0.00    -0.355 OA
HETATM   19  H10 UNK     1      19.653  -1.041  13.973  1.00  0.00     0.218 HD
ENDBRANCH   6  18
TORSDOF 2
ENDMDL
MODEL 6
REMARK VINA RESULT:      -7.7      1.965      3.972
REMARK  2 active torsions:
REMARK  status: ('A' for Active; 'I' for Inactive)
REMARK    1  A    between atoms: C5_8  and  O2_2 
REMARK    2  A    between atoms: C2_5  and  C4_7 
ROOT
HETATM    1  O1  UNK     1      17.933   3.519  33.389  1.00  0.00    -0.306 OA
HETATM    2  O3  UNK     1      19.225   1.619  30.025  1.00  0.00    -0.284 OA
HETATM    3  C1  UNK     1      18.697   3.656  31.090  1.00  0.00     0.051 A 
HETATM    4  C2  UNK     1      18.081   2.142  33.348  1.00  0.00     0.123 A 
HETATM    5  C3  UNK     1      18.248   4.244  32.269  1.00  0.00     0.090 A 
HETATM    6  C5  UNK     1      18.496   1.451  32.271  1.00  0.00     0.152 A 
HETATM    7  C6  UNK     1      18.841   2.193  31.034  1.00  0.00     0.220 A 
HETATM    8  C7  UNK     1      19.002   4.446  29.979  1.00  0.00     0.018 A 
HETATM    9  C8  UNK     1      18.100   5.630  32.346  1.00  0.00     0.038 A 
HETATM   10  C11 UNK     1      18.855   5.831  30.058  1.00  0.00     0.001 A 
HETATM   11  C12 UNK     1      18.404   6.422  31.238  1.00  0.00     0.003 A 
ENDROOT
BRANCH   4  12
HETATM   12  C4  UNK     1      17.711   1.486  34.614  1.00  0.00     0.001 A 
HETATM   13  C10 UNK     1      16.582   0.668  34.674  1.00  0.00     0.014 A 
HETATM   14  C14 UNK     1      16.232   0.047  35.873  1.00  0.00     0.001 A 
HETATM   15  C15 UNK     1      17.010   0.244  37.013  1.00  0.00     0.000 A 
HETATM   16  C13 UNK     1      18.139   1.061  36.955  1.00  0.00     0.001 A 
HETATM   17  C9  UNK     1      18.489   1.683  35.755  1.00  0.00     0.014 A 
ENDBRANCH   4  12
BRANCH   6  18
HETATM   18  O2  UNK     1      18.601   0.077  32.254  1.00  0.00    -0.355 OA
HETATM   19  H10 UNK     1      19.510  -0.187  32.468  1.00  0.00     0.218 HD
ENDBRANCH   6  18
TORSDOF 2
ENDMDL
MODEL 7
REMARK VINA RESULT:      -7.6     23.662     25.975
REMARK  2 active torsions:
REMARK  status: ('A' for Active; 'I' for Inactive)
REMARK    1  A    between atoms: C5_8  and  O2_2 
REMARK    2  A    between atoms: C2_5  and  C4_7 
ROOT
HETATM    1  O1  UNK     1      13.395   8.657   8.157  1.00  0.00    -0.306 OA
HETATM    2  O3  UNK     1      15.105   6.717  11.306  1.00  0.00    -0.284 OA
HETATM    3  C1  UNK     1      15.193   8.515   9.782  1.00  0.00     0.051 A 
HETATM    4  C2  UNK     1      12.817   7.526   8.710  1.00  0.00     0.123 A 
HETATM    5  C3  UNK     1      14.560   9.130   8.705  1.00  0.00     0.090 A 
HETATM    6  C5  UNK     1      13.330   6.834   9.744  1.00  0.00     0.152 A 
HETATM    7  C6  UNK     1      14.592   7.304  10.363  1.00  0.00     0.220 A 
HETATM    8  C7  UNK     1      16.380   9.041  10.298  1.00  0.00     0.018 A 
HETATM    9  C8  UNK     1      15.112  10.277   8.134  1.00  0.00     0.038 A 
HETATM   10  C11 UNK     1      16.929  10.189   9.726  1.00  0.00     0.001 A 
HETATM   11  C12 UNK     1      16.297  10.806   8.646  1.00  0.00     0.003 A 
ENDROOT
BRANCH   4  12
HETATM   12  C4  UNK     1      11.572   7.126   8.031  1.00  0.00     0.001 A 
HETATM   13  C10 UNK     1      10.339   7.356   8.641  1.00  0.00     0.014 A 
HETATM   14  C14 UNK     1       9.160   6.978   7.997  1.00  0.00     0.001 A 
HETATM   15  C15 UNK     1       9.215   6.369   6.743  1.00  0.00     0.000 A 
HETATM   16  C13 UNK     1      10.448   6.139   6.133  1.00  0.00     0.001 A 
HETATM   17  C9  UNK     1      11.627   6.517   6.777  1.00  0.00     0.014 A 
ENDBRANCH   4  12
BRANCH   6  18
HETATM   18  O2  UNK     1      12.745   5.692  10.249  1.00  0.00    -0.355 OA
HETATM   19  H10 UNK     1      12.611   5.047   9.536  1.00  0.00     0.218 HD
ENDBRANCH   6  18
TORSDOF 2
ENDMDL
MODEL 8
REMARK VINA RESULT:      -7.5      2.208      4.338
REMARK  2 active torsions:
REMARK  status: ('A' for Active; 'I' for Inactive)
REMARK    1  A    between atoms: C5_8  and  O2_2 
REMARK    2  A    between atoms: C2_5  and  C4_7 
ROOT
HETATM    1  O1  UNK     1      19.345   1.924  30.398  1.00  0.00    -0.306 OA
HETATM    2  O3  UNK     1      18.405  -0.244  33.717  1.00  0.00    -0.284 OA
HETATM    3  C1  UNK     1      19.323  -0.215  31.545  1.00  0.00     0.051 A 
HETATM    4  C2  UNK     1      18.766   2.516  31.508  1.00  0.00     0.123 A 
HETATM    5  C3  UNK     1      19.617   0.580  30.440  1.00  0.00     0.090 A 
HETATM    6  C5  UNK     1      18.425   1.861  32.633  1.00  0.00     0.152 A 
HETATM    7  C6  UNK     1      18.692   0.405  32.721  1.00  0.00     0.220 A 
HETATM    8  C7  UNK     1      19.621  -1.580  31.531  1.00  0.00     0.018 A 
HETATM    9  C8  UNK     1      20.211   0.015  29.312  1.00  0.00     0.038 A 
HETATM   10  C11 UNK     1      20.217  -2.142  30.402  1.00  0.00     0.001 A 
HETATM   11  C12 UNK     1      20.511  -1.347  29.294  1.00  0.00     0.003 A 
ENDROOT
BRANCH   4  12
HETATM   12  C4  UNK     1      18.529   3.959  31.332  1.00  0.00     0.001 A 
HETATM   13  C10 UNK     1      17.727   4.652  32.239  1.00  0.00     0.014 A 
HETATM   14  C14 UNK     1      17.504   6.019  32.072  1.00  0.00     0.001 A 
HETATM   15  C15 UNK     1      18.083   6.694  30.997  1.00  0.00     0.000 A 
HETATM   16  C13 UNK     1      18.885   6.002  30.090  1.00  0.00     0.001 A 
HETATM   17  C9  UNK     1      19.108   4.635  30.257  1.00  0.00     0.014 A 
ENDBRANCH   4  12
BRANCH   6  18
HETATM   18  O2  UNK     1      17.819   2.475  33.707  1.00  0.00    -0.355 OA
HETATM   19  H10 UNK     1      16.859   2.335  33.669  1.00  0.00     0.218 HD
ENDBRANCH   6  18
TORSDOF 2
ENDMDL
MODEL 9
REMARK VINA RESULT:      -7.5     23.823     26.494
REMARK  2 active torsions:
REMARK  status: ('A' for Active; 'I' for Inactive)
REMARK    1  A    between atoms: C5_8  and  O2_2 
REMARK    2  A    between atoms: C2_5  and  C4_7 
ROOT
HETATM    1  O1  UNK     1      11.667   7.713   9.023  1.00  0.00    -0.306 OA
HETATM    2  O3  UNK     1      11.555   5.941   5.356  1.00  0.00    -0.284 OA
HETATM    3  C1  UNK     1      10.357   6.785   7.204  1.00  0.00     0.051 A 
HETATM    4  C2  UNK     1      12.827   7.439   8.317  1.00  0.00     0.123 A 
HETATM    5  C3  UNK     1      10.463   7.389   8.454  1.00  0.00     0.090 A 
HETATM    6  C5  UNK     1      12.863   6.851   7.107  1.00  0.00     0.152 A 
HETATM    7  C6  UNK     1      11.585   6.477   6.455  1.00  0.00     0.220 A 
HETATM    8  C7  UNK     1       9.101   6.476   6.673  1.00  0.00     0.018 A 
HETATM    9  C8  UNK     1       9.312   7.688   9.184  1.00  0.00     0.038 A 
HETATM   10  C11 UNK     1       7.952   6.778   7.405  1.00  0.00     0.001 A 
HETATM   11  C12 UNK     1       8.057   7.382   8.658  1.00  0.00     0.003 A 
ENDROOT
BRANCH   4  12
HETATM   12  C4  UNK     1      14.048   7.837   9.039  1.00  0.00     0.001 A 
HETATM   13  C10 UNK     1      14.610   9.095   8.822  1.00  0.00     0.014 A 
HETATM   14  C14 UNK     1      15.765   9.472   9.507  1.00  0.00     0.001 A 
HETATM   15  C15 UNK     1      16.360   8.590  10.409  1.00  0.00     0.000 A 
HETATM   16  C13 UNK     1      15.799   7.332  10.627  1.00  0.00     0.001 A 
HETATM   17  C9  UNK     1      14.643   6.955   9.942  1.00  0.00     0.014 A 
ENDBRANCH   4  12
BRANCH   6  18
HETATM   18  O2  UNK     1      14.038   6.563   6.446  1.00  0.00    -0.355 OA
HETATM   19  H10 UNK     1      14.796   6.804   7.001  1.00  0.00     0.218 HD
ENDBRANCH   6  18
TORSDOF 2
ENDMDL
MODEL 10
REMARK VINA RESULT:      -7.4     23.953     26.179
REMARK  2 active torsions:
REMARK  status: ('A' for Active; 'I' for Inactive)
REMARK    1  A    between atoms: C5_8  and  O2_2 
REMARK    2  A    between atoms: C2_5  and  C4_7 
ROOT
HETATM    1  O1  UNK     1      12.832   7.377   7.715  1.00  0.00    -0.306 OA
HETATM    2  O3  UNK     1       9.622   8.337  10.034  1.00  0.00    -0.284 OA
HETATM    3  C1  UNK     1      10.432   7.317   8.067  1.00  0.00     0.051 A 
HETATM    4  C2  UNK     1      12.984   8.049   8.917  1.00  0.00     0.123 A 
HETATM    5  C3  UNK     1      11.569   7.021   7.320  1.00  0.00     0.090 A 
HETATM    6  C5  UNK     1      11.969   8.402   9.728  1.00  0.00     0.152 A 
HETATM    7  C6  UNK     1      10.584   8.044   9.337  1.00  0.00     0.220 A 
HETATM    8  C7  UNK     1       9.168   6.929   7.614  1.00  0.00     0.018 A 
HETATM    9  C8  UNK     1      11.450   6.335   6.111  1.00  0.00     0.038 A 
HETATM   10  C11 UNK     1       9.052   6.242   6.405  1.00  0.00     0.001 A 
HETATM   11  C12 UNK     1      10.190   5.946   5.654  1.00  0.00     0.003 A 
ENDROOT
BRANCH   4  12
HETATM   12  C4  UNK     1      14.388   8.371   9.223  1.00  0.00     0.001 A 
HETATM   13  C10 UNK     1      14.927   9.596   8.830  1.00  0.00     0.014 A 
HETATM   14  C14 UNK     1      16.257   9.900   9.121  1.00  0.00     0.001 A 
HETATM   15  C15 UNK     1      17.050   8.978   9.803  1.00  0.00     0.000 A 
HETATM   16  C13 UNK     1      16.513   7.752  10.195  1.00  0.00     0.001 A 
HETATM   17  C9  UNK     1      15.182   7.448   9.905  1.00  0.00     0.014 A 
ENDBRANCH   4  12
BRANCH   6  18
HETATM   18  O2  UNK     1      12.153   9.100  10.902  1.00  0.00    -0.355 OA
HETATM   19  H10 UNK     1      12.051  10.051  10.740  1.00  0.00     0.218 HD
ENDBRANCH   6  18
TORSDOF 2
ENDMDL
