MODEL 1
REMARK VINA RESULT:      -7.8      0.000      0.000
REMARK  4 active torsions:
REMARK  status: ('A' for Active; 'I' for Inactive)
REMARK    1  A    between atoms: C13_19  and  O3_3 
REMARK    2  A    between atoms: C19_25  and  O3_3 
REMARK    3  A    between atoms: C1_7  and  C10_16 
REMARK    4  A    between atoms: C13_19  and  C6_12 
ROOT
HETATM    1  O1  UNK     1      32.525  -8.699  34.957  1.00  0.00    -0.293 OA
HETATM    2  N1  UNK     1      30.535  -6.209  38.463  1.00  0.00    -0.362 N 
HETATM    3  C1  UNK     1      30.078  -8.020  36.326  1.00  0.00     0.104 C 
HETATM    4  C2  UNK     1      31.442  -7.415  36.635  1.00  0.00     0.024 C 
HETATM    5  C3  UNK     1      31.604  -6.538  37.650  1.00  0.00     0.020 C 
HETATM    6  C4  UNK     1      32.917  -5.871  37.966  1.00  0.00     0.058 C 
HETATM    7  C5  UNK     1      33.870  -5.885  36.779  1.00  0.00     0.014 C 
HETATM    8  C6  UNK     1      29.029  -7.685  37.388  1.00  0.00     0.052 C 
HETATM    9  C7  UNK     1      33.991  -7.282  36.198  1.00  0.00     0.084 C 
HETATM   10  C8  UNK     1      32.634  -7.849  35.840  1.00  0.00     0.158 C 
HETATM   11  C9  UNK     1      29.282  -6.795  38.375  1.00  0.00     0.018 C 
HETATM   12  C12 UNK     1      28.306  -6.361  39.434  1.00  0.00     0.069 C 
HETATM   13  H8  UNK     1      30.698  -5.549  39.215  1.00  0.00     0.165 HD
ENDROOT
BRANCH   3  14
HETATM   14  C10 UNK     1      29.605  -7.573  34.969  1.00  0.00     0.029 A 
HETATM   15  C11 UNK     1      29.217  -8.608  33.978  1.00  0.00     0.194 A 
HETATM   16  O4  UNK     1      29.269  -9.805  34.231  1.00  0.00    -0.287 OA
HETATM   17  C15 UNK     1      28.762  -8.117  32.664  1.00  0.00     0.048 A 
HETATM   18  C16 UNK     1      28.723  -6.743  32.430  1.00  0.00     0.089 A 
HETATM   19  C17 UNK     1      28.375  -9.012  31.664  1.00  0.00     0.018 A 
HETATM   20  O2  UNK     1      29.091  -5.819  33.376  1.00  0.00    -0.321 OA
HETATM   21  C18 UNK     1      28.296  -6.255  31.195  1.00  0.00     0.038 A 
HETATM   22  C14 UNK     1      29.513  -6.291  34.595  1.00  0.00     0.154 A 
HETATM   23  C21 UNK     1      27.909  -7.147  30.194  1.00  0.00     0.003 A 
HETATM   24  C20 UNK     1      27.948  -8.522  30.428  1.00  0.00     0.001 A 
ENDBRANCH   3  14
BRANCH   8  25
HETATM   25  C13 UNK     1      27.755  -8.419  37.306  1.00  0.00     0.292 C 
HETATM   26  O5  UNK     1      26.732  -7.933  36.864  1.00  0.00    -0.259 OA
BRANCH  25  27
HETATM   27  O3  UNK     1      27.950  -9.668  37.794  1.00  0.00    -0.318 OA
BRANCH  27  28
HETATM   28  C19 UNK     1      27.062 -10.051  38.850  1.00  0.00     0.174 C 
HETATM   29  C22 UNK     1      27.811 -10.007  40.165  1.00  0.00     0.034 C 
ENDBRANCH  27  28
ENDBRANCH  25  27
ENDBRANCH   8  25
TORSDOF 4
ENDMDL
MODEL 2
REMARK VINA RESULT:      -7.7      2.065      5.775
REMARK  4 active torsions:
REMARK  status: ('A' for Active; 'I' for Inactive)
REMARK    1  A    between atoms: C13_19  and  O3_3 
REMARK    2  A    between atoms: C19_25  and  O3_3 
REMARK    3  A    between atoms: C1_7  and  C10_16 
REMARK    4  A    between atoms: C13_19  and  C6_12 
ROOT
HETATM    1  O1  UNK     1      30.122  -9.222  33.974  1.00  0.00    -0.293 OA
HETATM    2  N1  UNK     1      31.375  -4.660  34.232  1.00  0.00    -0.362 N 
HETATM    3  C1  UNK     1      31.014  -7.074  35.680  1.00  0.00     0.104 C 
HETATM    4  C2  UNK     1      30.678  -6.925  34.201  1.00  0.00     0.024 C 
HETATM    5  C3  UNK     1      30.845  -5.747  33.562  1.00  0.00     0.020 C 
HETATM    6  C4  UNK     1      30.482  -5.531  32.116  1.00  0.00     0.058 C 
HETATM    7  C5  UNK     1      29.482  -6.564  31.614  1.00  0.00     0.014 C 
HETATM    8  C6  UNK     1      31.723  -5.845  36.252  1.00  0.00     0.052 C 
HETATM    9  C7  UNK     1      29.943  -7.970  31.949  1.00  0.00     0.084 C 
HETATM   10  C8  UNK     1      30.215  -8.122  33.430  1.00  0.00     0.158 C 
HETATM   11  C9  UNK     1      31.850  -4.705  35.533  1.00  0.00     0.018 C 
HETATM   12  C12 UNK     1      32.482  -3.430  36.020  1.00  0.00     0.069 C 
HETATM   13  H8  UNK     1      31.487  -3.795  33.716  1.00  0.00     0.165 HD
ENDROOT
BRANCH   3  14
HETATM   14  C10 UNK     1      29.767  -7.370  36.470  1.00  0.00     0.029 A 
HETATM   15  C11 UNK     1      29.782  -8.515  37.414  1.00  0.00     0.194 A 
HETATM   16  O4  UNK     1      30.771  -9.220  37.569  1.00  0.00    -0.287 OA
HETATM   17  C15 UNK     1      28.535  -8.761  38.163  1.00  0.00     0.048 A 
HETATM   18  C16 UNK     1      27.438  -7.927  37.947  1.00  0.00     0.089 A 
HETATM   19  C17 UNK     1      28.448  -9.815  39.076  1.00  0.00     0.018 A 
HETATM   20  O2  UNK     1      27.468  -6.876  37.063  1.00  0.00    -0.321 OA
HETATM   21  C18 UNK     1      26.248  -8.140  38.643  1.00  0.00     0.038 A 
HETATM   22  C14 UNK     1      28.635  -6.660  36.373  1.00  0.00     0.154 A 
HETATM   23  C21 UNK     1      26.159  -9.191  39.556  1.00  0.00     0.003 A 
HETATM   24  C20 UNK     1      27.256 -10.027  39.771  1.00  0.00     0.001 A 
ENDBRANCH   3  14
BRANCH   8  25
HETATM   25  C13 UNK     1      32.301  -5.987  37.599  1.00  0.00     0.292 C 
HETATM   26  O5  UNK     1      31.848  -5.433  38.582  1.00  0.00    -0.259 OA
BRANCH  25  27
HETATM   27  O3  UNK     1      33.371  -6.814  37.518  1.00  0.00    -0.318 OA
BRANCH  27  28
HETATM   28  C19 UNK     1      34.642  -6.155  37.469  1.00  0.00     0.174 C 
HETATM   29  C22 UNK     1      35.241  -6.342  36.092  1.00  0.00     0.034 C 
ENDBRANCH  27  28
ENDBRANCH  25  27
ENDBRANCH   8  25
TORSDOF 4
ENDMDL
MODEL 3
REMARK VINA RESULT:      -7.7      1.859      5.744
REMARK  4 active torsions:
REMARK  status: ('A' for Active; 'I' for Inactive)
REMARK    1  A    between atoms: C13_19  and  O3_3 
REMARK    2  A    between atoms: C19_25  and  O3_3 
REMARK    3  A    between atoms: C1_7  and  C10_16 
REMARK    4  A    between atoms: C13_19  and  C6_12 
ROOT
HETATM    1  O1  UNK     1      28.670  -9.495  33.125  1.00  0.00    -0.293 OA
HETATM    2  N1  UNK     1      30.700  -5.214  33.070  1.00  0.00    -0.362 N 
HETATM    3  C1  UNK     1      30.307  -7.599  34.557  1.00  0.00     0.104 C 
HETATM    4  C2  UNK     1      29.645  -7.332  33.210  1.00  0.00     0.024 C 
HETATM    5  C3  UNK     1      29.845  -6.169  32.552  1.00  0.00     0.020 C 
HETATM    6  C4  UNK     1      29.177  -5.832  31.245  1.00  0.00     0.058 C 
HETATM    7  C5  UNK     1      27.924  -6.664  31.008  1.00  0.00     0.014 C 
HETATM    8  C6  UNK     1      31.333  -6.528  34.934  1.00  0.00     0.052 C 
HETATM    9  C7  UNK     1      28.209  -8.141  31.214  1.00  0.00     0.084 C 
HETATM   10  C8  UNK     1      28.810  -8.401  32.578  1.00  0.00     0.158 C 
HETATM   11  C9  UNK     1      31.468  -5.394  34.210  1.00  0.00     0.018 C 
HETATM   12  C12 UNK     1      32.408  -4.262  34.525  1.00  0.00     0.069 C 
HETATM   13  H8  UNK     1      30.826  -4.356  32.545  1.00  0.00     0.165 HD
ENDROOT
BRANCH   3  14
HETATM   14  C10 UNK     1      29.263  -7.723  35.635  1.00  0.00     0.029 A 
HETATM   15  C11 UNK     1      29.373  -8.843  36.602  1.00  0.00     0.194 A 
HETATM   16  O4  UNK     1      30.281  -9.662  36.550  1.00  0.00    -0.287 OA
HETATM   17  C15 UNK     1      28.325  -8.919  37.637  1.00  0.00     0.048 A 
HETATM   18  C16 UNK     1      27.313  -7.958  37.649  1.00  0.00     0.089 A 
HETATM   19  C17 UNK     1      28.340  -9.936  38.594  1.00  0.00     0.018 A 
HETATM   20  O2  UNK     1      27.250  -6.936  36.734  1.00  0.00    -0.321 OA
HETATM   21  C18 UNK     1      26.312  -8.009  38.618  1.00  0.00     0.038 A 
HETATM   22  C14 UNK     1      28.232  -6.879  35.776  1.00  0.00     0.154 A 
HETATM   23  C21 UNK     1      26.325  -9.024  39.575  1.00  0.00     0.003 A 
HETATM   24  C20 UNK     1      27.336  -9.986  39.563  1.00  0.00     0.001 A 
ENDBRANCH   3  14
BRANCH   8  25
HETATM   25  C13 UNK     1      32.193  -6.824  36.092  1.00  0.00     0.292 C 
HETATM   26  O5  UNK     1      32.997  -7.736  36.112  1.00  0.00    -0.259 OA
BRANCH  25  27
HETATM   27  O3  UNK     1      31.919  -5.923  37.067  1.00  0.00    -0.318 OA
BRANCH  27  28
HETATM   28  C19 UNK     1      31.499  -6.489  38.313  1.00  0.00     0.174 C 
HETATM   29  C22 UNK     1      30.197  -5.843  38.734  1.00  0.00     0.034 C 
ENDBRANCH  27  28
ENDBRANCH  25  27
ENDBRANCH   8  25
TORSDOF 4
ENDMDL
MODEL 4
REMARK VINA RESULT:      -7.7      1.726      1.907
REMARK  4 active torsions:
REMARK  status: ('A' for Active; 'I' for Inactive)
REMARK    1  A    between atoms: C13_19  and  O3_3 
REMARK    2  A    between atoms: C19_25  and  O3_3 
REMARK    3  A    between atoms: C1_7  and  C10_16 
REMARK    4  A    between atoms: C13_19  and  C6_12 
ROOT
HETATM    1  O1  UNK     1      33.109  -7.461  33.742  1.00  0.00    -0.293 OA
HETATM    2  N1  UNK     1      31.498  -4.259  36.840  1.00  0.00    -0.362 N 
HETATM    3  C1  UNK     1      30.883  -6.603  35.363  1.00  0.00     0.104 C 
HETATM    4  C2  UNK     1      32.200  -5.848  35.229  1.00  0.00     0.024 C 
HETATM    5  C3  UNK     1      32.436  -4.722  35.937  1.00  0.00     0.020 C 
HETATM    6  C4  UNK     1      33.697  -3.910  35.805  1.00  0.00     0.058 C 
HETATM    7  C5  UNK     1      34.419  -4.179  34.491  1.00  0.00     0.014 C 
HETATM    8  C6  UNK     1      30.007  -6.065  36.497  1.00  0.00     0.052 C 
HETATM    9  C7  UNK     1      34.597  -5.670  34.267  1.00  0.00     0.084 C 
HETATM   10  C8  UNK     1      33.274  -6.400  34.344  1.00  0.00     0.158 C 
HETATM   11  C9  UNK     1      30.327  -4.928  37.158  1.00  0.00     0.018 C 
HETATM   12  C12 UNK     1      29.509  -4.291  38.248  1.00  0.00     0.069 C 
HETATM   13  H8  UNK     1      31.714  -3.412  37.354  1.00  0.00     0.165 HD
ENDROOT
BRANCH   3  14
HETATM   14  C10 UNK     1      30.128  -6.569  34.062  1.00  0.00     0.029 A 
HETATM   15  C11 UNK     1      29.635  -7.849  33.495  1.00  0.00     0.194 A 
HETATM   16  O4  UNK     1      29.823  -8.924  34.051  1.00  0.00    -0.287 OA
HETATM   17  C15 UNK     1      28.902  -7.760  32.218  1.00  0.00     0.048 A 
HETATM   18  C16 UNK     1      28.718  -6.510  31.628  1.00  0.00     0.089 A 
HETATM   19  C17 UNK     1      28.399  -8.909  31.604  1.00  0.00     0.018 A 
HETATM   20  O2  UNK     1      29.190  -5.348  32.188  1.00  0.00    -0.321 OA
HETATM   21  C18 UNK     1      28.027  -6.401  30.421  1.00  0.00     0.038 A 
HETATM   22  C14 UNK     1      29.871  -5.447  33.376  1.00  0.00     0.154 A 
HETATM   23  C21 UNK     1      27.523  -7.547  29.806  1.00  0.00     0.003 A 
HETATM   24  C20 UNK     1      27.709  -8.799  30.395  1.00  0.00     0.001 A 
ENDBRANCH   3  14
BRANCH   8  25
HETATM   25  C13 UNK     1      28.833  -6.876  36.861  1.00  0.00     0.292 C 
HETATM   26  O5  UNK     1      27.719  -6.674  36.417  1.00  0.00    -0.259 OA
BRANCH  25  27
HETATM   27  O3  UNK     1      29.230  -7.833  37.734  1.00  0.00    -0.318 OA
BRANCH  27  28
HETATM   28  C19 UNK     1      28.193  -8.712  38.182  1.00  0.00     0.174 C 
HETATM   29  C22 UNK     1      27.717  -8.260  39.546  1.00  0.00     0.034 C 
ENDBRANCH  27  28
ENDBRANCH  25  27
ENDBRANCH   8  25
TORSDOF 4
ENDMDL
MODEL 5
REMARK VINA RESULT:      -7.5      2.001      5.752
REMARK  4 active torsions:
REMARK  status: ('A' for Active; 'I' for Inactive)
REMARK    1  A    between atoms: C13_19  and  O3_3 
REMARK    2  A    between atoms: C19_25  and  O3_3 
REMARK    3  A    between atoms: C1_7  and  C10_16 
REMARK    4  A    between atoms: C13_19  and  C6_12 
ROOT
HETATM    1  O1  UNK     1      30.333  -4.582  36.944  1.00  0.00    -0.293 OA
HETATM    2  N1  UNK     1      32.294  -6.957  33.343  1.00  0.00    -0.362 N 
HETATM    3  C1  UNK     1      29.959  -6.600  34.917  1.00  0.00     0.104 C 
HETATM    4  C2  UNK     1      31.272  -5.875  35.187  1.00  0.00     0.024 C 
HETATM    5  C3  UNK     1      32.363  -6.097  34.423  1.00  0.00     0.020 C 
HETATM    6  C4  UNK     1      33.698  -5.447  34.677  1.00  0.00     0.058 C 
HETATM    7  C5  UNK     1      33.829  -4.942  36.108  1.00  0.00     0.014 C 
HETATM    8  C6  UNK     1      29.984  -7.401  33.613  1.00  0.00     0.052 C 
HETATM    9  C7  UNK     1      32.628  -4.100  36.496  1.00  0.00     0.084 C 
HETATM   10  C8  UNK     1      31.333  -4.853  36.279  1.00  0.00     0.158 C 
HETATM   11  C9  UNK     1      31.127  -7.566  32.908  1.00  0.00     0.018 C 
HETATM   12  C12 UNK     1      31.268  -8.374  31.646  1.00  0.00     0.069 C 
HETATM   13  H8  UNK     1      33.134  -7.094  32.793  1.00  0.00     0.165 HD
ENDROOT
BRANCH   3  14
HETATM   14  C10 UNK     1      29.613  -7.500  36.073  1.00  0.00     0.029 A 
HETATM   15  C11 UNK     1      28.259  -7.395  36.671  1.00  0.00     0.194 A 
HETATM   16  O4  UNK     1      27.421  -6.605  36.254  1.00  0.00    -0.287 OA
HETATM   17  C15 UNK     1      27.971  -8.298  37.801  1.00  0.00     0.048 A 
HETATM   18  C16 UNK     1      28.963  -9.178  38.235  1.00  0.00     0.089 A 
HETATM   19  C17 UNK     1      26.725  -8.276  38.432  1.00  0.00     0.018 A 
HETATM   20  O2  UNK     1      30.204  -9.243  37.652  1.00  0.00    -0.321 OA
HETATM   21  C18 UNK     1      28.714 -10.041  39.302  1.00  0.00     0.038 A 
HETATM   22  C14 UNK     1      30.457  -8.396  36.601  1.00  0.00     0.154 A 
HETATM   23  C21 UNK     1      27.470 -10.022  39.934  1.00  0.00     0.003 A 
HETATM   24  C20 UNK     1      26.478  -9.141  39.500  1.00  0.00     0.001 A 
ENDBRANCH   3  14
BRANCH   8  25
HETATM   25  C13 UNK     1      28.694  -7.935  33.145  1.00  0.00     0.292 C 
HETATM   26  O5  UNK     1      28.424  -9.120  33.141  1.00  0.00    -0.259 OA
BRANCH  25  27
HETATM   27  O3  UNK     1      27.921  -6.895  32.749  1.00  0.00    -0.318 OA
BRANCH  27  28
HETATM   28  C19 UNK     1      27.997  -6.581  31.354  1.00  0.00     0.174 C 
HETATM   29  C22 UNK     1      26.678  -6.928  30.698  1.00  0.00     0.034 C 
ENDBRANCH  27  28
ENDBRANCH  25  27
ENDBRANCH   8  25
TORSDOF 4
ENDMDL
MODEL 6
REMARK VINA RESULT:      -7.4     19.567     23.730
REMARK  4 active torsions:
REMARK  status: ('A' for Active; 'I' for Inactive)
REMARK    1  A    between atoms: C13_19  and  O3_3 
REMARK    2  A    between atoms: C19_25  and  O3_3 
REMARK    3  A    between atoms: C1_7  and  C10_16 
REMARK    4  A    between atoms: C13_19  and  C6_12 
ROOT
HETATM    1  O1  UNK     1      20.321  -1.527  13.824  1.00  0.00    -0.293 OA
HETATM    2  N1  UNK     1      18.491  -5.578  12.183  1.00  0.00    -0.362 N 
HETATM    3  C1  UNK     1      19.174  -4.086  14.499  1.00  0.00     0.104 C 
HETATM    4  C2  UNK     1      19.475  -3.617  13.080  1.00  0.00     0.024 C 
HETATM    5  C3  UNK     1      19.151  -4.375  12.010  1.00  0.00     0.020 C 
HETATM    6  C4  UNK     1      19.471  -3.984  10.591  1.00  0.00     0.058 C 
HETATM    7  C5  UNK     1      20.591  -2.956  10.517  1.00  0.00     0.014 C 
HETATM    8  C6  UNK     1      18.316  -5.353  14.533  1.00  0.00     0.052 C 
HETATM    9  C7  UNK     1      20.319  -1.791  11.451  1.00  0.00     0.084 C 
HETATM   10  C8  UNK     1      20.081  -2.266  12.869  1.00  0.00     0.158 C 
HETATM   11  C9  UNK     1      18.037  -6.047  13.405  1.00  0.00     0.018 C 
HETATM   12  C12 UNK     1      17.249  -7.327  13.338  1.00  0.00     0.069 C 
HETATM   13  H8  UNK     1      18.263  -6.116  11.355  1.00  0.00     0.165 HD
ENDROOT
BRANCH   3  14
HETATM   14  C10 UNK     1      20.455  -4.305  15.258  1.00  0.00     0.029 A 
HETATM   15  C11 UNK     1      20.805  -3.355  16.344  1.00  0.00     0.194 A 
HETATM   16  O4  UNK     1      20.088  -2.408  16.639  1.00  0.00    -0.287 OA
HETATM   17  C15 UNK     1      22.071  -3.614  17.055  1.00  0.00     0.048 A 
HETATM   18  C16 UNK     1      22.850  -4.708  16.678  1.00  0.00     0.089 A 
HETATM   19  C17 UNK     1      22.489  -2.778  18.093  1.00  0.00     0.018 A 
HETATM   20  O2  UNK     1      22.487  -5.562  15.666  1.00  0.00    -0.321 OA
HETATM   21  C18 UNK     1      24.051  -4.972  17.336  1.00  0.00     0.038 A 
HETATM   22  C14 UNK     1      21.307  -5.309  15.013  1.00  0.00     0.154 A 
HETATM   23  C21 UNK     1      24.470  -4.139  18.373  1.00  0.00     0.003 A 
HETATM   24  C20 UNK     1      23.692  -3.044  18.751  1.00  0.00     0.001 A 
ENDBRANCH   3  14
BRANCH   8  25
HETATM   25  C13 UNK     1      17.774  -5.743  15.845  1.00  0.00     0.292 C 
HETATM   26  O5  UNK     1      18.268  -6.610  16.541  1.00  0.00    -0.259 OA
BRANCH  25  27
HETATM   27  O3  UNK     1      16.681  -4.983  16.098  1.00  0.00    -0.318 OA
BRANCH  27  28
HETATM   28  C19 UNK     1      15.813  -5.490  17.117  1.00  0.00     0.174 C 
HETATM   29  C22 UNK     1      14.875  -6.507  16.505  1.00  0.00     0.034 C 
ENDBRANCH  27  28
ENDBRANCH  25  27
ENDBRANCH   8  25
TORSDOF 4
ENDMDL
MODEL 7
REMARK VINA RESULT:      -7.3      1.523      1.802
REMARK  4 active torsions:
REMARK  status: ('A' for Active; 'I' for Inactive)
REMARK    1  A    between atoms: C13_19  and  O3_3 
REMARK    2  A    between atoms: C19_25  and  O3_3 
REMARK    3  A    between atoms: C1_7  and  C10_16 
REMARK    4  A    between atoms: C13_19  and  C6_12 
ROOT
HETATM    1  O1  UNK     1      32.510  -6.426  34.265  1.00  0.00    -0.293 OA
HETATM    2  N1  UNK     1      29.882  -5.418  38.076  1.00  0.00    -0.362 N 
HETATM    3  C1  UNK     1      30.312  -7.242  35.945  1.00  0.00     0.104 C 
HETATM    4  C2  UNK     1      31.094  -5.944  36.108  1.00  0.00     0.024 C 
HETATM    5  C3  UNK     1      30.835  -5.096  37.128  1.00  0.00     0.020 C 
HETATM    6  C4  UNK     1      31.541  -3.778  37.307  1.00  0.00     0.058 C 
HETATM    7  C5  UNK     1      32.173  -3.283  36.013  1.00  0.00     0.014 C 
HETATM    8  C6  UNK     1      29.401  -7.538  37.139  1.00  0.00     0.052 C 
HETATM    9  C7  UNK     1      33.013  -4.371  35.371  1.00  0.00     0.084 C 
HETATM   10  C8  UNK     1      32.209  -5.636  35.159  1.00  0.00     0.158 C 
HETATM   11  C9  UNK     1      29.205  -6.626  38.120  1.00  0.00     0.018 C 
HETATM   12  C12 UNK     1      28.294  -6.799  39.305  1.00  0.00     0.069 C 
HETATM   13  H8  UNK     1      29.720  -4.756  38.827  1.00  0.00     0.165 HD
ENDROOT
BRANCH   3  14
HETATM   14  C10 UNK     1      29.509  -7.210  34.673  1.00  0.00     0.029 A 
HETATM   15  C11 UNK     1      29.742  -8.271  33.661  1.00  0.00     0.194 A 
HETATM   16  O4  UNK     1      30.562  -9.164  33.830  1.00  0.00    -0.287 OA
HETATM   17  C15 UNK     1      28.930  -8.193  32.432  1.00  0.00     0.048 A 
HETATM   18  C16 UNK     1      28.011  -7.153  32.292  1.00  0.00     0.089 A 
HETATM   19  C17 UNK     1      29.075  -9.144  31.420  1.00  0.00     0.018 A 
HETATM   20  O2  UNK     1      27.826  -6.191  33.255  1.00  0.00    -0.321 OA
HETATM   21  C18 UNK     1      27.231  -7.058  31.139  1.00  0.00     0.038 A 
HETATM   22  C14 UNK     1      28.590  -6.277  34.393  1.00  0.00     0.154 A 
HETATM   23  C21 UNK     1      27.374  -8.008  30.127  1.00  0.00     0.003 A 
HETATM   24  C20 UNK     1      28.294  -9.048  30.267  1.00  0.00     0.001 A 
ENDBRANCH   3  14
BRANCH   8  25
HETATM   25  C13 UNK     1      28.794  -8.878  37.185  1.00  0.00     0.292 C 
HETATM   26  O5  UNK     1      29.369  -9.857  37.618  1.00  0.00    -0.259 OA
BRANCH  25  27
HETATM   27  O3  UNK     1      27.540  -8.796  36.677  1.00  0.00    -0.318 OA
BRANCH  27  28
HETATM   28  C19 UNK     1      26.541  -9.514  37.409  1.00  0.00     0.174 C 
HETATM   29  C22 UNK     1      25.948 -10.582  36.517  1.00  0.00     0.034 C 
ENDBRANCH  27  28
ENDBRANCH  25  27
ENDBRANCH   8  25
TORSDOF 4
ENDMDL
MODEL 8
REMARK VINA RESULT:      -7.3      5.115      8.331
REMARK  4 active torsions:
REMARK  status: ('A' for Active; 'I' for Inactive)
REMARK    1  A    between atoms: C13_19  and  O3_3 
REMARK    2  A    between atoms: C19_25  and  O3_3 
REMARK    3  A    between atoms: C1_7  and  C10_16 
REMARK    4  A    between atoms: C13_19  and  C6_12 
ROOT
HETATM    1  O1  UNK     1      34.265 -12.197  31.084  1.00  0.00    -0.293 OA
HETATM    2  N1  UNK     1      29.709 -11.882  29.822  1.00  0.00    -0.362 N 
HETATM    3  C1  UNK     1      32.218 -10.557  29.883  1.00  0.00     0.104 C 
HETATM    4  C2  UNK     1      31.979 -11.929  30.503  1.00  0.00     0.024 C 
HETATM    5  C3  UNK     1      30.759 -12.508  30.469  1.00  0.00     0.020 C 
HETATM    6  C4  UNK     1      30.455 -13.836  31.110  1.00  0.00     0.058 C 
HETATM    7  C5  UNK     1      31.470 -14.202  32.185  1.00  0.00     0.014 C 
HETATM    8  C6  UNK     1      31.017 -10.054  29.079  1.00  0.00     0.052 C 
HETATM    9  C7  UNK     1      32.887 -14.058  31.662  1.00  0.00     0.084 C 
HETATM   10  C8  UNK     1      33.130 -12.673  31.103  1.00  0.00     0.158 C 
HETATM   11  C9  UNK     1      29.831 -10.705  29.101  1.00  0.00     0.018 C 
HETATM   12  C12 UNK     1      28.579 -10.267  28.390  1.00  0.00     0.069 C 
HETATM   13  H8  UNK     1      28.810 -12.351  29.817  1.00  0.00     0.165 HD
ENDROOT
BRANCH   3  14
HETATM   14  C10 UNK     1      32.586  -9.560  30.949  1.00  0.00     0.029 A 
HETATM   15  C11 UNK     1      33.862  -8.815  30.812  1.00  0.00     0.194 A 
HETATM   16  O4  UNK     1      34.618  -8.986  29.864  1.00  0.00    -0.287 OA
HETATM   17  C15 UNK     1      34.175  -7.852  31.884  1.00  0.00     0.048 A 
HETATM   18  C16 UNK     1      33.278  -7.698  32.940  1.00  0.00     0.089 A 
HETATM   19  C17 UNK     1      35.352  -7.101  31.846  1.00  0.00     0.018 A 
HETATM   20  O2  UNK     1      32.106  -8.408  33.028  1.00  0.00    -0.321 OA
HETATM   21  C18 UNK     1      33.552  -6.792  33.965  1.00  0.00     0.038 A 
HETATM   22  C14 UNK     1      31.829  -9.302  32.023  1.00  0.00     0.154 A 
HETATM   23  C21 UNK     1      34.727  -6.042  33.930  1.00  0.00     0.003 A 
HETATM   24  C20 UNK     1      35.626  -6.196  32.873  1.00  0.00     0.001 A 
ENDBRANCH   3  14
BRANCH   8  25
HETATM   25  C13 UNK     1      31.237  -8.859  28.248  1.00  0.00     0.292 C 
HETATM   26  O5  UNK     1      31.978  -8.844  27.284  1.00  0.00    -0.259 OA
BRANCH  25  27
HETATM   27  O3  UNK     1      30.490  -7.847  28.750  1.00  0.00    -0.318 OA
BRANCH  27  28
HETATM   28  C19 UNK     1      31.230  -6.693  29.164  1.00  0.00     0.174 C 
HETATM   29  C22 UNK     1      30.650  -6.174  30.461  1.00  0.00     0.034 C 
ENDBRANCH  27  28
ENDBRANCH  25  27
ENDBRANCH   8  25
TORSDOF 4
ENDMDL
MODEL 9
REMARK VINA RESULT:      -7.3      1.299      1.604
REMARK  4 active torsions:
REMARK  status: ('A' for Active; 'I' for Inactive)
REMARK    1  A    between atoms: C13_19  and  O3_3 
REMARK    2  A    between atoms: C19_25  and  O3_3 
REMARK    3  A    between atoms: C1_7  and  C10_16 
REMARK    4  A    between atoms: C13_19  and  C6_12 
ROOT
HETATM    1  O1  UNK     1      33.178  -8.644  34.090  1.00  0.00    -0.293 OA
HETATM    2  N1  UNK     1      32.392  -5.261  37.312  1.00  0.00    -0.362 N 
HETATM    3  C1  UNK     1      31.221  -7.310  35.737  1.00  0.00     0.104 C 
HETATM    4  C2  UNK     1      32.689  -6.912  35.639  1.00  0.00     0.024 C 
HETATM    5  C3  UNK     1      33.193  -5.913  36.394  1.00  0.00     0.020 C 
HETATM    6  C4  UNK     1      34.622  -5.445  36.301  1.00  0.00     0.058 C 
HETATM    7  C5  UNK     1      35.270  -5.838  34.980  1.00  0.00     0.014 C 
HETATM    8  C6  UNK     1      30.495  -6.612  36.889  1.00  0.00     0.052 C 
HETATM    9  C7  UNK     1      35.066  -7.314  34.695  1.00  0.00     0.084 C 
HETATM   10  C8  UNK     1      33.599  -7.684  34.736  1.00  0.00     0.158 C 
HETATM   11  C9  UNK     1      31.084  -5.621  37.597  1.00  0.00     0.018 C 
HETATM   12  C12 UNK     1      30.441  -4.840  38.710  1.00  0.00     0.069 C 
HETATM   13  H8  UNK     1      32.809  -4.518  37.862  1.00  0.00     0.165 HD
ENDROOT
BRANCH   3  14
HETATM   14  C10 UNK     1      30.518  -7.033  34.435  1.00  0.00     0.029 A 
HETATM   15  C11 UNK     1      29.770  -8.138  33.785  1.00  0.00     0.194 A 
HETATM   16  O4  UNK     1      29.708  -9.259  34.273  1.00  0.00    -0.287 OA
HETATM   17  C15 UNK     1      29.101  -7.814  32.511  1.00  0.00     0.048 A 
HETATM   18  C16 UNK     1      29.205  -6.520  32.000  1.00  0.00     0.089 A 
HETATM   19  C17 UNK     1      28.371  -8.786  31.822  1.00  0.00     0.018 A 
HETATM   20  O2  UNK     1      29.907  -5.526  32.636  1.00  0.00    -0.321 OA
HETATM   21  C18 UNK     1      28.580  -6.191  30.798  1.00  0.00     0.038 A 
HETATM   22  C14 UNK     1      30.525  -5.843  33.820  1.00  0.00     0.154 A 
HETATM   23  C21 UNK     1      27.851  -7.159  30.108  1.00  0.00     0.003 A 
HETATM   24  C20 UNK     1      27.747  -8.454  30.618  1.00  0.00     0.001 A 
ENDBRANCH   3  14
BRANCH   8  25
HETATM   25  C13 UNK     1      29.148  -7.110  37.213  1.00  0.00     0.292 C 
HETATM   26  O5  UNK     1      28.127  -6.565  36.841  1.00  0.00    -0.259 OA
BRANCH  25  27
HETATM   27  O3  UNK     1      29.277  -8.230  37.965  1.00  0.00    -0.318 OA
BRANCH  27  28
HETATM   28  C19 UNK     1      28.052  -8.913  38.250  1.00  0.00     0.174 C 
HETATM   29  C22 UNK     1      27.640  -8.612  39.675  1.00  0.00     0.034 C 
ENDBRANCH  27  28
ENDBRANCH  25  27
ENDBRANCH   8  25
TORSDOF 4
ENDMDL
MODEL 10
REMARK VINA RESULT:      -7.3      2.496      6.553
REMARK  4 active torsions:
REMARK  status: ('A' for Active; 'I' for Inactive)
REMARK    1  A    between atoms: C13_19  and  O3_3 
REMARK    2  A    between atoms: C19_25  and  O3_3 
REMARK    3  A    between atoms: C1_7  and  C10_16 
REMARK    4  A    between atoms: C13_19  and  C6_12 
ROOT
HETATM    1  O1  UNK     1      32.076  -9.755  34.927  1.00  0.00    -0.293 OA
HETATM    2  N1  UNK     1      28.959 -10.044  31.370  1.00  0.00    -0.362 N 
HETATM    3  C1  UNK     1      29.909  -8.463  33.527  1.00  0.00     0.104 C 
HETATM    4  C2  UNK     1      30.427  -9.864  33.222  1.00  0.00     0.024 C 
HETATM    5  C3  UNK     1      29.925 -10.586  32.197  1.00  0.00     0.020 C 
HETATM    6  C4  UNK     1      30.363 -11.992  31.883  1.00  0.00     0.058 C 
HETATM    7  C5  UNK     1      31.017 -12.672  33.078  1.00  0.00     0.014 C 
HETATM    8  C6  UNK     1      28.956  -7.938  32.451  1.00  0.00     0.052 C 
HETATM    9  C7  UNK     1      32.096 -11.790  33.679  1.00  0.00     0.084 C 
HETATM   10  C8  UNK     1      31.554 -10.421  34.033  1.00  0.00     0.158 C 
HETATM   11  C9  UNK     1      28.508  -8.736  31.455  1.00  0.00     0.018 C 
HETATM   12  C12 UNK     1      27.534  -8.332  30.382  1.00  0.00     0.069 C 
HETATM   13  H8  UNK     1      28.610 -10.617  30.611  1.00  0.00     0.165 HD
ENDROOT
BRANCH   3  14
HETATM   14  C10 UNK     1      29.238  -8.438  34.874  1.00  0.00     0.029 A 
HETATM   15  C11 UNK     1      29.624  -7.377  35.838  1.00  0.00     0.194 A 
HETATM   16  O4  UNK     1      30.464  -6.528  35.571  1.00  0.00    -0.287 OA
HETATM   17  C15 UNK     1      28.937  -7.398  37.143  1.00  0.00     0.048 A 
HETATM   18  C16 UNK     1      27.988  -8.389  37.394  1.00  0.00     0.089 A 
HETATM   19  C17 UNK     1      29.230  -6.442  38.118  1.00  0.00     0.018 A 
HETATM   20  O2  UNK     1      27.660  -9.352  36.472  1.00  0.00    -0.321 OA
HETATM   21  C18 UNK     1      27.325  -8.428  38.621  1.00  0.00     0.038 A 
HETATM   22  C14 UNK     1      28.308  -9.320  35.262  1.00  0.00     0.154 A 
HETATM   23  C21 UNK     1      27.616  -7.474  39.596  1.00  0.00     0.003 A 
HETATM   24  C20 UNK     1      28.566  -6.483  39.346  1.00  0.00     0.001 A 
ENDBRANCH   3  14
BRANCH   8  25
HETATM   25  C13 UNK     1      28.597  -6.512  32.533  1.00  0.00     0.292 C 
HETATM   26  O5  UNK     1      27.500  -6.119  32.882  1.00  0.00    -0.259 OA
BRANCH  25  27
HETATM   27  O3  UNK     1      29.674  -5.779  32.162  1.00  0.00    -0.318 OA
BRANCH  27  28
HETATM   28  C19 UNK     1      29.563  -5.141  30.886  1.00  0.00     0.174 C 
HETATM   29  C22 UNK     1      29.960  -3.687  31.025  1.00  0.00     0.034 C 
ENDBRANCH  27  28
ENDBRANCH  25  27
ENDBRANCH   8  25
TORSDOF 4
ENDMDL
