MODEL 1
REMARK VINA RESULT:      -8.6      0.000      0.000
REMARK  6 active torsions:
REMARK  status: ('A' for Active; 'I' for Inactive)
REMARK    1  A    between atoms: C2_9  and  O2_2 
REMARK    2  A    between atoms: C7_14  and  O4_4 
REMARK    3  A    between atoms: C12_19  and  O5_5 
REMARK    4  A    between atoms: C13_20  and  O6_6 
REMARK    5  A    between atoms: C15_22  and  O7_7 
REMARK    6  A    between atoms: C1_8  and  C3_10 
ROOT
HETATM    1  O1  UNK     1      19.194  -0.507  34.087  1.00  0.00    -0.337 OA
HETATM    2  O3  UNK     1      20.421  -3.954  35.948  1.00  0.00    -0.289 OA
HETATM    3  C1  UNK     1      19.343  -1.719  33.331  1.00  0.00     0.198 C 
HETATM    4  C2  UNK     1      20.409  -2.632  33.944  1.00  0.00     0.227 C 
HETATM    5  C4  UNK     1      20.048  -2.936  35.378  1.00  0.00     0.196 C 
HETATM    6  C5  UNK     1      19.268  -1.899  36.088  1.00  0.00     0.079 A 
HETATM    7  C6  UNK     1      18.903  -0.734  35.408  1.00  0.00     0.089 A 
HETATM    8  C7  UNK     1      18.939  -2.062  37.436  1.00  0.00     0.085 A 
HETATM    9  C10 UNK     1      18.236   0.286  36.087  1.00  0.00     0.074 A 
HETATM   10  C11 UNK     1      18.254  -1.047  38.105  1.00  0.00     0.074 A 
HETATM   11  C12 UNK     1      17.908   0.127  37.434  1.00  0.00     0.071 A 
ENDROOT
BRANCH   3  12
HETATM   12  C3  UNK     1      19.652  -1.386  31.883  1.00  0.00    -0.023 A 
HETATM   13  C8  UNK     1      19.477  -0.085  31.415  1.00  0.00     0.049 A 
HETATM   14  C13 UNK     1      19.761   0.220  30.085  1.00  0.00     0.099 A 
HETATM   15  C15 UNK     1      20.220  -0.775  29.224  1.00  0.00     0.098 A 
HETATM   16  C14 UNK     1      20.395  -2.077  29.693  1.00  0.00     0.040 A 
HETATM   17  C9  UNK     1      20.111  -2.383  31.022  1.00  0.00     0.013 A 
BRANCH  14  18
HETATM   18  O6  UNK     1      19.587   1.497  29.639  1.00  0.00    -0.358 OA
HETATM   19  H11 UNK     1      20.456   1.849  29.376  1.00  0.00     0.217 HD
ENDBRANCH  14  18
BRANCH  15  20
HETATM   20  O7  UNK     1      20.502  -0.489  27.921  1.00  0.00    -0.358 OA
HETATM   21  H12 UNK     1      19.941   0.250  27.630  1.00  0.00     0.217 HD
ENDBRANCH  15  20
ENDBRANCH   3  12
BRANCH   4  22
HETATM   22  O2  UNK     1      21.692  -2.027  33.971  1.00  0.00    -0.385 OA
HETATM   23  H6  UNK     1      21.708  -1.383  34.699  1.00  0.00     0.210 HD
ENDBRANCH   4  22
BRANCH  11  24
HETATM   24  O5  UNK     1      17.246   1.116  38.093  1.00  0.00    -0.361 OA
HETATM   25  H10 UNK     1      16.291   0.940  38.050  1.00  0.00     0.217 HD
ENDBRANCH  11  24
BRANCH   8  26
HETATM   26  O4  UNK     1      19.266  -3.178  38.145  1.00  0.00    -0.360 OA
HETATM   27  H9  UNK     1      18.690  -3.269  38.919  1.00  0.00     0.217 HD
ENDBRANCH   8  26
TORSDOF 6
ENDMDL
MODEL 2
REMARK VINA RESULT:      -8.5     13.777     18.835
REMARK  6 active torsions:
REMARK  status: ('A' for Active; 'I' for Inactive)
REMARK    1  A    between atoms: C2_9  and  O2_2 
REMARK    2  A    between atoms: C7_14  and  O4_4 
REMARK    3  A    between atoms: C12_19  and  O5_5 
REMARK    4  A    between atoms: C13_20  and  O6_6 
REMARK    5  A    between atoms: C15_22  and  O7_7 
REMARK    6  A    between atoms: C1_8  and  C3_10 
ROOT
HETATM    1  O1  UNK     1      19.052  -0.608  15.440  1.00  0.00    -0.337 OA
HETATM    2  O3  UNK     1      17.578  -4.429  15.732  1.00  0.00    -0.289 OA
HETATM    3  C1  UNK     1      19.099  -1.304  16.696  1.00  0.00     0.198 C 
HETATM    4  C2  UNK     1      17.958  -2.320  16.814  1.00  0.00     0.227 C 
HETATM    5  C4  UNK     1      18.028  -3.292  15.661  1.00  0.00     0.196 C 
HETATM    6  C5  UNK     1      18.614  -2.773  14.406  1.00  0.00     0.079 A 
HETATM    7  C6  UNK     1      19.074  -1.454  14.361  1.00  0.00     0.089 A 
HETATM    8  C7  UNK     1      18.665  -3.577  13.265  1.00  0.00     0.085 A 
HETATM    9  C10 UNK     1      19.557  -0.928  13.162  1.00  0.00     0.074 A 
HETATM   10  C11 UNK     1      19.168  -3.052  12.074  1.00  0.00     0.074 A 
HETATM   11  C12 UNK     1      19.607  -1.729  12.021  1.00  0.00     0.071 A 
ENDROOT
BRANCH   3  12
HETATM   12  C3  UNK     1      19.081  -0.303  17.837  1.00  0.00    -0.023 A 
HETATM   13  C8  UNK     1      19.187  -0.748  19.154  1.00  0.00     0.049 A 
HETATM   14  C13 UNK     1      19.170   0.172  20.202  1.00  0.00     0.099 A 
HETATM   15  C15 UNK     1      19.047   1.534  19.933  1.00  0.00     0.098 A 
HETATM   16  C14 UNK     1      18.941   1.978  18.615  1.00  0.00     0.040 A 
HETATM   17  C9  UNK     1      18.958   1.059  17.567  1.00  0.00     0.013 A 
BRANCH  14  18
HETATM   18  O6  UNK     1      19.276  -0.275  21.486  1.00  0.00    -0.358 OA
HETATM   19  H11 UNK     1      18.888  -1.167  21.531  1.00  0.00     0.217 HD
ENDBRANCH  14  18
BRANCH  15  20
HETATM   20  O7  UNK     1      19.030   2.442  20.949  1.00  0.00    -0.358 OA
HETATM   21  H12 UNK     1      18.803   3.316  20.589  1.00  0.00     0.217 HD
ENDBRANCH  15  20
ENDBRANCH   3  12
BRANCH   4  22
HETATM   22  O2  UNK     1      16.679  -1.710  16.750  1.00  0.00    -0.385 OA
HETATM   23  H6  UNK     1      16.587  -1.117  17.515  1.00  0.00     0.210 HD
ENDBRANCH   4  22
BRANCH  11  24
HETATM   24  O5  UNK     1      20.090  -1.220  10.854  1.00  0.00    -0.361 OA
HETATM   25  H10 UNK     1      19.403  -1.293  10.170  1.00  0.00     0.217 HD
ENDBRANCH  11  24
BRANCH   8  26
HETATM   26  O4  UNK     1      18.235  -4.870  13.255  1.00  0.00    -0.360 OA
HETATM   27  H9  UNK     1      18.977  -5.474  13.095  1.00  0.00     0.217 HD
ENDBRANCH   8  26
TORSDOF 6
ENDMDL
MODEL 3
REMARK VINA RESULT:      -8.2     25.509     27.468
REMARK  6 active torsions:
REMARK  status: ('A' for Active; 'I' for Inactive)
REMARK    1  A    between atoms: C2_9  and  O2_2 
REMARK    2  A    between atoms: C7_14  and  O4_4 
REMARK    3  A    between atoms: C12_19  and  O5_5 
REMARK    4  A    between atoms: C13_20  and  O6_6 
REMARK    5  A    between atoms: C15_22  and  O7_7 
REMARK    6  A    between atoms: C1_8  and  C3_10 
ROOT
HETATM    1  O1  UNK     1      11.844   5.495   9.541  1.00  0.00    -0.337 OA
HETATM    2  O3  UNK     1      10.131   7.361   6.311  1.00  0.00    -0.289 OA
HETATM    3  C1  UNK     1      12.398   6.723   9.043  1.00  0.00     0.198 C 
HETATM    4  C2  UNK     1      12.136   6.884   7.542  1.00  0.00     0.227 C 
HETATM    5  C4  UNK     1      10.651   6.821   7.279  1.00  0.00     0.196 C 
HETATM    6  C5  UNK     1       9.856   6.008   8.225  1.00  0.00     0.079 A 
HETATM    7  C6  UNK     1      10.501   5.374   9.290  1.00  0.00     0.089 A 
HETATM    8  C7  UNK     1       8.484   5.838   8.030  1.00  0.00     0.085 A 
HETATM    9  C10 UNK     1       9.777   4.542  10.144  1.00  0.00     0.074 A 
HETATM   10  C11 UNK     1       7.760   5.020   8.898  1.00  0.00     0.074 A 
HETATM   11  C12 UNK     1       8.406   4.369   9.950  1.00  0.00     0.071 A 
ENDROOT
BRANCH   3  12
HETATM   12  C3  UNK     1      13.879   6.787   9.366  1.00  0.00    -0.023 A 
HETATM   13  C8  UNK     1      14.653   5.629   9.313  1.00  0.00     0.049 A 
HETATM   14  C13 UNK     1      16.014   5.688   9.611  1.00  0.00     0.099 A 
HETATM   15  C15 UNK     1      16.600   6.904   9.961  1.00  0.00     0.098 A 
HETATM   16  C14 UNK     1      15.824   8.062  10.013  1.00  0.00     0.040 A 
HETATM   17  C9  UNK     1      14.463   8.004   9.716  1.00  0.00     0.013 A 
BRANCH  14  18
HETATM   18  O6  UNK     1      16.761   4.549   9.555  1.00  0.00    -0.358 OA
HETATM   19  H11 UNK     1      16.172   3.810   9.321  1.00  0.00     0.217 HD
ENDBRANCH  14  18
BRANCH  15  20
HETATM   20  O7  UNK     1      17.929   6.974  10.253  1.00  0.00    -0.358 OA
HETATM   21  H12 UNK     1      18.403   6.299   9.739  1.00  0.00     0.217 HD
ENDBRANCH  15  20
ENDBRANCH   3  12
BRANCH   4  22
HETATM   22  O2  UNK     1      12.726   5.848   6.774  1.00  0.00    -0.385 OA
HETATM   23  H6  UNK     1      12.126   5.083   6.784  1.00  0.00     0.210 HD
ENDBRANCH   4  22
BRANCH  11  24
HETATM   24  O5  UNK     1       7.697   3.567  10.790  1.00  0.00    -0.361 OA
HETATM   25  H10 UNK     1       6.762   3.577  10.522  1.00  0.00     0.217 HD
ENDBRANCH  11  24
BRANCH   8  26
HETATM   26  O4  UNK     1       7.805   6.436   7.011  1.00  0.00    -0.360 OA
HETATM   27  H9  UNK     1       8.412   6.682   6.296  1.00  0.00     0.217 HD
ENDBRANCH   8  26
TORSDOF 6
ENDMDL
MODEL 4
REMARK VINA RESULT:      -8.1     27.280     28.817
REMARK  6 active torsions:
REMARK  status: ('A' for Active; 'I' for Inactive)
REMARK    1  A    between atoms: C2_9  and  O2_2 
REMARK    2  A    between atoms: C7_14  and  O4_4 
REMARK    3  A    between atoms: C12_19  and  O5_5 
REMARK    4  A    between atoms: C13_20  and  O6_6 
REMARK    5  A    between atoms: C15_22  and  O7_7 
REMARK    6  A    between atoms: C1_8  and  C3_10 
ROOT
HETATM    1  O1  UNK     1       9.495   7.188   9.500  1.00  0.00    -0.337 OA
HETATM    2  O3  UNK     1       9.516   5.577   5.724  1.00  0.00    -0.289 OA
HETATM    3  C1  UNK     1       8.617   6.097   9.178  1.00  0.00     0.198 C 
HETATM    4  C2  UNK     1       8.245   6.100   7.693  1.00  0.00     0.227 C 
HETATM    5  C4  UNK     1       9.502   6.042   6.858  1.00  0.00     0.196 C 
HETATM    6  C5  UNK     1      10.712   6.641   7.459  1.00  0.00     0.079 A 
HETATM    7  C6  UNK     1      10.635   7.199   8.738  1.00  0.00     0.089 A 
HETATM    8  C7  UNK     1      11.908   6.691   6.739  1.00  0.00     0.085 A 
HETATM    9  C10 UNK     1      11.749   7.837   9.286  1.00  0.00     0.074 A 
HETATM   10  C11 UNK     1      13.024   7.313   7.300  1.00  0.00     0.074 A 
HETATM   11  C12 UNK     1      12.943   7.889   8.568  1.00  0.00     0.071 A 
ENDROOT
BRANCH   3  12
HETATM   12  C3  UNK     1       7.388   6.147  10.067  1.00  0.00    -0.023 A 
HETATM   13  C8  UNK     1       6.496   5.077  10.081  1.00  0.00     0.049 A 
HETATM   14  C13 UNK     1       5.366   5.123  10.898  1.00  0.00     0.099 A 
HETATM   15  C15 UNK     1       5.130   6.240  11.698  1.00  0.00     0.098 A 
HETATM   16  C14 UNK     1       6.024   7.311  11.682  1.00  0.00     0.040 A 
HETATM   17  C9  UNK     1       7.153   7.265  10.867  1.00  0.00     0.013 A 
BRANCH  14  18
HETATM   18  O6  UNK     1       4.501   4.070  10.904  1.00  0.00    -0.358 OA
HETATM   19  H11 UNK     1       4.925   3.331  11.376  1.00  0.00     0.217 HD
ENDBRANCH  14  18
BRANCH  15  20
HETATM   20  O7  UNK     1       4.030   6.298  12.500  1.00  0.00    -0.358 OA
HETATM   21  H12 UNK     1       3.765   7.227  12.609  1.00  0.00     0.217 HD
ENDBRANCH  15  20
ENDBRANCH   3  12
BRANCH   4  22
HETATM   22  O2  UNK     1       7.560   7.281   7.307  1.00  0.00    -0.385 OA
HETATM   23  H6  UNK     1       7.880   8.013   7.861  1.00  0.00     0.210 HD
ENDBRANCH   4  22
BRANCH  11  24
HETATM   24  O5  UNK     1      14.033   8.500   9.107  1.00  0.00    -0.361 OA
HETATM   25  H10 UNK     1      14.616   7.825   9.494  1.00  0.00     0.217 HD
ENDBRANCH  11  24
BRANCH   8  26
HETATM   26  O4  UNK     1      12.040   6.160   5.492  1.00  0.00    -0.360 OA
HETATM   27  H9  UNK     1      12.782   5.536   5.464  1.00  0.00     0.217 HD
ENDBRANCH   8  26
TORSDOF 6
ENDMDL
MODEL 5
REMARK VINA RESULT:      -8.0     13.775     18.387
REMARK  6 active torsions:
REMARK  status: ('A' for Active; 'I' for Inactive)
REMARK    1  A    between atoms: C2_9  and  O2_2 
REMARK    2  A    between atoms: C7_14  and  O4_4 
REMARK    3  A    between atoms: C12_19  and  O5_5 
REMARK    4  A    between atoms: C13_20  and  O6_6 
REMARK    5  A    between atoms: C15_22  and  O7_7 
REMARK    6  A    between atoms: C1_8  and  C3_10 
ROOT
HETATM    1  O1  UNK     1      20.275  -2.190  16.838  1.00  0.00    -0.337 OA
HETATM    2  O3  UNK     1      17.872  -1.979  13.517  1.00  0.00    -0.289 OA
HETATM    3  C1  UNK     1      19.039  -1.459  16.889  1.00  0.00     0.198 C 
HETATM    4  C2  UNK     1      18.662  -0.904  15.513  1.00  0.00     0.227 C 
HETATM    5  C4  UNK     1      18.574  -2.037  14.519  1.00  0.00     0.196 C 
HETATM    6  C5  UNK     1      19.439  -3.206  14.785  1.00  0.00     0.079 A 
HETATM    7  C6  UNK     1      20.256  -3.207  15.919  1.00  0.00     0.089 A 
HETATM    8  C7  UNK     1      19.474  -4.278  13.890  1.00  0.00     0.085 A 
HETATM    9  C10 UNK     1      21.134  -4.269  16.140  1.00  0.00     0.074 A 
HETATM   10  C11 UNK     1      20.339  -5.346  14.127  1.00  0.00     0.074 A 
HETATM   11  C12 UNK     1      21.171  -5.340  15.247  1.00  0.00     0.071 A 
ENDROOT
BRANCH   3  12
HETATM   12  C3  UNK     1      19.135  -0.361  17.932  1.00  0.00    -0.023 A 
HETATM   13  C8  UNK     1      19.417  -0.683  19.258  1.00  0.00     0.049 A 
HETATM   14  C13 UNK     1      19.505   0.326  20.216  1.00  0.00     0.099 A 
HETATM   15  C15 UNK     1      19.310   1.656  19.848  1.00  0.00     0.098 A 
HETATM   16  C14 UNK     1      19.028   1.978  18.520  1.00  0.00     0.040 A 
HETATM   17  C9  UNK     1      18.940   0.969  17.562  1.00  0.00     0.013 A 
BRANCH  14  18
HETATM   18  O6  UNK     1      19.783  -0.001  21.510  1.00  0.00    -0.358 OA
HETATM   19  H11 UNK     1      19.323   0.631  22.090  1.00  0.00     0.217 HD
ENDBRANCH  14  18
BRANCH  15  20
HETATM   20  O7  UNK     1      19.394   2.652  20.774  1.00  0.00    -0.358 OA
HETATM   21  H12 UNK     1      18.556   2.700  21.265  1.00  0.00     0.217 HD
ENDBRANCH  15  20
ENDBRANCH   3  12
BRANCH   4  22
HETATM   22  O2  UNK     1      19.632   0.000  15.008  1.00  0.00    -0.385 OA
HETATM   23  H6  UNK     1      20.436  -0.503  14.797  1.00  0.00     0.210 HD
ENDBRANCH   4  22
BRANCH  11  24
HETATM   24  O5  UNK     1      22.019  -6.381  15.469  1.00  0.00    -0.361 OA
HETATM   25  H10 UNK     1      21.848  -7.074  14.809  1.00  0.00     0.217 HD
ENDBRANCH  11  24
BRANCH   8  26
HETATM   26  O4  UNK     1      18.696  -4.330  12.772  1.00  0.00    -0.360 OA
HETATM   27  H9  UNK     1      17.947  -3.719  12.851  1.00  0.00     0.217 HD
ENDBRANCH   8  26
TORSDOF 6
ENDMDL
MODEL 6
REMARK VINA RESULT:      -7.9      5.704      7.574
REMARK  6 active torsions:
REMARK  status: ('A' for Active; 'I' for Inactive)
REMARK    1  A    between atoms: C2_9  and  O2_2 
REMARK    2  A    between atoms: C7_14  and  O4_4 
REMARK    3  A    between atoms: C12_19  and  O5_5 
REMARK    4  A    between atoms: C13_20  and  O6_6 
REMARK    5  A    between atoms: C15_22  and  O7_7 
REMARK    6  A    between atoms: C1_8  and  C3_10 
ROOT
HETATM    1  O1  UNK     1      17.360   5.109  31.798  1.00  0.00    -0.337 OA
HETATM    2  O3  UNK     1      20.811   6.968  33.018  1.00  0.00    -0.289 OA
HETATM    3  C1  UNK     1      18.591   4.370  31.865  1.00  0.00     0.198 C 
HETATM    4  C2  UNK     1      19.801   5.281  31.640  1.00  0.00     0.227 C 
HETATM    5  C4  UNK     1      19.789   6.396  32.658  1.00  0.00     0.196 C 
HETATM    6  C5  UNK     1      18.459   6.812  33.153  1.00  0.00     0.079 A 
HETATM    7  C6  UNK     1      17.319   6.158  32.679  1.00  0.00     0.089 A 
HETATM    8  C7  UNK     1      18.341   7.877  34.049  1.00  0.00     0.085 A 
HETATM    9  C10 UNK     1      16.054   6.592  33.078  1.00  0.00     0.074 A 
HETATM   10  C11 UNK     1      17.074   8.294  34.460  1.00  0.00     0.074 A 
HETATM   11  C12 UNK     1      15.933   7.656  33.972  1.00  0.00     0.071 A 
ENDROOT
BRANCH   3  12
HETATM   12  C3  UNK     1      18.557   3.224  30.872  1.00  0.00    -0.023 A 
HETATM   13  C8  UNK     1      18.989   1.956  31.257  1.00  0.00     0.049 A 
HETATM   14  C13 UNK     1      18.957   0.903  30.343  1.00  0.00     0.099 A 
HETATM   15  C15 UNK     1      18.495   1.118  29.046  1.00  0.00     0.098 A 
HETATM   16  C14 UNK     1      18.063   2.388  28.662  1.00  0.00     0.040 A 
HETATM   17  C9  UNK     1      18.094   3.441  29.574  1.00  0.00     0.013 A 
BRANCH  14  18
HETATM   18  O6  UNK     1      19.381  -0.333  30.732  1.00  0.00    -0.358 OA
HETATM   19  H11 UNK     1      18.711  -0.711  31.329  1.00  0.00     0.217 HD
ENDBRANCH  14  18
BRANCH  15  20
HETATM   20  O7  UNK     1      18.459   0.097  28.144  1.00  0.00    -0.358 OA
HETATM   21  H12 UNK     1      17.785   0.292  27.471  1.00  0.00     0.217 HD
ENDBRANCH  15  20
ENDBRANCH   3  12
BRANCH   4  22
HETATM   22  O2  UNK     1      19.785   5.900  30.364  1.00  0.00    -0.385 OA
HETATM   23  H6  UNK     1      19.664   5.208  29.692  1.00  0.00     0.210 HD
ENDBRANCH   4  22
BRANCH  11  24
HETATM   24  O5  UNK     1      14.700   8.072  34.370  1.00  0.00    -0.361 OA
HETATM   25  H10 UNK     1      14.800   8.838  34.960  1.00  0.00     0.217 HD
ENDBRANCH  11  24
BRANCH   8  26
HETATM   26  O4  UNK     1      19.419   8.546  34.546  1.00  0.00    -0.360 OA
HETATM   27  H9  UNK     1      19.834   8.038  35.260  1.00  0.00     0.217 HD
ENDBRANCH   8  26
TORSDOF 6
ENDMDL
MODEL 7
REMARK VINA RESULT:      -7.8      5.332      7.481
REMARK  6 active torsions:
REMARK  status: ('A' for Active; 'I' for Inactive)
REMARK    1  A    between atoms: C2_9  and  O2_2 
REMARK    2  A    between atoms: C7_14  and  O4_4 
REMARK    3  A    between atoms: C12_19  and  O5_5 
REMARK    4  A    between atoms: C13_20  and  O6_6 
REMARK    5  A    between atoms: C15_22  and  O7_7 
REMARK    6  A    between atoms: C1_8  and  C3_10 
ROOT
HETATM    1  O1  UNK     1      18.163   3.697  33.392  1.00  0.00    -0.337 OA
HETATM    2  O3  UNK     1      18.914   2.171  29.655  1.00  0.00    -0.289 OA
HETATM    3  C1  UNK     1      17.662   4.370  32.225  1.00  0.00     0.198 C 
HETATM    4  C2  UNK     1      18.560   4.122  31.010  1.00  0.00     0.227 C 
HETATM    5  C4  UNK     1      18.676   2.636  30.763  1.00  0.00     0.196 C 
HETATM    6  C5  UNK     1      18.550   1.767  31.952  1.00  0.00     0.079 A 
HETATM    7  C6  UNK     1      18.321   2.348  33.202  1.00  0.00     0.089 A 
HETATM    8  C7  UNK     1      18.704   0.383  31.835  1.00  0.00     0.085 A 
HETATM    9  C10 UNK     1      18.279   1.546  34.343  1.00  0.00     0.074 A 
HETATM   10  C11 UNK     1      18.641  -0.416  32.977  1.00  0.00     0.074 A 
HETATM   11  C12 UNK     1      18.434   0.164  34.229  1.00  0.00     0.071 A 
ENDROOT
BRANCH   3  12
HETATM   12  C3  UNK     1      17.505   5.851  32.516  1.00  0.00    -0.023 A 
HETATM   13  C8  UNK     1      16.675   6.633  31.714  1.00  0.00     0.049 A 
HETATM   14  C13 UNK     1      16.532   7.994  31.981  1.00  0.00     0.099 A 
HETATM   15  C15 UNK     1      17.217   8.572  33.048  1.00  0.00     0.098 A 
HETATM   16  C14 UNK     1      18.048   7.788  33.850  1.00  0.00     0.040 A 
HETATM   17  C9  UNK     1      18.192   6.428  33.583  1.00  0.00     0.013 A 
BRANCH  14  18
HETATM   18  O6  UNK     1      15.716   8.749  31.191  1.00  0.00    -0.358 OA
HETATM   19  H11 UNK     1      15.284   9.419  31.750  1.00  0.00     0.217 HD
ENDBRANCH  14  18
BRANCH  15  20
HETATM   20  O7  UNK     1      17.085   9.901  33.319  1.00  0.00    -0.358 OA
HETATM   21  H12 UNK     1      16.294  10.035  33.869  1.00  0.00     0.217 HD
ENDBRANCH  15  20
ENDBRANCH   3  12
BRANCH   4  22
HETATM   22  O2  UNK     1      19.881   4.602  31.203  1.00  0.00    -0.385 OA
HETATM   23  H6  UNK     1      20.498   3.870  31.032  1.00  0.00     0.210 HD
ENDBRANCH   4  22
BRANCH  11  24
HETATM   24  O5  UNK     1      18.380  -0.620  35.340  1.00  0.00    -0.361 OA
HETATM   25  H10 UNK     1      19.163  -0.443  35.889  1.00  0.00     0.217 HD
ENDBRANCH  11  24
BRANCH   8  26
HETATM   26  O4  UNK     1      18.924  -0.235  30.641  1.00  0.00    -0.360 OA
HETATM   27  H9  UNK     1      19.496   0.308  30.077  1.00  0.00     0.217 HD
ENDBRANCH   8  26
TORSDOF 6
ENDMDL
MODEL 8
REMARK VINA RESULT:      -7.8     15.966     18.890
REMARK  6 active torsions:
REMARK  status: ('A' for Active; 'I' for Inactive)
REMARK    1  A    between atoms: C2_9  and  O2_2 
REMARK    2  A    between atoms: C7_14  and  O4_4 
REMARK    3  A    between atoms: C12_19  and  O5_5 
REMARK    4  A    between atoms: C13_20  and  O6_6 
REMARK    5  A    between atoms: C15_22  and  O7_7 
REMARK    6  A    between atoms: C1_8  and  C3_10 
ROOT
HETATM    1  O1  UNK     1      20.404  -2.305  16.357  1.00  0.00    -0.337 OA
HETATM    2  O3  UNK     1      18.019  -3.512  13.242  1.00  0.00    -0.289 OA
HETATM    3  C1  UNK     1      19.094  -1.739  16.193  1.00  0.00     0.198 C 
HETATM    4  C2  UNK     1      18.668  -1.737  14.721  1.00  0.00     0.227 C 
HETATM    5  C4  UNK     1      18.715  -3.145  14.180  1.00  0.00     0.196 C 
HETATM    6  C5  UNK     1      19.703  -4.051  14.805  1.00  0.00     0.079 A 
HETATM    7  C6  UNK     1      20.506  -3.573  15.844  1.00  0.00     0.089 A 
HETATM    8  C7  UNK     1      19.865  -5.355  14.332  1.00  0.00     0.085 A 
HETATM    9  C10 UNK     1      21.495  -4.392  16.390  1.00  0.00     0.074 A 
HETATM   10  C11 UNK     1      20.842  -6.176  14.895  1.00  0.00     0.074 A 
HETATM   11  C12 UNK     1      21.660  -5.694  15.918  1.00  0.00     0.071 A 
ENDROOT
BRANCH   3  12
HETATM   12  C3  UNK     1      19.058  -0.345  16.791  1.00  0.00    -0.023 A 
HETATM   13  C8  UNK     1      19.161   0.771  15.963  1.00  0.00     0.049 A 
HETATM   14  C13 UNK     1      19.129   2.052  16.513  1.00  0.00     0.099 A 
HETATM   15  C15 UNK     1      18.993   2.215  17.891  1.00  0.00     0.098 A 
HETATM   16  C14 UNK     1      18.889   1.098  18.719  1.00  0.00     0.040 A 
HETATM   17  C9  UNK     1      18.922  -0.183  18.169  1.00  0.00     0.013 A 
BRANCH  14  18
HETATM   18  O6  UNK     1      19.230   3.135  15.693  1.00  0.00    -0.358 OA
HETATM   19  H11 UNK     1      19.591   3.877  16.211  1.00  0.00     0.217 HD
ENDBRANCH  14  18
BRANCH  15  20
HETATM   20  O7  UNK     1      18.959   3.462  18.441  1.00  0.00    -0.358 OA
HETATM   21  H12 UNK     1      18.301   3.999  17.968  1.00  0.00     0.217 HD
ENDBRANCH  15  20
ENDBRANCH   3  12
BRANCH   4  22
HETATM   22  O2  UNK     1      19.534  -0.963  13.906  1.00  0.00    -0.385 OA
HETATM   23  H6  UNK     1      20.437  -1.046  14.258  1.00  0.00     0.210 HD
ENDBRANCH   4  22
BRANCH  11  24
HETATM   24  O5  UNK     1      22.616  -6.497  16.458  1.00  0.00    -0.361 OA
HETATM   25  H10 UNK     1      22.281  -6.872  17.290  1.00  0.00     0.217 HD
ENDBRANCH  11  24
BRANCH   8  26
HETATM   26  O4  UNK     1      19.106  -5.873  13.325  1.00  0.00    -0.360 OA
HETATM   27  H9  UNK     1      19.149  -6.841  13.332  1.00  0.00     0.217 HD
ENDBRANCH   8  26
TORSDOF 6
ENDMDL
MODEL 9
REMARK VINA RESULT:      -7.8     25.728     27.004
REMARK  6 active torsions:
REMARK  status: ('A' for Active; 'I' for Inactive)
REMARK    1  A    between atoms: C2_9  and  O2_2 
REMARK    2  A    between atoms: C7_14  and  O4_4 
REMARK    3  A    between atoms: C12_19  and  O5_5 
REMARK    4  A    between atoms: C13_20  and  O6_6 
REMARK    5  A    between atoms: C15_22  and  O7_7 
REMARK    6  A    between atoms: C1_8  and  C3_10 
ROOT
HETATM    1  O1  UNK     1      13.317   7.809   9.192  1.00  0.00    -0.337 OA
HETATM    2  O3  UNK     1      16.315   5.013   9.394  1.00  0.00    -0.289 OA
HETATM    3  C1  UNK     1      13.014   6.456   9.565  1.00  0.00     0.198 C 
HETATM    4  C2  UNK     1      14.003   5.469   8.936  1.00  0.00     0.227 C 
HETATM    5  C4  UNK     1      15.410   5.836   9.345  1.00  0.00     0.196 C 
HETATM    6  C5  UNK     1      15.656   7.268   9.621  1.00  0.00     0.079 A 
HETATM    7  C6  UNK     1      14.600   8.176   9.509  1.00  0.00     0.089 A 
HETATM    8  C7  UNK     1      16.939   7.714   9.945  1.00  0.00     0.085 A 
HETATM    9  C10 UNK     1      14.836   9.540   9.690  1.00  0.00     0.074 A 
HETATM   10  C11 UNK     1      17.165   9.076  10.145  1.00  0.00     0.074 A 
HETATM   11  C12 UNK     1      16.116   9.988  10.013  1.00  0.00     0.071 A 
ENDROOT
BRANCH   3  12
HETATM   12  C3  UNK     1      11.580   6.129   9.192  1.00  0.00    -0.023 A 
HETATM   13  C8  UNK     1      10.932   5.053   9.796  1.00  0.00     0.049 A 
HETATM   14  C13 UNK     1       9.614   4.753   9.453  1.00  0.00     0.099 A 
HETATM   15  C15 UNK     1       8.946   5.529   8.507  1.00  0.00     0.098 A 
HETATM   16  C14 UNK     1       9.596   6.606   7.903  1.00  0.00     0.040 A 
HETATM   17  C9  UNK     1      10.913   6.906   8.246  1.00  0.00     0.013 A 
BRANCH  14  18
HETATM   18  O6  UNK     1       8.990   3.699  10.051  1.00  0.00    -0.358 OA
HETATM   19  H11 UNK     1       9.627   2.965  10.115  1.00  0.00     0.217 HD
ENDBRANCH  14  18
BRANCH  15  20
HETATM   20  O7  UNK     1       7.658   5.246   8.164  1.00  0.00    -0.358 OA
HETATM   21  H12 UNK     1       7.077   5.454   8.915  1.00  0.00     0.217 HD
ENDBRANCH  15  20
ENDBRANCH   3  12
BRANCH   4  22
HETATM   22  O2  UNK     1      13.974   5.501   7.518  1.00  0.00    -0.385 OA
HETATM   23  H6  UNK     1      14.743   6.011   7.210  1.00  0.00     0.210 HD
ENDBRANCH   4  22
BRANCH  11  24
HETATM   24  O5  UNK     1      16.344  11.316  10.202  1.00  0.00    -0.361 OA
HETATM   25  H10 UNK     1      15.560  11.715  10.615  1.00  0.00     0.217 HD
ENDBRANCH  11  24
BRANCH   8  26
HETATM   26  O4  UNK     1      18.002   6.871  10.072  1.00  0.00    -0.360 OA
HETATM   27  H9  UNK     1      18.306   6.574   9.201  1.00  0.00     0.217 HD
ENDBRANCH   8  26
TORSDOF 6
ENDMDL
MODEL 10
REMARK VINA RESULT:      -7.7     26.925     27.858
REMARK  6 active torsions:
REMARK  status: ('A' for Active; 'I' for Inactive)
REMARK    1  A    between atoms: C2_9  and  O2_2 
REMARK    2  A    between atoms: C7_14  and  O4_4 
REMARK    3  A    between atoms: C12_19  and  O5_5 
REMARK    4  A    between atoms: C13_20  and  O6_6 
REMARK    5  A    between atoms: C15_22  and  O7_7 
REMARK    6  A    between atoms: C1_8  and  C3_10 
ROOT
HETATM    1  O1  UNK     1       7.919   6.630  10.113  1.00  0.00    -0.337 OA
HETATM    2  O3  UNK     1       5.487   3.327  10.279  1.00  0.00    -0.289 OA
HETATM    3  C1  UNK     1       7.732   5.814   8.945  1.00  0.00     0.198 C 
HETATM    4  C2  UNK     1       7.431   4.361   9.323  1.00  0.00     0.227 C 
HETATM    5  C4  UNK     1       6.211   4.313  10.211  1.00  0.00     0.196 C 
HETATM    6  C5  UNK     1       5.970   5.505  11.052  1.00  0.00     0.079 A 
HETATM    7  C6  UNK     1       6.850   6.587  10.970  1.00  0.00     0.089 A 
HETATM    8  C7  UNK     1       4.902   5.530  11.952  1.00  0.00     0.085 A 
HETATM    9  C10 UNK     1       6.679   7.685  11.815  1.00  0.00     0.074 A 
HETATM   10  C11 UNK     1       4.724   6.639  12.779  1.00  0.00     0.074 A 
HETATM   11  C12 UNK     1       5.614   7.712  12.715  1.00  0.00     0.071 A 
ENDROOT
BRANCH   3  12
HETATM   12  C3  UNK     1       8.949   5.921   8.045  1.00  0.00    -0.023 A 
HETATM   13  C8  UNK     1      10.228   5.912   8.598  1.00  0.00     0.049 A 
HETATM   14  C13 UNK     1      11.345   6.010   7.770  1.00  0.00     0.099 A 
HETATM   15  C15 UNK     1      11.183   6.118   6.390  1.00  0.00     0.098 A 
HETATM   16  C14 UNK     1       9.903   6.128   5.837  1.00  0.00     0.040 A 
HETATM   17  C9  UNK     1       8.785   6.029   6.664  1.00  0.00     0.013 A 
BRANCH  14  18
HETATM   18  O6  UNK     1      12.591   5.999   8.323  1.00  0.00    -0.358 OA
HETATM   19  H11 UNK     1      12.846   5.072   8.480  1.00  0.00     0.217 HD
ENDBRANCH  14  18
BRANCH  15  20
HETATM   20  O7  UNK     1      12.268   6.215   5.570  1.00  0.00    -0.358 OA
HETATM   21  H12 UNK     1      12.039   6.770   4.806  1.00  0.00     0.217 HD
ENDBRANCH  15  20
ENDBRANCH   3  12
BRANCH   4  22
HETATM   22  O2  UNK     1       8.487   3.760  10.056  1.00  0.00    -0.385 OA
HETATM   23  H6  UNK     1       9.190   3.516   9.431  1.00  0.00     0.210 HD
ENDBRANCH   4  22
BRANCH  11  24
HETATM   24  O5  UNK     1       5.440   8.788  13.530  1.00  0.00    -0.361 OA
HETATM   25  H10 UNK     1       4.745   9.358  13.157  1.00  0.00     0.217 HD
ENDBRANCH  11  24
BRANCH   8  26
HETATM   26  O4  UNK     1       4.012   4.505  12.068  1.00  0.00    -0.360 OA
HETATM   27  H9  UNK     1       3.641   4.277  11.202  1.00  0.00     0.217 HD
ENDBRANCH   8  26
TORSDOF 6
ENDMDL
