MODEL 1
REMARK VINA RESULT:      -8.9      0.000      0.000
REMARK  7 active torsions:
REMARK  status: ('A' for Active; 'I' for Inactive)
REMARK    1  A    between atoms: C4_11  and  O1_2 
REMARK    2  A    between atoms: C10_17  and  O3_4 
REMARK    3  A    between atoms: C1_8  and  N1_6 
REMARK    4  A    between atoms: C9_16  and  N1_6 
REMARK    5  A    between atoms: C7_14  and  N2_7 
REMARK    6  A    between atoms: C9_16  and  N2_7 
REMARK    7  A    between atoms: C1_8  and  C2_9 
ROOT
HETATM    1  S1  UNK     1      17.881   1.839  28.846  1.00  0.00    -0.041 SA
HETATM    2  C9  UNK     1      18.917   2.474  30.006  1.00  0.00     0.172 C 
ENDROOT
BRANCH   2   3
HETATM    3  N1  UNK     1      19.382   1.599  30.980  1.00  0.00    -0.359 N 
HETATM    4  H5  UNK     1      19.840   2.027  31.779  1.00  0.00     0.162 HD
BRANCH   3   5
HETATM    5  C1  UNK     1      19.223   0.158  31.008  1.00  0.00     0.116 C 
HETATM    6  C3  UNK     1      20.352  -0.492  30.211  1.00  0.00     0.037 C 
BRANCH   5   7
HETATM    7  C2  UNK     1      19.150  -0.333  32.438  1.00  0.00     0.000 A 
HETATM    8  C4  UNK     1      18.482   0.415  33.393  1.00  0.00     0.076 A 
HETATM    9  C11 UNK     1      18.425  -0.052  34.706  1.00  0.00     0.040 A 
HETATM   10  C15 UNK     1      19.036  -1.259  35.044  1.00  0.00     0.039 A 
HETATM   11  C10 UNK     1      19.705  -2.000  34.070  1.00  0.00     0.069 A 
HETATM   12  C5  UNK     1      19.763  -1.534  32.756  1.00  0.00     0.048 A 
BRANCH   8  13
HETATM   13  O1  UNK     1      17.882   1.596  33.079  1.00  0.00    -0.355 OA
HETATM   14  C20 UNK     1      18.023   2.664  34.014  1.00  0.00     0.210 C 
ENDBRANCH   8  13
BRANCH  11  15
HETATM   15  O3  UNK     1      20.301  -3.178  34.400  1.00  0.00    -0.356 OA
HETATM   16  C21 UNK     1      20.102  -3.655  35.730  1.00  0.00     0.210 C 
ENDBRANCH  11  15
ENDBRANCH   5   7
ENDBRANCH   3   5
ENDBRANCH   2   3
BRANCH   2  17
HETATM   17  N2  UNK     1      19.409   3.789  30.094  1.00  0.00    -0.333 N 
HETATM   18  H9  UNK     1      19.749   4.160  29.213  1.00  0.00     0.168 HD
BRANCH  17  19
HETATM   19  C7  UNK     1      19.240   4.798  31.042  1.00  0.00     0.036 A 
HETATM   20  C13 UNK     1      17.975   5.082  31.544  1.00  0.00     0.067 A 
HETATM   21  C8  UNK     1      17.829   6.095  32.493  1.00  0.00     0.092 A 
HETATM   22  C6  UNK     1      18.914   6.839  32.960  1.00  0.00     0.004 A 
HETATM   23  O2  UNK     1      16.523   6.336  32.964  1.00  0.00    -0.275 OA
HETATM   24  C12 UNK     1      18.669   7.887  33.961  1.00  0.00    -0.043 A 
HETATM   25  C14 UNK     1      20.181   6.537  32.444  1.00  0.00     0.017 A 
HETATM   26  C17 UNK     1      17.416   8.095  34.390  1.00  0.00     0.090 A 
HETATM   27  C18 UNK     1      19.814   8.705  34.483  1.00  0.00     0.049 C 
HETATM   28  C19 UNK     1      16.262   7.318  33.907  1.00  0.00     0.288 A 
HETATM   29  O4  UNK     1      15.129   7.536  34.323  1.00  0.00    -0.260 OA
HETATM   30  C16 UNK     1      20.342   5.524  31.492  1.00  0.00     0.030 A 
ENDBRANCH  17  19
ENDBRANCH   2  17
TORSDOF 7
ENDMDL
MODEL 2
REMARK VINA RESULT:      -8.8      2.306      4.147
REMARK  7 active torsions:
REMARK  status: ('A' for Active; 'I' for Inactive)
REMARK    1  A    between atoms: C4_11  and  O1_2 
REMARK    2  A    between atoms: C10_17  and  O3_4 
REMARK    3  A    between atoms: C1_8  and  N1_6 
REMARK    4  A    between atoms: C9_16  and  N1_6 
REMARK    5  A    between atoms: C7_14  and  N2_7 
REMARK    6  A    between atoms: C9_16  and  N2_7 
REMARK    7  A    between atoms: C1_8  and  C2_9 
ROOT
HETATM    1  S1  UNK     1      18.608   2.356  35.308  1.00  0.00    -0.041 SA
HETATM    2  C9  UNK     1      18.203   2.528  33.687  1.00  0.00     0.172 C 
ENDROOT
BRANCH   2   3
HETATM    3  N1  UNK     1      18.033   1.359  32.955  1.00  0.00    -0.359 N 
HETATM    4  H5  UNK     1      17.219   1.329  32.348  1.00  0.00     0.162 HD
BRANCH   3   5
HETATM    5  C1  UNK     1      18.923   0.215  32.915  1.00  0.00     0.116 C 
HETATM    6  C3  UNK     1      18.213  -1.001  33.509  1.00  0.00     0.037 C 
BRANCH   5   7
HETATM    7  C2  UNK     1      19.413  -0.019  31.503  1.00  0.00     0.000 A 
HETATM    8  C4  UNK     1      20.440  -0.918  31.267  1.00  0.00     0.076 A 
HETATM    9  C11 UNK     1      20.880  -1.120  29.959  1.00  0.00     0.040 A 
HETATM   10  C15 UNK     1      20.288  -0.423  28.907  1.00  0.00     0.039 A 
HETATM   11  C10 UNK     1      19.255   0.480  29.162  1.00  0.00     0.069 A 
HETATM   12  C5  UNK     1      18.814   0.683  30.470  1.00  0.00     0.048 A 
BRANCH   8  13
HETATM   13  O1  UNK     1      21.030  -1.607  32.283  1.00  0.00    -0.355 OA
HETATM   14  C20 UNK     1      21.067  -3.028  32.167  1.00  0.00     0.210 C 
ENDBRANCH   8  13
BRANCH  11  15
HETATM   15  O3  UNK     1      18.676   1.161  28.136  1.00  0.00    -0.356 OA
HETATM   16  C21 UNK     1      17.811   2.242  28.481  1.00  0.00     0.210 C 
ENDBRANCH  11  15
ENDBRANCH   5   7
ENDBRANCH   3   5
ENDBRANCH   2   3
BRANCH   2  17
HETATM   17  N2  UNK     1      17.976   3.720  32.977  1.00  0.00    -0.333 N 
HETATM   18  H9  UNK     1      17.277   3.636  32.246  1.00  0.00     0.168 HD
BRANCH  17  19
HETATM   19  C7  UNK     1      18.262   5.056  33.260  1.00  0.00     0.036 A 
HETATM   20  C13 UNK     1      17.255   6.013  33.204  1.00  0.00     0.067 A 
HETATM   21  C8  UNK     1      17.562   7.344  33.492  1.00  0.00     0.092 A 
HETATM   22  C6  UNK     1      18.852   7.753  33.835  1.00  0.00     0.004 A 
HETATM   23  O2  UNK     1      16.500   8.267  33.418  1.00  0.00    -0.275 OA
HETATM   24  C12 UNK     1      19.086   9.174  34.123  1.00  0.00    -0.043 A 
HETATM   25  C14 UNK     1      19.852   6.773  33.888  1.00  0.00     0.017 A 
HETATM   26  C17 UNK     1      18.057  10.031  34.044  1.00  0.00     0.090 A 
HETATM   27  C18 UNK     1      20.461   9.647  34.496  1.00  0.00     0.049 C 
HETATM   28  C19 UNK     1      16.691   9.614  33.683  1.00  0.00     0.288 A 
HETATM   29  O4  UNK     1      15.774  10.426  33.622  1.00  0.00    -0.260 OA
HETATM   30  C16 UNK     1      19.559   5.435  33.602  1.00  0.00     0.030 A 
ENDBRANCH  17  19
ENDBRANCH   2  17
TORSDOF 7
ENDMDL
MODEL 3
REMARK VINA RESULT:      -8.8      4.863     10.678
REMARK  7 active torsions:
REMARK  status: ('A' for Active; 'I' for Inactive)
REMARK    1  A    between atoms: C4_11  and  O1_2 
REMARK    2  A    between atoms: C10_17  and  O3_4 
REMARK    3  A    between atoms: C1_8  and  N1_6 
REMARK    4  A    between atoms: C9_16  and  N1_6 
REMARK    5  A    between atoms: C7_14  and  N2_7 
REMARK    6  A    between atoms: C9_16  and  N2_7 
REMARK    7  A    between atoms: C1_8  and  C2_9 
ROOT
HETATM    1  S1  UNK     1      18.294  -1.309  37.323  1.00  0.00    -0.041 SA
HETATM    2  C9  UNK     1      18.993  -1.910  35.919  1.00  0.00     0.172 C 
ENDROOT
BRANCH   2   3
HETATM    3  N1  UNK     1      19.220  -1.003  34.892  1.00  0.00    -0.359 N 
HETATM    4  H5  UNK     1      20.164  -0.632  34.828  1.00  0.00     0.162 HD
BRANCH   3   5
HETATM    5  C1  UNK     1      18.280  -0.586  33.870  1.00  0.00     0.116 C 
HETATM    6  C3  UNK     1      17.563   0.683  34.328  1.00  0.00     0.037 C 
BRANCH   5   7
HETATM    7  C2  UNK     1      18.988  -0.418  32.543  1.00  0.00     0.000 A 
HETATM    8  C4  UNK     1      19.851  -1.402  32.091  1.00  0.00     0.076 A 
HETATM    9  C11 UNK     1      20.496  -1.231  30.866  1.00  0.00     0.040 A 
HETATM   10  C15 UNK     1      20.269  -0.081  30.112  1.00  0.00     0.039 A 
HETATM   11  C10 UNK     1      19.396   0.901  30.582  1.00  0.00     0.069 A 
HETATM   12  C5  UNK     1      18.750   0.731  31.807  1.00  0.00     0.048 A 
BRANCH   8  13
HETATM   13  O1  UNK     1      20.085  -2.531  32.816  1.00  0.00    -0.355 OA
HETATM   14  C20 UNK     1      21.122  -3.395  32.353  1.00  0.00     0.210 C 
ENDBRANCH   8  13
BRANCH  11  15
HETATM   15  O3  UNK     1      19.173   2.024  29.846  1.00  0.00    -0.356 OA
HETATM   16  C21 UNK     1      18.009   2.038  29.021  1.00  0.00     0.210 C 
ENDBRANCH  11  15
ENDBRANCH   5   7
ENDBRANCH   3   5
ENDBRANCH   2   3
BRANCH   2  17
HETATM   17  N2  UNK     1      19.416  -3.227  35.664  1.00  0.00    -0.333 N 
HETATM   18  H9  UNK     1      19.651  -3.402  34.692  1.00  0.00     0.168 HD
BRANCH  17  19
HETATM   19  C7  UNK     1      19.884  -4.245  36.494  1.00  0.00     0.036 A 
HETATM   20  C13 UNK     1      19.197  -5.452  36.576  1.00  0.00     0.067 A 
HETATM   21  C8  UNK     1      19.683  -6.459  37.412  1.00  0.00     0.092 A 
HETATM   22  C6  UNK     1      20.841  -6.299  38.174  1.00  0.00     0.004 A 
HETATM   23  O2  UNK     1      18.944  -7.657  37.452  1.00  0.00    -0.275 OA
HETATM   24  C12 UNK     1      21.282  -7.411  39.027  1.00  0.00    -0.043 A 
HETATM   25  C14 UNK     1      21.520  -5.077  38.077  1.00  0.00     0.017 A 
HETATM   26  C17 UNK     1      20.558  -8.539  39.046  1.00  0.00     0.090 A 
HETATM   27  C18 UNK     1      22.523  -7.271  39.859  1.00  0.00     0.049 C 
HETATM   28  C19 UNK     1      19.334  -8.723  38.247  1.00  0.00     0.288 A 
HETATM   29  O4  UNK     1      18.699  -9.771  38.290  1.00  0.00    -0.260 OA
HETATM   30  C16 UNK     1      21.045  -4.058  37.243  1.00  0.00     0.030 A 
ENDBRANCH  17  19
ENDBRANCH   2  17
TORSDOF 7
ENDMDL
MODEL 4
REMARK VINA RESULT:      -8.5      2.286      8.888
REMARK  7 active torsions:
REMARK  status: ('A' for Active; 'I' for Inactive)
REMARK    1  A    between atoms: C4_11  and  O1_2 
REMARK    2  A    between atoms: C10_17  and  O3_4 
REMARK    3  A    between atoms: C1_8  and  N1_6 
REMARK    4  A    between atoms: C9_16  and  N1_6 
REMARK    5  A    between atoms: C7_14  and  N2_7 
REMARK    6  A    between atoms: C9_16  and  N2_7 
REMARK    7  A    between atoms: C1_8  and  C2_9 
ROOT
HETATM    1  S1  UNK     1      19.122   5.965  30.404  1.00  0.00    -0.041 SA
HETATM    2  C9  UNK     1      18.061   5.382  31.568  1.00  0.00     0.172 C 
ENDROOT
BRANCH   2   3
HETATM    3  N1  UNK     1      17.391   6.327  32.336  1.00  0.00    -0.359 N 
HETATM    4  H5  UNK     1      16.539   6.705  31.931  1.00  0.00     0.162 HD
BRANCH   3   5
HETATM    5  C1  UNK     1      17.739   6.776  33.670  1.00  0.00     0.116 C 
HETATM    6  C3  UNK     1      19.242   6.610  33.885  1.00  0.00     0.037 C 
BRANCH   5   7
HETATM    7  C2  UNK     1      17.265   8.197  33.885  1.00  0.00     0.000 A 
HETATM    8  C4  UNK     1      15.922   8.452  34.104  1.00  0.00     0.076 A 
HETATM    9  C11 UNK     1      15.502   9.768  34.299  1.00  0.00     0.040 A 
HETATM   10  C15 UNK     1      16.430  10.808  34.273  1.00  0.00     0.039 A 
HETATM   11  C10 UNK     1      17.779  10.533  34.051  1.00  0.00     0.069 A 
HETATM   12  C5  UNK     1      18.201   9.218  33.855  1.00  0.00     0.048 A 
BRANCH   8  13
HETATM   13  O1  UNK     1      15.002   7.448  34.131  1.00  0.00    -0.355 OA
HETATM   14  C20 UNK     1      13.996   7.462  33.120  1.00  0.00     0.210 C 
ENDBRANCH   8  13
BRANCH  11  15
HETATM   15  O3  UNK     1      18.686  11.549  34.026  1.00  0.00    -0.356 OA
HETATM   16  C21 UNK     1      18.174  12.871  33.871  1.00  0.00     0.210 C 
ENDBRANCH  11  15
ENDBRANCH   5   7
ENDBRANCH   3   5
ENDBRANCH   2   3
BRANCH   2  17
HETATM   17  N2  UNK     1      17.734   4.043  31.843  1.00  0.00    -0.333 N 
HETATM   18  H9  UNK     1      16.794   3.914  32.201  1.00  0.00     0.168 HD
BRANCH  17  19
HETATM   19  C7  UNK     1      18.296   2.832  31.436  1.00  0.00     0.036 A 
HETATM   20  C13 UNK     1      18.512   1.817  32.361  1.00  0.00     0.067 A 
HETATM   21  C8  UNK     1      19.074   0.612  31.934  1.00  0.00     0.092 A 
HETATM   22  C6  UNK     1      19.431   0.388  30.603  1.00  0.00     0.004 A 
HETATM   23  O2  UNK     1      19.269  -0.378  32.917  1.00  0.00    -0.275 OA
HETATM   24  C12 UNK     1      20.016  -0.909  30.240  1.00  0.00    -0.043 A 
HETATM   25  C14 UNK     1      19.203   1.423  29.686  1.00  0.00     0.017 A 
HETATM   26  C17 UNK     1      20.191  -1.833  31.197  1.00  0.00     0.090 A 
HETATM   27  C18 UNK     1      20.410  -1.182  28.818  1.00  0.00     0.049 C 
HETATM   28  C19 UNK     1      19.820  -1.611  32.605  1.00  0.00     0.288 A 
HETATM   29  O4  UNK     1      19.994  -2.479  33.453  1.00  0.00    -0.260 OA
HETATM   30  C16 UNK     1      18.640   2.635  30.100  1.00  0.00     0.030 A 
ENDBRANCH  17  19
ENDBRANCH   2  17
TORSDOF 7
ENDMDL
MODEL 5
REMARK VINA RESULT:      -8.5      2.320      3.601
REMARK  7 active torsions:
REMARK  status: ('A' for Active; 'I' for Inactive)
REMARK    1  A    between atoms: C4_11  and  O1_2 
REMARK    2  A    between atoms: C10_17  and  O3_4 
REMARK    3  A    between atoms: C1_8  and  N1_6 
REMARK    4  A    between atoms: C9_16  and  N1_6 
REMARK    5  A    between atoms: C7_14  and  N2_7 
REMARK    6  A    between atoms: C9_16  and  N2_7 
REMARK    7  A    between atoms: C1_8  and  C2_9 
ROOT
HETATM    1  S1  UNK     1      18.876   2.330  35.798  1.00  0.00    -0.041 SA
HETATM    2  C9  UNK     1      18.177   2.377  34.271  1.00  0.00     0.172 C 
ENDROOT
BRANCH   2   3
HETATM    3  N1  UNK     1      17.660   1.184  33.781  1.00  0.00    -0.359 N 
HETATM    4  H5  UNK     1      17.197   1.239  32.878  1.00  0.00     0.162 HD
BRANCH   3   5
HETATM    5  C1  UNK     1      17.770  -0.130  34.384  1.00  0.00     0.116 C 
HETATM    6  C3  UNK     1      16.395  -0.796  34.402  1.00  0.00     0.037 C 
BRANCH   5   7
HETATM    7  C2  UNK     1      18.815  -0.953  33.661  1.00  0.00     0.000 A 
HETATM    8  C4  UNK     1      19.588  -1.861  34.365  1.00  0.00     0.076 A 
HETATM    9  C11 UNK     1      20.548  -2.610  33.683  1.00  0.00     0.040 A 
HETATM   10  C15 UNK     1      20.720  -2.440  32.311  1.00  0.00     0.039 A 
HETATM   11  C10 UNK     1      19.933  -1.521  31.617  1.00  0.00     0.069 A 
HETATM   12  C5  UNK     1      18.973  -0.771  32.297  1.00  0.00     0.048 A 
BRANCH   8  13
HETATM   13  O1  UNK     1      19.434  -2.037  35.706  1.00  0.00    -0.355 OA
HETATM   14  C20 UNK     1      20.306  -2.970  36.342  1.00  0.00     0.210 C 
ENDBRANCH   8  13
BRANCH  11  15
HETATM   15  O3  UNK     1      20.100  -1.355  30.276  1.00  0.00    -0.356 OA
HETATM   16  C21 UNK     1      20.100  -0.017  29.783  1.00  0.00     0.210 C 
ENDBRANCH  11  15
ENDBRANCH   5   7
ENDBRANCH   3   5
ENDBRANCH   2   3
BRANCH   2  17
HETATM   17  N2  UNK     1      18.016   3.493  33.432  1.00  0.00    -0.333 N 
HETATM   18  H9  UNK     1      17.361   3.343  32.671  1.00  0.00     0.168 HD
BRANCH  17  19
HETATM   19  C7  UNK     1      18.308   4.847  33.595  1.00  0.00     0.036 A 
HETATM   20  C13 UNK     1      17.319   5.804  33.400  1.00  0.00     0.067 A 
HETATM   21  C8  UNK     1      17.633   7.154  33.570  1.00  0.00     0.092 A 
HETATM   22  C6  UNK     1      18.912   7.582  33.930  1.00  0.00     0.004 A 
HETATM   23  O2  UNK     1      16.588   8.076  33.359  1.00  0.00    -0.275 OA
HETATM   24  C12 UNK     1      19.153   9.022  34.088  1.00  0.00    -0.043 A 
HETATM   25  C14 UNK     1      19.894   6.602  34.124  1.00  0.00     0.017 A 
HETATM   26  C17 UNK     1      18.142   9.877  33.879  1.00  0.00     0.090 A 
HETATM   27  C18 UNK     1      20.518   9.515  34.474  1.00  0.00     0.049 C 
HETATM   28  C19 UNK     1      16.787   9.441  33.499  1.00  0.00     0.288 A 
HETATM   29  O4  UNK     1      15.886  10.252  33.317  1.00  0.00    -0.260 OA
HETATM   30  C16 UNK     1      19.594   5.245  33.957  1.00  0.00     0.030 A 
ENDBRANCH  17  19
ENDBRANCH   2  17
TORSDOF 7
ENDMDL
MODEL 6
REMARK VINA RESULT:      -8.4      4.771     10.724
REMARK  7 active torsions:
REMARK  status: ('A' for Active; 'I' for Inactive)
REMARK    1  A    between atoms: C4_11  and  O1_2 
REMARK    2  A    between atoms: C10_17  and  O3_4 
REMARK    3  A    between atoms: C1_8  and  N1_6 
REMARK    4  A    between atoms: C9_16  and  N1_6 
REMARK    5  A    between atoms: C7_14  and  N2_7 
REMARK    6  A    between atoms: C9_16  and  N2_7 
REMARK    7  A    between atoms: C1_8  and  C2_9 
ROOT
HETATM    1  S1  UNK     1      18.304  -1.375  37.510  1.00  0.00    -0.041 SA
HETATM    2  C9  UNK     1      18.950  -1.886  36.045  1.00  0.00     0.172 C 
ENDROOT
BRANCH   2   3
HETATM    3  N1  UNK     1      19.098  -0.923  35.055  1.00  0.00    -0.359 N 
HETATM    4  H5  UNK     1      20.005  -0.467  35.011  1.00  0.00     0.162 HD
BRANCH   3   5
HETATM    5  C1  UNK     1      18.127  -0.551  34.044  1.00  0.00     0.116 C 
HETATM    6  C3  UNK     1      17.312   0.643  34.539  1.00  0.00     0.037 C 
BRANCH   5   7
HETATM    7  C2  UNK     1      18.819  -0.288  32.724  1.00  0.00     0.000 A 
HETATM    8  C4  UNK     1      19.674  -1.237  32.191  1.00  0.00     0.076 A 
HETATM    9  C11 UNK     1      20.304  -0.978  30.973  1.00  0.00     0.040 A 
HETATM   10  C15 UNK     1      20.070   0.224  30.308  1.00  0.00     0.039 A 
HETATM   11  C10 UNK     1      19.206   1.170  30.860  1.00  0.00     0.069 A 
HETATM   12  C5  UNK     1      18.575   0.913  32.078  1.00  0.00     0.048 A 
BRANCH   8  13
HETATM   13  O1  UNK     1      19.914  -2.416  32.828  1.00  0.00    -0.355 OA
HETATM   14  C20 UNK     1      21.174  -3.039  32.586  1.00  0.00     0.210 C 
ENDBRANCH   8  13
BRANCH  11  15
HETATM   15  O3  UNK     1      18.977   2.344  30.211  1.00  0.00    -0.356 OA
HETATM   16  C21 UNK     1      18.193   2.285  29.020  1.00  0.00     0.210 C 
ENDBRANCH  11  15
ENDBRANCH   5   7
ENDBRANCH   3   5
ENDBRANCH   2   3
BRANCH   2  17
HETATM   17  N2  UNK     1      19.398  -3.174  35.704  1.00  0.00    -0.333 N 
HETATM   18  H9  UNK     1      19.790  -3.238  34.771  1.00  0.00     0.168 HD
BRANCH  17  19
HETATM   19  C7  UNK     1      19.712  -4.297  36.469  1.00  0.00     0.036 A 
HETATM   20  C13 UNK     1      20.996  -4.462  36.975  1.00  0.00     0.067 A 
HETATM   21  C8  UNK     1      21.289  -5.593  37.739  1.00  0.00     0.092 A 
HETATM   22  C6  UNK     1      20.334  -6.573  38.015  1.00  0.00     0.004 A 
HETATM   23  O2  UNK     1      22.608  -5.704  38.223  1.00  0.00    -0.275 OA
HETATM   24  C12 UNK     1      20.729  -7.731  38.828  1.00  0.00    -0.043 A 
HETATM   25  C14 UNK     1      19.045  -6.388  37.498  1.00  0.00     0.017 A 
HETATM   26  C17 UNK     1      21.990  -7.811  39.275  1.00  0.00     0.090 A 
HETATM   27  C18 UNK     1      19.725  -8.802  39.143  1.00  0.00     0.049 C 
HETATM   28  C19 UNK     1      23.009  -6.785  38.992  1.00  0.00     0.288 A 
HETATM   29  O4  UNK     1      24.154  -6.891  39.419  1.00  0.00    -0.260 OA
HETATM   30  C16 UNK     1      18.737  -5.259  36.731  1.00  0.00     0.030 A 
ENDBRANCH  17  19
ENDBRANCH   2  17
TORSDOF 7
ENDMDL
MODEL 7
REMARK VINA RESULT:      -8.4      1.667      2.705
REMARK  7 active torsions:
REMARK  status: ('A' for Active; 'I' for Inactive)
REMARK    1  A    between atoms: C4_11  and  O1_2 
REMARK    2  A    between atoms: C10_17  and  O3_4 
REMARK    3  A    between atoms: C1_8  and  N1_6 
REMARK    4  A    between atoms: C9_16  and  N1_6 
REMARK    5  A    between atoms: C7_14  and  N2_7 
REMARK    6  A    between atoms: C9_16  and  N2_7 
REMARK    7  A    between atoms: C1_8  and  C2_9 
ROOT
HETATM    1  S1  UNK     1      18.236   1.907  29.336  1.00  0.00    -0.041 SA
HETATM    2  C9  UNK     1      18.332   3.093  30.522  1.00  0.00     0.172 C 
ENDROOT
BRANCH   2   3
HETATM    3  N1  UNK     1      17.809   2.777  31.770  1.00  0.00    -0.359 N 
HETATM    4  H5  UNK     1      16.813   2.578  31.796  1.00  0.00     0.162 HD
BRANCH   3   5
HETATM    5  C1  UNK     1      18.539   2.638  33.015  1.00  0.00     0.116 C 
HETATM    6  C3  UNK     1      18.166   3.784  33.953  1.00  0.00     0.037 C 
BRANCH   5   7
HETATM    7  C2  UNK     1      18.289   1.273  33.619  1.00  0.00     0.000 A 
HETATM    8  C4  UNK     1      18.807   0.142  33.011  1.00  0.00     0.076 A 
HETATM    9  C11 UNK     1      18.567  -1.108  33.581  1.00  0.00     0.040 A 
HETATM   10  C15 UNK     1      17.812  -1.209  34.749  1.00  0.00     0.039 A 
HETATM   11  C10 UNK     1      17.297  -0.059  35.349  1.00  0.00     0.069 A 
HETATM   12  C5  UNK     1      17.537   1.192  34.779  1.00  0.00     0.048 A 
BRANCH   8  13
HETATM   13  O1  UNK     1      19.545   0.223  31.870  1.00  0.00    -0.355 OA
HETATM   14  C20 UNK     1      19.886  -1.006  31.229  1.00  0.00     0.210 C 
ENDBRANCH   8  13
BRANCH  11  15
HETATM   15  O3  UNK     1      16.561  -0.157  36.489  1.00  0.00    -0.356 OA
HETATM   16  C21 UNK     1      16.813   0.808  37.509  1.00  0.00     0.210 C 
ENDBRANCH  11  15
ENDBRANCH   5   7
ENDBRANCH   3   5
ENDBRANCH   2   3
BRANCH   2  17
HETATM   17  N2  UNK     1      18.915   4.367  30.419  1.00  0.00    -0.333 N 
HETATM   18  H9  UNK     1      19.158   4.633  29.470  1.00  0.00     0.168 HD
BRANCH  17  19
HETATM   19  C7  UNK     1      18.943   5.465  31.279  1.00  0.00     0.036 A 
HETATM   20  C13 UNK     1      17.798   6.227  31.477  1.00  0.00     0.067 A 
HETATM   21  C8  UNK     1      17.847   7.321  32.343  1.00  0.00     0.092 A 
HETATM   22  C6  UNK     1      19.012   7.682  33.022  1.00  0.00     0.004 A 
HETATM   23  O2  UNK     1      16.654   8.054  32.503  1.00  0.00    -0.275 OA
HETATM   24  C12 UNK     1      18.975   8.848  33.914  1.00  0.00    -0.043 A 
HETATM   25  C14 UNK     1      20.156   6.901  32.810  1.00  0.00     0.017 A 
HETATM   26  C17 UNK     1      17.826   9.527  34.047  1.00  0.00     0.090 A 
HETATM   27  C18 UNK     1      20.211   9.262  34.658  1.00  0.00     0.049 C 
HETATM   28  C19 UNK     1      16.589   9.159  33.337  1.00  0.00     0.288 A 
HETATM   29  O4  UNK     1      15.556   9.804  33.484  1.00  0.00    -0.260 OA
HETATM   30  C16 UNK     1      20.121   5.801  31.945  1.00  0.00     0.030 A 
ENDBRANCH  17  19
ENDBRANCH   2  17
TORSDOF 7
ENDMDL
MODEL 8
REMARK VINA RESULT:      -8.4      2.656      8.968
REMARK  7 active torsions:
REMARK  status: ('A' for Active; 'I' for Inactive)
REMARK    1  A    between atoms: C4_11  and  O1_2 
REMARK    2  A    between atoms: C10_17  and  O3_4 
REMARK    3  A    between atoms: C1_8  and  N1_6 
REMARK    4  A    between atoms: C9_16  and  N1_6 
REMARK    5  A    between atoms: C7_14  and  N2_7 
REMARK    6  A    between atoms: C9_16  and  N2_7 
REMARK    7  A    between atoms: C1_8  and  C2_9 
ROOT
HETATM    1  S1  UNK     1      19.498   6.013  30.757  1.00  0.00    -0.041 SA
HETATM    2  C9  UNK     1      18.181   5.705  31.754  1.00  0.00     0.172 C 
ENDROOT
BRANCH   2   3
HETATM    3  N1  UNK     1      17.528   6.808  32.290  1.00  0.00    -0.359 N 
HETATM    4  H5  UNK     1      16.954   7.342  31.644  1.00  0.00     0.162 HD
BRANCH   3   5
HETATM    5  C1  UNK     1      17.525   7.234  33.677  1.00  0.00     0.116 C 
HETATM    6  C3  UNK     1      18.964   7.440  34.147  1.00  0.00     0.037 C 
BRANCH   5   7
HETATM    7  C2  UNK     1      16.666   8.468  33.844  1.00  0.00     0.000 A 
HETATM    8  C4  UNK     1      15.291   8.378  33.709  1.00  0.00     0.076 A 
HETATM    9  C11 UNK     1      14.515   9.526  33.865  1.00  0.00     0.040 A 
HETATM   10  C15 UNK     1      15.123  10.746  34.154  1.00  0.00     0.039 A 
HETATM   11  C10 UNK     1      16.510  10.821  34.287  1.00  0.00     0.069 A 
HETATM   12  C5  UNK     1      17.288   9.673  34.130  1.00  0.00     0.048 A 
BRANCH   8  13
HETATM   13  O1  UNK     1      14.681   7.194  33.425  1.00  0.00    -0.355 OA
HETATM   14  C20 UNK     1      13.884   7.142  32.243  1.00  0.00     0.210 C 
ENDBRANCH   8  13
BRANCH  11  15
HETATM   15  O3  UNK     1      17.105  12.012  34.569  1.00  0.00    -0.356 OA
HETATM   16  C21 UNK     1      18.394  12.243  34.005  1.00  0.00     0.210 C 
ENDBRANCH  11  15
ENDBRANCH   5   7
ENDBRANCH   3   5
ENDBRANCH   2   3
BRANCH   2  17
HETATM   17  N2  UNK     1      17.628   4.457  32.088  1.00  0.00    -0.333 N 
HETATM   18  H9  UNK     1      16.619   4.472  32.202  1.00  0.00     0.168 HD
BRANCH  17  19
HETATM   19  C7  UNK     1      18.111   3.152  31.986  1.00  0.00     0.036 A 
HETATM   20  C13 UNK     1      18.590   2.678  30.770  1.00  0.00     0.067 A 
HETATM   21  C8  UNK     1      19.070   1.369  30.689  1.00  0.00     0.092 A 
HETATM   22  C6  UNK     1      19.086   0.513  31.792  1.00  0.00     0.004 A 
HETATM   23  O2  UNK     1      19.541   0.946  29.431  1.00  0.00    -0.275 OA
HETATM   24  C12 UNK     1      19.609  -0.848  31.617  1.00  0.00    -0.043 A 
HETATM   25  C14 UNK     1      18.601   1.010  33.008  1.00  0.00     0.017 A 
HETATM   26  C17 UNK     1      20.051  -1.224  30.408  1.00  0.00     0.090 A 
HETATM   27  C18 UNK     1      19.641  -1.794  32.783  1.00  0.00     0.049 C 
HETATM   28  C19 UNK     1      20.040  -0.333  29.236  1.00  0.00     0.288 A 
HETATM   29  O4  UNK     1      20.453  -0.711  28.145  1.00  0.00    -0.260 OA
HETATM   30  C16 UNK     1      18.117   2.320  33.104  1.00  0.00     0.030 A 
ENDBRANCH  17  19
ENDBRANCH   2  17
TORSDOF 7
ENDMDL
MODEL 9
REMARK VINA RESULT:      -8.4      2.552      6.784
REMARK  7 active torsions:
REMARK  status: ('A' for Active; 'I' for Inactive)
REMARK    1  A    between atoms: C4_11  and  O1_2 
REMARK    2  A    between atoms: C10_17  and  O3_4 
REMARK    3  A    between atoms: C1_8  and  N1_6 
REMARK    4  A    between atoms: C9_16  and  N1_6 
REMARK    5  A    between atoms: C7_14  and  N2_7 
REMARK    6  A    between atoms: C9_16  and  N2_7 
REMARK    7  A    between atoms: C1_8  and  C2_9 
ROOT
HETATM    1  S1  UNK     1      20.583  -0.324  28.914  1.00  0.00    -0.041 SA
HETATM    2  C9  UNK     1      19.613  -0.536  30.269  1.00  0.00     0.172 C 
ENDROOT
BRANCH   2   3
HETATM    3  N1  UNK     1      18.739   0.496  30.583  1.00  0.00    -0.359 N 
HETATM    4  H5  UNK     1      17.994   0.265  31.235  1.00  0.00     0.162 HD
BRANCH   3   5
HETATM    5  C1  UNK     1      18.816   1.874  30.137  1.00  0.00     0.116 C 
HETATM    6  C3  UNK     1      17.781   2.109  29.037  1.00  0.00     0.037 C 
BRANCH   5   7
HETATM    7  C2  UNK     1      18.655   2.815  31.311  1.00  0.00     0.000 A 
HETATM    8  C4  UNK     1      18.778   4.181  31.124  1.00  0.00     0.076 A 
HETATM    9  C11 UNK     1      18.628   5.034  32.218  1.00  0.00     0.040 A 
HETATM   10  C15 UNK     1      18.356   4.509  33.480  1.00  0.00     0.039 A 
HETATM   11  C10 UNK     1      18.235   3.130  33.651  1.00  0.00     0.069 A 
HETATM   12  C5  UNK     1      18.385   2.276  32.558  1.00  0.00     0.048 A 
BRANCH   8  13
HETATM   13  O1  UNK     1      19.045   4.710  29.898  1.00  0.00    -0.355 OA
HETATM   14  C20 UNK     1      18.923   6.125  29.762  1.00  0.00     0.210 C 
ENDBRANCH   8  13
BRANCH  11  15
HETATM   15  O3  UNK     1      17.969   2.617  34.884  1.00  0.00    -0.356 OA
HETATM   16  C21 UNK     1      19.088   2.332  35.722  1.00  0.00     0.210 C 
ENDBRANCH  11  15
ENDBRANCH   5   7
ENDBRANCH   3   5
ENDBRANCH   2   3
BRANCH   2  17
HETATM   17  N2  UNK     1      19.549  -1.658  31.114  1.00  0.00    -0.333 N 
HETATM   18  H9  UNK     1      19.827  -2.526  30.668  1.00  0.00     0.168 HD
BRANCH  17  19
HETATM   19  C7  UNK     1      19.495  -1.792  32.502  1.00  0.00     0.036 A 
HETATM   20  C13 UNK     1      18.519  -1.123  33.231  1.00  0.00     0.067 A 
HETATM   21  C8  UNK     1      18.482  -1.272  34.619  1.00  0.00     0.092 A 
HETATM   22  C6  UNK     1      19.395  -2.073  35.306  1.00  0.00     0.004 A 
HETATM   23  O2  UNK     1      17.470  -0.569  35.303  1.00  0.00    -0.275 OA
HETATM   24  C12 UNK     1      19.283  -2.174  36.768  1.00  0.00    -0.043 A 
HETATM   25  C14 UNK     1      20.371  -2.741  34.553  1.00  0.00     0.017 A 
HETATM   26  C17 UNK     1      18.311  -1.493  37.392  1.00  0.00     0.090 A 
HETATM   27  C18 UNK     1      20.249  -3.027  37.536  1.00  0.00     0.049 C 
HETATM   28  C19 UNK     1      17.340  -0.644  36.681  1.00  0.00     0.288 A 
HETATM   29  O4  UNK     1      16.464  -0.036  37.286  1.00  0.00    -0.260 OA
HETATM   30  C16 UNK     1      20.419  -2.601  33.162  1.00  0.00     0.030 A 
ENDBRANCH  17  19
ENDBRANCH   2  17
TORSDOF 7
ENDMDL
MODEL 10
REMARK VINA RESULT:      -8.2      2.400      3.553
REMARK  7 active torsions:
REMARK  status: ('A' for Active; 'I' for Inactive)
REMARK    1  A    between atoms: C4_11  and  O1_2 
REMARK    2  A    between atoms: C10_17  and  O3_4 
REMARK    3  A    between atoms: C1_8  and  N1_6 
REMARK    4  A    between atoms: C9_16  and  N1_6 
REMARK    5  A    between atoms: C7_14  and  N2_7 
REMARK    6  A    between atoms: C9_16  and  N2_7 
REMARK    7  A    between atoms: C1_8  and  C2_9 
ROOT
HETATM    1  S1  UNK     1      19.858   5.957  29.907  1.00  0.00    -0.041 SA
HETATM    2  C9  UNK     1      19.083   4.872  30.929  1.00  0.00     0.172 C 
ENDROOT
BRANCH   2   3
HETATM    3  N1  UNK     1      19.336   3.522  30.721  1.00  0.00    -0.359 N 
HETATM    4  H5  UNK     1      20.298   3.224  30.859  1.00  0.00     0.162 HD
BRANCH   3   5
HETATM    5  C1  UNK     1      18.370   2.491  30.396  1.00  0.00     0.116 C 
HETATM    6  C3  UNK     1      18.142   2.467  28.885  1.00  0.00     0.037 C 
BRANCH   5   7
HETATM    7  C2  UNK     1      18.823   1.156  30.946  1.00  0.00     0.000 A 
HETATM    8  C4  UNK     1      18.543   0.818  32.259  1.00  0.00     0.076 A 
HETATM    9  C11 UNK     1      18.968  -0.416  32.751  1.00  0.00     0.040 A 
HETATM   10  C15 UNK     1      19.667  -1.293  31.923  1.00  0.00     0.039 A 
HETATM   11  C10 UNK     1      19.942  -0.938  30.603  1.00  0.00     0.069 A 
HETATM   12  C5  UNK     1      19.517   0.297  30.110  1.00  0.00     0.048 A 
BRANCH   8  13
HETATM   13  O1  UNK     1      17.862   1.664  33.081  1.00  0.00    -0.355 OA
HETATM   14  C20 UNK     1      17.784   1.306  34.460  1.00  0.00     0.210 C 
ENDBRANCH   8  13
BRANCH  11  15
HETATM   15  O3  UNK     1      20.624  -1.794  29.794  1.00  0.00    -0.356 OA
HETATM   16  C21 UNK     1      20.967  -3.066  30.340  1.00  0.00     0.210 C 
ENDBRANCH  11  15
ENDBRANCH   5   7
ENDBRANCH   3   5
ENDBRANCH   2   3
BRANCH   2  17
HETATM   17  N2  UNK     1      18.228   5.165  32.005  1.00  0.00    -0.333 N 
HETATM   18  H9  UNK     1      18.280   4.494  32.766  1.00  0.00     0.168 HD
BRANCH  17  19
HETATM   19  C7  UNK     1      17.566   6.329  32.396  1.00  0.00     0.036 A 
HETATM   20  C13 UNK     1      18.292   7.441  32.809  1.00  0.00     0.067 A 
HETATM   21  C8  UNK     1      17.609   8.596  33.194  1.00  0.00     0.092 A 
HETATM   22  C6  UNK     1      16.216   8.678  33.181  1.00  0.00     0.004 A 
HETATM   23  O2  UNK     1      18.400   9.689  33.603  1.00  0.00    -0.275 OA
HETATM   24  C12 UNK     1      15.581   9.933  33.603  1.00  0.00    -0.043 A 
HETATM   25  C14 UNK     1      15.503   7.548  32.761  1.00  0.00     0.017 A 
HETATM   26  C17 UNK     1      16.357  10.957  33.987  1.00  0.00     0.090 A 
HETATM   27  C18 UNK     1      14.085  10.053  33.600  1.00  0.00     0.049 C 
HETATM   28  C19 UNK     1      17.829  10.886  34.006  1.00  0.00     0.288 A 
HETATM   29  O4  UNK     1      18.507  11.843  34.363  1.00  0.00    -0.260 OA
HETATM   30  C16 UNK     1      16.173   6.382  32.371  1.00  0.00     0.030 A 
ENDBRANCH  17  19
ENDBRANCH   2  17
TORSDOF 7
ENDMDL
