MODEL 1
REMARK VINA RESULT:      -9.5      0.000      0.000
REMARK  1 active torsions:
REMARK  status: ('A' for Active; 'I' for Inactive)
REMARK    1  A    between atoms: C2_7  and  C4_9 
ROOT
HETATM    1 Br1  UNK     1      22.071  -2.878   8.529  1.00  0.00    -0.051 Br
HETATM    2  O1  UNK     1      18.390  -3.459  13.315  1.00  0.00    -0.274 OA
HETATM    3  O2  UNK     1      17.543  -2.667  15.280  1.00  0.00    -0.259 OA
HETATM    4  C4  UNK     1      19.209  -1.333  14.225  1.00  0.00     0.086 A 
HETATM    5  C5  UNK     1      20.078  -2.185  12.120  1.00  0.00     0.000 A 
HETATM    6  C7  UNK     1      20.034  -1.187  13.177  1.00  0.00     0.035 A 
HETATM    7  C10 UNK     1      19.256  -3.300  12.216  1.00  0.00     0.089 A 
HETATM    8  C11 UNK     1      18.316  -2.517  14.339  1.00  0.00     0.302 A 
HETATM    9  C13 UNK     1      20.922  -2.061  11.014  1.00  0.00     0.033 A 
HETATM   10  C14 UNK     1      19.250  -4.294  11.239  1.00  0.00     0.039 A 
HETATM   11  C16 UNK     1      20.928  -3.049  10.026  1.00  0.00     0.011 A 
HETATM   12  C17 UNK     1      20.094  -4.164  10.139  1.00  0.00     0.022 A 
ENDROOT
BRANCH   4  13
HETATM   13  C2  UNK     1      19.197  -0.336  15.250  1.00  0.00     0.145 A 
HETATM   14  N1  UNK     1      19.069  -0.766  16.542  1.00  0.00    -0.338 N 
HETATM   15  C1  UNK     1      19.080   0.338  17.354  1.00  0.00     0.063 A 
HETATM   16  H1  UNK     1      18.993  -1.724  16.860  1.00  0.00     0.167 HD
HETATM   17  C3  UNK     1      19.218   1.412  16.478  1.00  0.00     0.086 A 
HETATM   18  C6  UNK     1      18.983   0.487  18.738  1.00  0.00     0.038 A 
HETATM   19  N2  UNK     1      19.289   0.973  15.175  1.00  0.00    -0.228 NA
HETATM   20  C9  UNK     1      19.264   2.717  16.995  1.00  0.00     0.034 A 
HETATM   21  C12 UNK     1      19.169   2.890  18.381  1.00  0.00     0.009 A 
HETATM   22  C8  UNK     1      19.031   1.793  19.236  1.00  0.00    -0.060 A 
HETATM   23  C15 UNK     1      18.933   2.018  20.709  1.00  0.00     0.048 C 
ENDBRANCH   4  13
TORSDOF 1
ENDMDL
MODEL 2
REMARK VINA RESULT:      -9.0     15.207     17.519
REMARK  1 active torsions:
REMARK  status: ('A' for Active; 'I' for Inactive)
REMARK    1  A    between atoms: C2_7  and  C4_9 
ROOT
HETATM    1 Br1  UNK     1      20.905  -3.227  31.648  1.00  0.00    -0.051 Br
HETATM    2  O1  UNK     1      18.936   1.649  28.626  1.00  0.00    -0.274 OA
HETATM    3  O2  UNK     1      18.219   3.816  28.597  1.00  0.00    -0.259 OA
HETATM    4  C4  UNK     1      18.721   2.889  30.732  1.00  0.00     0.086 A 
HETATM    5  C5  UNK     1      19.507   0.589  30.736  1.00  0.00     0.000 A 
HETATM    6  C7  UNK     1      19.151   1.821  31.421  1.00  0.00     0.035 A 
HETATM    7  C10 UNK     1      19.388   0.531  29.353  1.00  0.00     0.089 A 
HETATM    8  C11 UNK     1      18.596   2.847  29.251  1.00  0.00     0.302 A 
HETATM    9  C13 UNK     1      19.962  -0.540  31.421  1.00  0.00     0.033 A 
HETATM   10  C14 UNK     1      19.711  -0.619  28.635  1.00  0.00     0.039 A 
HETATM   11  C16 UNK     1      20.289  -1.701  30.717  1.00  0.00     0.011 A 
HETATM   12  C17 UNK     1      20.164  -1.741  29.326  1.00  0.00     0.022 A 
ENDROOT
BRANCH   4  13
HETATM   13  C2  UNK     1      18.372   4.083  31.439  1.00  0.00     0.145 A 
HETATM   14  N1  UNK     1      19.383   4.957  31.731  1.00  0.00    -0.338 N 
HETATM   15  C1  UNK     1      18.836   6.020  32.402  1.00  0.00     0.063 A 
HETATM   16  H1  UNK     1      20.361   4.859  31.490  1.00  0.00     0.167 HD
HETATM   17  C3  UNK     1      17.479   5.719  32.482  1.00  0.00     0.086 A 
HETATM   18  C6  UNK     1      19.395   7.184  32.931  1.00  0.00     0.038 A 
HETATM   19  N2  UNK     1      17.210   4.512  31.877  1.00  0.00    -0.228 NA
HETATM   20  C9  UNK     1      16.613   6.621  33.123  1.00  0.00     0.034 A 
HETATM   21  C12 UNK     1      17.153   7.795  33.662  1.00  0.00     0.009 A 
HETATM   22  C8  UNK     1      18.519   8.070  33.566  1.00  0.00    -0.060 A 
HETATM   23  C15 UNK     1      19.056   9.335  34.152  1.00  0.00     0.048 C 
ENDBRANCH   4  13
TORSDOF 1
ENDMDL
MODEL 3
REMARK VINA RESULT:      -8.9     17.871     21.645
REMARK  1 active torsions:
REMARK  status: ('A' for Active; 'I' for Inactive)
REMARK    1  A    between atoms: C2_7  and  C4_9 
ROOT
HETATM    1 Br1  UNK     1      20.515  -0.622  29.314  1.00  0.00    -0.051 Br
HETATM    2  O1  UNK     1      18.519  -0.736  35.041  1.00  0.00    -0.274 OA
HETATM    3  O2  UNK     1      18.450  -1.709  37.104  1.00  0.00    -0.259 OA
HETATM    4  C4  UNK     1      19.752  -2.817  35.447  1.00  0.00     0.086 A 
HETATM    5  C5  UNK     1      19.831  -1.749  33.265  1.00  0.00     0.000 A 
HETATM    6  C7  UNK     1      20.202  -2.814  34.183  1.00  0.00     0.035 A 
HETATM    7  C10 UNK     1      18.995  -0.735  33.715  1.00  0.00     0.089 A 
HETATM    8  C11 UNK     1      18.863  -1.735  35.948  1.00  0.00     0.302 A 
HETATM    9  C13 UNK     1      20.285  -1.712  31.944  1.00  0.00     0.033 A 
HETATM   10  C14 UNK     1      18.600   0.314  32.887  1.00  0.00     0.039 A 
HETATM   11  C16 UNK     1      19.898  -0.668  31.101  1.00  0.00     0.011 A 
HETATM   12  C17 UNK     1      19.057   0.343  31.571  1.00  0.00     0.022 A 
ENDROOT
BRANCH   4  13
HETATM   13  C2  UNK     1      20.131  -3.884  36.321  1.00  0.00     0.145 A 
HETATM   14  N1  UNK     1      19.201  -4.858  36.562  1.00  0.00    -0.338 N 
HETATM   15  C1  UNK     1      19.763  -5.772  37.416  1.00  0.00     0.063 A 
HETATM   16  H1  UNK     1      18.267  -4.915  36.178  1.00  0.00     0.167 HD
HETATM   17  C3  UNK     1      21.046  -5.282  37.651  1.00  0.00     0.086 A 
HETATM   18  C6  UNK     1      19.276  -6.948  37.985  1.00  0.00     0.038 A 
HETATM   19  N2  UNK     1      21.255  -4.110  36.963  1.00  0.00    -0.228 NA
HETATM   20  C9  UNK     1      21.906  -5.997  38.502  1.00  0.00     0.034 A 
HETATM   21  C12 UNK     1      21.437  -7.181  39.085  1.00  0.00     0.009 A 
HETATM   22  C8  UNK     1      20.145  -7.647  38.829  1.00  0.00    -0.060 A 
HETATM   23  C15 UNK     1      19.682  -8.915  39.469  1.00  0.00     0.048 C 
ENDBRANCH   4  13
TORSDOF 1
ENDMDL
MODEL 4
REMARK VINA RESULT:      -8.7      3.837      7.890
REMARK  1 active torsions:
REMARK  status: ('A' for Active; 'I' for Inactive)
REMARK    1  A    between atoms: C2_7  and  C4_9 
ROOT
HETATM    1 Br1  UNK     1      19.026   2.034  20.986  1.00  0.00    -0.051 Br
HETATM    2  O1  UNK     1      19.239   0.822  15.046  1.00  0.00    -0.274 OA
HETATM    3  O2  UNK     1      19.124  -0.657  13.312  1.00  0.00    -0.259 OA
HETATM    4  C4  UNK     1      18.891  -1.563  15.503  1.00  0.00     0.086 A 
HETATM    5  C5  UNK     1      18.991   0.036  17.331  1.00  0.00     0.000 A 
HETATM    6  C7  UNK     1      18.845  -1.318  16.821  1.00  0.00     0.035 A 
HETATM    7  C10 UNK     1      19.187   1.076  16.430  1.00  0.00     0.089 A 
HETATM    8  C11 UNK     1      19.092  -0.461  14.524  1.00  0.00     0.302 A 
HETATM    9  C13 UNK     1      18.944   0.327  18.697  1.00  0.00     0.033 A 
HETATM   10  C14 UNK     1      19.336   2.395  16.853  1.00  0.00     0.039 A 
HETATM   11  C16 UNK     1      19.092   1.645  19.136  1.00  0.00     0.011 A 
HETATM   12  C17 UNK     1      19.288   2.677  18.216  1.00  0.00     0.022 A 
ENDROOT
BRANCH   4  13
HETATM   13  C2  UNK     1      18.751  -2.907  15.036  1.00  0.00     0.145 A 
HETATM   14  N1  UNK     1      19.843  -3.484  14.448  1.00  0.00    -0.338 N 
HETATM   15  C1  UNK     1      19.496  -4.757  14.077  1.00  0.00     0.063 A 
HETATM   16  H1  UNK     1      20.755  -3.065  14.314  1.00  0.00     0.167 HD
HETATM   17  C3  UNK     1      18.167  -4.884  14.476  1.00  0.00     0.086 A 
HETATM   18  C6  UNK     1      20.207  -5.779  13.448  1.00  0.00     0.038 A 
HETATM   19  N2  UNK     1      17.723  -3.724  15.069  1.00  0.00    -0.228 NA
HETATM   20  C9  UNK     1      17.493  -6.094  14.239  1.00  0.00     0.034 A 
HETATM   21  C12 UNK     1      18.188  -7.133  13.608  1.00  0.00     0.009 A 
HETATM   22  C8  UNK     1      19.521  -6.976  13.220  1.00  0.00    -0.060 A 
HETATM   23  C15 UNK     1      20.228  -8.109  12.550  1.00  0.00     0.048 C 
ENDBRANCH   4  13
TORSDOF 1
ENDMDL
MODEL 5
REMARK VINA RESULT:      -8.7      2.596      3.247
REMARK  1 active torsions:
REMARK  status: ('A' for Active; 'I' for Inactive)
REMARK    1  A    between atoms: C2_7  and  C4_9 
ROOT
HETATM    1 Br1  UNK     1      16.556  -7.952  14.192  1.00  0.00    -0.051 Br
HETATM    2  O1  UNK     1      19.758  -2.937  13.011  1.00  0.00    -0.274 OA
HETATM    3  O2  UNK     1      20.507  -0.867  13.613  1.00  0.00    -0.259 OA
HETATM    4  C4  UNK     1      19.061  -1.967  15.153  1.00  0.00     0.086 A 
HETATM    5  C5  UNK     1      18.298  -4.181  14.501  1.00  0.00     0.000 A 
HETATM    6  C7  UNK     1      18.343  -3.065  15.433  1.00  0.00     0.035 A 
HETATM    7  C10 UNK     1      19.005  -4.089  13.309  1.00  0.00     0.089 A 
HETATM    8  C11 UNK     1      19.831  -1.856  13.886  1.00  0.00     0.302 A 
HETATM    9  C13 UNK     1      17.564  -5.340  14.763  1.00  0.00     0.033 A 
HETATM   10  C14 UNK     1      19.003  -5.121  12.373  1.00  0.00     0.039 A 
HETATM   11  C16 UNK     1      17.550  -6.384  13.834  1.00  0.00     0.011 A 
HETATM   12  C17 UNK     1      18.268  -6.274  12.641  1.00  0.00     0.022 A 
ENDROOT
BRANCH   4  13
HETATM   13  C2  UNK     1      19.078  -0.885  16.089  1.00  0.00     0.145 A 
HETATM   14  N1  UNK     1      19.192  -1.204  17.414  1.00  0.00    -0.338 N 
HETATM   15  C1  UNK     1      19.188  -0.033  18.128  1.00  0.00     0.063 A 
HETATM   16  H1  UNK     1      19.279  -2.130  17.812  1.00  0.00     0.167 HD
HETATM   17  C3  UNK     1      19.067   0.962  17.161  1.00  0.00     0.086 A 
HETATM   18  C6  UNK     1      19.277   0.234  19.494  1.00  0.00     0.038 A 
HETATM   19  N2  UNK     1      19.000   0.413  15.901  1.00  0.00    -0.228 NA
HETATM   20  C9  UNK     1      19.030   2.308  17.564  1.00  0.00     0.034 A 
HETATM   21  C12 UNK     1      19.118   2.598  18.931  1.00  0.00     0.009 A 
HETATM   22  C8  UNK     1      19.239   1.578  19.878  1.00  0.00    -0.060 A 
HETATM   23  C15 UNK     1      19.331   1.928  21.327  1.00  0.00     0.048 C 
ENDBRANCH   4  13
TORSDOF 1
ENDMDL
MODEL 6
REMARK VINA RESULT:      -8.5     21.532     22.681
REMARK  1 active torsions:
REMARK  status: ('A' for Active; 'I' for Inactive)
REMARK    1  A    between atoms: C2_7  and  C4_9 
ROOT
HETATM    1 Br1  UNK     1      23.732 -11.101  36.000  1.00  0.00    -0.051 Br
HETATM    2  O1  UNK     1      18.457  -8.259  36.941  1.00  0.00    -0.274 OA
HETATM    3  O2  UNK     1      17.208  -6.349  36.994  1.00  0.00    -0.259 OA
HETATM    4  C4  UNK     1      19.510  -6.101  36.438  1.00  0.00     0.086 A 
HETATM    5  C5  UNK     1      20.813  -8.151  36.362  1.00  0.00     0.000 A 
HETATM    6  C7  UNK     1      20.687  -6.709  36.229  1.00  0.00     0.035 A 
HETATM    7  C10 UNK     1      19.694  -8.893  36.719  1.00  0.00     0.089 A 
HETATM    8  C11 UNK     1      18.299  -6.881  36.812  1.00  0.00     0.302 A 
HETATM    9  C13 UNK     1      22.023  -8.817  36.148  1.00  0.00     0.033 A 
HETATM   10  C14 UNK     1      19.747 -10.278  36.866  1.00  0.00     0.039 A 
HETATM   11  C16 UNK     1      22.093 -10.204  36.292  1.00  0.00     0.011 A 
HETATM   12  C17 UNK     1      20.957 -10.933  36.650  1.00  0.00     0.022 A 
ENDROOT
BRANCH   4  13
HETATM   13  C2  UNK     1      19.423  -4.679  36.304  1.00  0.00     0.145 A 
HETATM   14  N1  UNK     1      18.420  -4.046  36.986  1.00  0.00    -0.338 N 
HETATM   15  C1  UNK     1      18.518  -2.704  36.721  1.00  0.00     0.063 A 
HETATM   16  H1  UNK     1      17.731  -4.473  37.591  1.00  0.00     0.167 HD
HETATM   17  C3  UNK     1      19.611  -2.598  35.865  1.00  0.00     0.086 A 
HETATM   18  C6  UNK     1      17.767  -1.607  37.144  1.00  0.00     0.038 A 
HETATM   19  N2  UNK     1      20.160  -3.836  35.618  1.00  0.00    -0.228 NA
HETATM   20  C9  UNK     1      19.991  -1.330  35.394  1.00  0.00     0.034 A 
HETATM   21  C12 UNK     1      19.252  -0.215  35.805  1.00  0.00     0.009 A 
HETATM   22  C8  UNK     1      18.159  -0.353  36.665  1.00  0.00    -0.060 A 
HETATM   23  C15 UNK     1      17.395   0.861  37.082  1.00  0.00     0.048 C 
ENDBRANCH   4  13
TORSDOF 1
ENDMDL
MODEL 7
REMARK VINA RESULT:      -8.5     18.794     20.911
REMARK  1 active torsions:
REMARK  status: ('A' for Active; 'I' for Inactive)
REMARK    1  A    between atoms: C2_7  and  C4_9 
ROOT
HETATM    1 Br1  UNK     1      18.209   9.264  33.793  1.00  0.00    -0.051 Br
HETATM    2  O1  UNK     1      18.310   3.625  31.560  1.00  0.00    -0.274 OA
HETATM    3  O2  UNK     1      18.295   1.364  31.866  1.00  0.00    -0.259 OA
HETATM    4  C4  UNK     1      18.261   2.706  33.833  1.00  0.00     0.086 A 
HETATM    5  C5  UNK     1      18.252   5.111  33.481  1.00  0.00     0.000 A 
HETATM    6  C7  UNK     1      18.242   3.944  34.349  1.00  0.00     0.035 A 
HETATM    7  C10 UNK     1      18.288   4.924  32.105  1.00  0.00     0.089 A 
HETATM    8  C11 UNK     1      18.292   2.487  32.362  1.00  0.00     0.302 A 
HETATM    9  C13 UNK     1      18.229   6.414  33.984  1.00  0.00     0.033 A 
HETATM   10  C14 UNK     1      18.301   5.998  31.218  1.00  0.00     0.039 A 
HETATM   11  C16 UNK     1      18.242   7.502  33.108  1.00  0.00     0.011 A 
HETATM   12  C17 UNK     1      18.278   7.294  31.727  1.00  0.00     0.022 A 
ENDROOT
BRANCH   4  13
HETATM   13  C2  UNK     1      18.258   1.580  34.716  1.00  0.00     0.145 A 
HETATM   14  N1  UNK     1      19.015   0.499  34.357  1.00  0.00    -0.338 N 
HETATM   15  C1  UNK     1      18.871  -0.455  35.330  1.00  0.00     0.063 A 
HETATM   16  H1  UNK     1      19.594   0.409  33.532  1.00  0.00     0.167 HD
HETATM   17  C3  UNK     1      18.004   0.122  36.256  1.00  0.00     0.086 A 
HETATM   18  C6  UNK     1      19.407  -1.735  35.478  1.00  0.00     0.038 A 
HETATM   19  N2  UNK     1      17.635   1.386  35.856  1.00  0.00    -0.228 NA
HETATM   20  C9  UNK     1      17.640  -0.607  37.401  1.00  0.00     0.034 A 
HETATM   21  C12 UNK     1      18.167  -1.893  37.569  1.00  0.00     0.009 A 
HETATM   22  C8  UNK     1      19.034  -2.446  36.623  1.00  0.00    -0.060 A 
HETATM   23  C15 UNK     1      19.575  -3.821  36.838  1.00  0.00     0.048 C 
ENDBRANCH   4  13
TORSDOF 1
ENDMDL
MODEL 8
REMARK VINA RESULT:      -8.4     18.978     20.648
REMARK  1 active torsions:
REMARK  status: ('A' for Active; 'I' for Inactive)
REMARK    1  A    between atoms: C2_7  and  C4_9 
ROOT
HETATM    1 Br1  UNK     1      18.313  -1.565  37.728  1.00  0.00    -0.051 Br
HETATM    2  O1  UNK     1      18.376   1.376  32.424  1.00  0.00    -0.274 OA
HETATM    3  O2  UNK     1      18.362   3.318  31.226  1.00  0.00    -0.259 OA
HETATM    4  C4  UNK     1      18.244   3.527  33.595  1.00  0.00     0.086 A 
HETATM    5  C5  UNK     1      18.286   1.446  34.850  1.00  0.00     0.000 A 
HETATM    6  C7  UNK     1      18.224   2.897  34.779  1.00  0.00     0.035 A 
HETATM    7  C10 UNK     1      18.357   0.718  33.669  1.00  0.00     0.089 A 
HETATM    8  C11 UNK     1      18.328   2.764  32.321  1.00  0.00     0.302 A 
HETATM    9  C13 UNK     1      18.272   0.758  36.066  1.00  0.00     0.033 A 
HETATM   10  C14 UNK     1      18.417  -0.674  33.666  1.00  0.00     0.039 A 
HETATM   11  C16 UNK     1      18.331  -0.638  36.080  1.00  0.00     0.011 A 
HETATM   12  C17 UNK     1      18.403  -1.352  34.883  1.00  0.00     0.022 A 
ENDROOT
BRANCH   4  13
HETATM   13  C2  UNK     1      18.174   4.956  33.562  1.00  0.00     0.145 A 
HETATM   14  N1  UNK     1      19.187   5.647  34.167  1.00  0.00    -0.338 N 
HETATM   15  C1  UNK     1      18.927   6.985  34.020  1.00  0.00     0.063 A 
HETATM   16  H1  UNK     1      19.997   5.257  34.632  1.00  0.00     0.167 HD
HETATM   17  C3  UNK     1      17.730   7.029  33.310  1.00  0.00     0.086 A 
HETATM   18  C6  UNK     1      19.614   8.126  34.434  1.00  0.00     0.038 A 
HETATM   19  N2  UNK     1      17.278   5.759  33.034  1.00  0.00    -0.228 NA
HETATM   20  C9  UNK     1      17.172   8.277  32.985  1.00  0.00     0.034 A 
HETATM   21  C12 UNK     1      17.845   9.436  33.391  1.00  0.00     0.009 A 
HETATM   22  C8  UNK     1      19.045   9.359  34.103  1.00  0.00    -0.060 A 
HETATM   23  C15 UNK     1      19.733  10.618  34.518  1.00  0.00     0.048 C 
ENDBRANCH   4  13
TORSDOF 1
ENDMDL
MODEL 9
REMARK VINA RESULT:      -8.3     20.936     23.359
REMARK  1 active torsions:
REMARK  status: ('A' for Active; 'I' for Inactive)
REMARK    1  A    between atoms: C2_7  and  C4_9 
ROOT
HETATM    1 Br1  UNK     1      16.055   2.311  37.530  1.00  0.00    -0.051 Br
HETATM    2  O1  UNK     1      19.503  -1.589  34.416  1.00  0.00    -0.274 OA
HETATM    3  O2  UNK     1      20.670  -3.545  34.285  1.00  0.00    -0.259 OA
HETATM    4  C4  UNK     1      19.639  -3.059  36.375  1.00  0.00     0.086 A 
HETATM    5  C5  UNK     1      18.380  -0.982  36.483  1.00  0.00     0.000 A 
HETATM    6  C7  UNK     1      18.881  -2.209  37.083  1.00  0.00     0.035 A 
HETATM    7  C10 UNK     1      18.706  -0.699  35.163  1.00  0.00     0.089 A 
HETATM    8  C11 UNK     1      19.990  -2.776  34.958  1.00  0.00     0.302 A 
HETATM    9  C13 UNK     1      17.585  -0.077  37.191  1.00  0.00     0.033 A 
HETATM   10  C14 UNK     1      18.260   0.459  34.528  1.00  0.00     0.039 A 
HETATM   11  C16 UNK     1      17.131   1.089  36.569  1.00  0.00     0.011 A 
HETATM   12  C17 UNK     1      17.468   1.356  35.240  1.00  0.00     0.022 A 
ENDROOT
BRANCH   4  13
HETATM   13  C2  UNK     1      20.121  -4.253  36.999  1.00  0.00     0.145 A 
HETATM   14  N1  UNK     1      19.206  -5.235  37.263  1.00  0.00    -0.338 N 
HETATM   15  C1  UNK     1      19.872  -6.278  37.855  1.00  0.00     0.063 A 
HETATM   16  H1  UNK     1      18.216  -5.217  37.055  1.00  0.00     0.167 HD
HETATM   17  C3  UNK     1      21.196  -5.853  37.918  1.00  0.00     0.086 A 
HETATM   18  C6  UNK     1      19.442  -7.518  38.327  1.00  0.00     0.038 A 
HETATM   19  N2  UNK     1      21.331  -4.593  37.381  1.00  0.00    -0.228 NA
HETATM   20  C9  UNK     1      22.163  -6.703  38.481  1.00  0.00     0.034 A 
HETATM   21  C12 UNK     1      21.754  -7.953  38.961  1.00  0.00     0.009 A 
HETATM   22  C8  UNK     1      20.417  -8.352  38.884  1.00  0.00    -0.060 A 
HETATM   23  C15 UNK     1      20.020  -9.694  39.407  1.00  0.00     0.048 C 
ENDBRANCH   4  13
TORSDOF 1
ENDMDL
MODEL 10
REMARK VINA RESULT:      -8.3     18.347     22.083
REMARK  1 active torsions:
REMARK  status: ('A' for Active; 'I' for Inactive)
REMARK    1  A    between atoms: C2_7  and  C4_9 
ROOT
HETATM    1 Br1  UNK     1      11.350  13.042  33.142  1.00  0.00    -0.051 Br
HETATM    2  O1  UNK     1      15.651   9.538  35.595  1.00  0.00    -0.274 OA
HETATM    3  O2  UNK     1      17.278   7.950  35.393  1.00  0.00    -0.259 OA
HETATM    4  C4  UNK     1      16.099   8.527  33.405  1.00  0.00     0.086 A 
HETATM    5  C5  UNK     1      14.389  10.238  33.640  1.00  0.00     0.000 A 
HETATM    6  C7  UNK     1      15.150   9.289  32.843  1.00  0.00     0.035 A 
HETATM    7  C10 UNK     1      14.656  10.338  35.000  1.00  0.00     0.089 A 
HETATM    8  C11 UNK     1      16.404   8.627  34.858  1.00  0.00     0.302 A 
HETATM    9  C13 UNK     1      13.396  11.050  33.086  1.00  0.00     0.033 A 
HETATM   10  C14 UNK     1      13.963  11.225  35.821  1.00  0.00     0.039 A 
HETATM   11  C16 UNK     1      12.692  11.944  33.896  1.00  0.00     0.011 A 
HETATM   12  C17 UNK     1      12.975  12.032  35.261  1.00  0.00     0.022 A 
ENDROOT
BRANCH   4  13
HETATM   13  C2  UNK     1      16.824   7.599  32.592  1.00  0.00     0.145 A 
HETATM   14  N1  UNK     1      16.766   6.279  32.945  1.00  0.00    -0.338 N 
HETATM   15  C1  UNK     1      17.521   5.572  32.045  1.00  0.00     0.063 A 
HETATM   16  H1  UNK     1      16.253   5.877  33.719  1.00  0.00     0.167 HD
HETATM   17  C3  UNK     1      18.010   6.537  31.169  1.00  0.00     0.086 A 
HETATM   18  C6  UNK     1      17.810   4.212  31.924  1.00  0.00     0.038 A 
HETATM   19  N2  UNK     1      17.565   7.790  31.525  1.00  0.00    -0.228 NA
HETATM   20  C9  UNK     1      18.837   6.141  30.104  1.00  0.00     0.034 A 
HETATM   21  C12 UNK     1      19.140   4.781  29.965  1.00  0.00     0.009 A 
HETATM   22  C8  UNK     1      18.634   3.835  30.860  1.00  0.00    -0.060 A 
HETATM   23  C15 UNK     1      18.980   2.393  30.677  1.00  0.00     0.048 C 
ENDBRANCH   4  13
TORSDOF 1
ENDMDL
