MODEL 1
REMARK VINA RESULT:      -9.0      0.000      0.000
REMARK  3 active torsions:
REMARK  status: ('A' for Active; 'I' for Inactive)
REMARK    1  A    between atoms: C10_16  and  O2_3 
REMARK    2  A    between atoms: C1_7  and  N1_6 
REMARK       I    between atoms: C8_14  and  N1_6 
REMARK    3  A    between atoms: C6_12  and  C8_14 
ROOT
HETATM    1  O3  UNK     1      17.774   1.912  32.325  1.00  0.00    -0.267 OA
HETATM    2  N1  UNK     1      19.079   3.243  30.927  1.00  0.00    -0.323 N 
HETATM    3  C8  UNK     1      18.624   2.013  31.443  1.00  0.00     0.259 C 
HETATM    4  H3  UNK     1      19.753   3.218  30.166  1.00  0.00     0.169 HD
ENDROOT
BRANCH   2   5
HETATM    5  C1  UNK     1      18.686   4.533  31.286  1.00  0.00     0.035 A 
HETATM    6  C4  UNK     1      18.253   4.791  32.590  1.00  0.00     0.043 A 
HETATM    7  C2  UNK     1      17.860   6.081  32.953  1.00  0.00     0.000 A 
HETATM    8  C3  UNK     1      17.908   7.092  31.996  1.00  0.00     0.089 A 
HETATM    9  C9  UNK     1      17.401   6.405  34.293  1.00  0.00     0.020 A 
HETATM   10  O1  UNK     1      17.518   8.407  32.323  1.00  0.00    -0.275 OA
HETATM   11  C7  UNK     1      18.338   6.850  30.693  1.00  0.00     0.040 A 
HETATM   12  C15 UNK     1      17.077   8.740  33.600  1.00  0.00     0.288 A 
HETATM   13  C13 UNK     1      17.035   7.653  34.594  1.00  0.00     0.083 A 
HETATM   14  O4  UNK     1      16.736   9.882  33.892  1.00  0.00    -0.260 OA
HETATM   15  C5  UNK     1      18.729   5.560  30.340  1.00  0.00     0.032 A 
ENDBRANCH   2   5
BRANCH   3  16
HETATM   16  C6  UNK     1      19.273   0.819  30.875  1.00  0.00     0.067 A 
HETATM   17  C10 UNK     1      19.431   0.695  29.503  1.00  0.00     0.084 A 
HETATM   18  C12 UNK     1      20.048  -0.444  28.984  1.00  0.00     0.039 A 
HETATM   19  C16 UNK     1      20.501  -1.443  29.845  1.00  0.00     0.022 A 
HETATM   20  C14 UNK     1      20.337  -1.306  31.223  1.00  0.00     0.012 A 
HETATM   21 Br1  UNK     1      20.953  -2.661  32.387  1.00  0.00    -0.051 Br
HETATM   22  C11 UNK     1      19.718  -0.168  31.741  1.00  0.00     0.039 A 
BRANCH  17  23
HETATM   23  O2  UNK     1      18.997   1.661  28.646  1.00  0.00    -0.355 OA
HETATM   24  C17 UNK     1      17.656   1.553  28.174  1.00  0.00     0.210 C 
ENDBRANCH  17  23
ENDBRANCH   3  16
TORSDOF 3
ENDMDL
MODEL 2
REMARK VINA RESULT:      -8.7      1.911      2.943
REMARK  3 active torsions:
REMARK  status: ('A' for Active; 'I' for Inactive)
REMARK    1  A    between atoms: C10_16  and  O2_3 
REMARK    2  A    between atoms: C1_7  and  N1_6 
REMARK       I    between atoms: C8_14  and  N1_6 
REMARK    3  A    between atoms: C6_12  and  C8_14 
ROOT
HETATM    1  O3  UNK     1      18.341   3.509  30.424  1.00  0.00    -0.267 OA
HETATM    2  N1  UNK     1      18.444   3.856  32.726  1.00  0.00    -0.323 N 
HETATM    3  C8  UNK     1      18.494   3.066  31.560  1.00  0.00     0.259 C 
HETATM    4  H3  UNK     1      18.628   3.400  33.616  1.00  0.00     0.169 HD
ENDROOT
BRANCH   2   5
HETATM    5  C1  UNK     1      18.223   5.229  32.835  1.00  0.00     0.035 A 
HETATM    6  C4  UNK     1      19.160   6.035  33.487  1.00  0.00     0.043 A 
HETATM    7  C2  UNK     1      18.943   7.410  33.597  1.00  0.00     0.000 A 
HETATM    8  C3  UNK     1      17.782   7.953  33.050  1.00  0.00     0.089 A 
HETATM    9  C9  UNK     1      19.884   8.295  34.263  1.00  0.00     0.020 A 
HETATM   10  O1  UNK     1      17.525   9.336  33.142  1.00  0.00    -0.275 OA
HETATM   11  C7  UNK     1      16.839   7.162  32.398  1.00  0.00     0.040 A 
HETATM   12  C15 UNK     1      18.412  10.202  33.774  1.00  0.00     0.288 A 
HETATM   13  C13 UNK     1      19.633   9.603  34.345  1.00  0.00     0.083 A 
HETATM   14  O4  UNK     1      18.196  11.406  33.858  1.00  0.00    -0.260 OA
HETATM   15  C5  UNK     1      17.065   5.791  32.292  1.00  0.00     0.032 A 
ENDBRANCH   2   5
BRANCH   3  16
HETATM   16  C6  UNK     1      18.707   1.626  31.790  1.00  0.00     0.067 A 
HETATM   17  C10 UNK     1      18.235   1.025  32.947  1.00  0.00     0.084 A 
HETATM   18  C12 UNK     1      18.447  -0.339  33.146  1.00  0.00     0.039 A 
HETATM   19  C16 UNK     1      19.127  -1.086  32.185  1.00  0.00     0.022 A 
HETATM   20  C14 UNK     1      19.597  -0.469  31.024  1.00  0.00     0.012 A 
HETATM   21 Br1  UNK     1      20.516  -1.483  29.722  1.00  0.00    -0.051 Br
HETATM   22  C11 UNK     1      19.386   0.895  30.827  1.00  0.00     0.039 A 
BRANCH  17  23
HETATM   23  O2  UNK     1      17.567   1.737  33.897  1.00  0.00    -0.355 OA
HETATM   24  C17 UNK     1      17.532   1.188  35.213  1.00  0.00     0.210 C 
ENDBRANCH  17  23
ENDBRANCH   3  16
TORSDOF 3
ENDMDL
MODEL 3
REMARK VINA RESULT:      -8.6      7.403     11.950
REMARK  3 active torsions:
REMARK  status: ('A' for Active; 'I' for Inactive)
REMARK    1  A    between atoms: C10_16  and  O2_3 
REMARK    2  A    between atoms: C1_7  and  N1_6 
REMARK       I    between atoms: C8_14  and  N1_6 
REMARK    3  A    between atoms: C6_12  and  C8_14 
ROOT
HETATM    1  O3  UNK     1      21.295  -2.595  35.704  1.00  0.00    -0.267 OA
HETATM    2  N1  UNK     1      19.347  -3.831  36.036  1.00  0.00    -0.323 N 
HETATM    3  C8  UNK     1      20.067  -2.661  35.721  1.00  0.00     0.259 C 
HETATM    4  H3  UNK     1      18.333  -3.793  35.978  1.00  0.00     0.169 HD
ENDROOT
BRANCH   2   5
HETATM    5  C1  UNK     1      19.843  -5.089  36.377  1.00  0.00     0.035 A 
HETATM    6  C4  UNK     1      20.149  -6.012  35.373  1.00  0.00     0.043 A 
HETATM    7  C2  UNK     1      20.646  -7.273  35.711  1.00  0.00     0.000 A 
HETATM    8  C3  UNK     1      20.826  -7.586  37.056  1.00  0.00     0.089 A 
HETATM    9  C9  UNK     1      20.982  -8.269  34.708  1.00  0.00     0.020 A 
HETATM   10  O1  UNK     1      21.324  -8.849  37.437  1.00  0.00    -0.275 OA
HETATM   11  C7  UNK     1      20.525  -6.677  38.067  1.00  0.00     0.040 A 
HETATM   12  C15 UNK     1      21.652  -9.818  36.495  1.00  0.00     0.288 A 
HETATM   13  C13 UNK     1      21.453  -9.462  35.078  1.00  0.00     0.083 A 
HETATM   14  O4  UNK     1      22.086 -10.918  36.819  1.00  0.00    -0.260 OA
HETATM   15  C5  UNK     1      20.030  -5.421  37.721  1.00  0.00     0.032 A 
ENDBRANCH   2   5
BRANCH   3  16
HETATM   16  C6  UNK     1      19.240  -1.474  35.442  1.00  0.00     0.067 A 
HETATM   17  C10 UNK     1      19.038  -1.054  34.136  1.00  0.00     0.084 A 
HETATM   18  C12 UNK     1      18.252   0.073  33.893  1.00  0.00     0.039 A 
HETATM   19  C16 UNK     1      17.676   0.763  34.959  1.00  0.00     0.022 A 
HETATM   20  C14 UNK     1      17.886   0.330  36.268  1.00  0.00     0.012 A 
HETATM   21 Br1  UNK     1      17.104   1.266  37.710  1.00  0.00    -0.051 Br
HETATM   22  C11 UNK     1      18.674  -0.796  36.510  1.00  0.00     0.039 A 
BRANCH  17  23
HETATM   23  O2  UNK     1      19.591  -1.716  33.081  1.00  0.00    -0.355 OA
HETATM   24  C17 UNK     1      19.354  -1.177  31.783  1.00  0.00     0.210 C 
ENDBRANCH  17  23
ENDBRANCH   3  16
TORSDOF 3
ENDMDL
MODEL 4
REMARK VINA RESULT:      -8.6      1.485      2.539
REMARK  3 active torsions:
REMARK  status: ('A' for Active; 'I' for Inactive)
REMARK    1  A    between atoms: C10_16  and  O2_3 
REMARK    2  A    between atoms: C1_7  and  N1_6 
REMARK       I    between atoms: C8_14  and  N1_6 
REMARK    3  A    between atoms: C6_12  and  C8_14 
ROOT
HETATM    1  O3  UNK     1      17.176   2.724  30.693  1.00  0.00    -0.267 OA
HETATM    2  N1  UNK     1      18.617   3.497  32.352  1.00  0.00    -0.323 N 
HETATM    3  C8  UNK     1      18.064   2.508  31.515  1.00  0.00     0.259 C 
HETATM    4  H3  UNK     1      19.380   3.225  32.968  1.00  0.00     0.169 HD
ENDROOT
BRANCH   2   5
HETATM    5  C1  UNK     1      18.295   4.852  32.425  1.00  0.00     0.035 A 
HETATM    6  C4  UNK     1      17.722   5.370  33.590  1.00  0.00     0.043 A 
HETATM    7  C2  UNK     1      17.399   6.726  33.666  1.00  0.00     0.000 A 
HETATM    8  C3  UNK     1      17.657   7.542  32.567  1.00  0.00     0.089 A 
HETATM    9  C9  UNK     1      16.803   7.317  34.852  1.00  0.00     0.020 A 
HETATM   10  O1  UNK     1      17.343   8.916  32.604  1.00  0.00    -0.275 OA
HETATM   11  C7  UNK     1      18.227   7.039  31.399  1.00  0.00     0.040 A 
HETATM   12  C15 UNK     1      16.772   9.503  33.728  1.00  0.00     0.288 A 
HETATM   13  C13 UNK     1      16.510   8.620  34.879  1.00  0.00     0.083 A 
HETATM   14  O4  UNK     1      16.497  10.697  33.769  1.00  0.00    -0.260 OA
HETATM   15  C5  UNK     1      18.547   5.685  31.332  1.00  0.00     0.032 A 
ENDBRANCH   2   5
BRANCH   3  16
HETATM   16  C6  UNK     1      18.599   1.149  31.714  1.00  0.00     0.067 A 
HETATM   17  C10 UNK     1      18.419   0.498  32.924  1.00  0.00     0.084 A 
HETATM   18  C12 UNK     1      18.933  -0.788  33.093  1.00  0.00     0.039 A 
HETATM   19  C16 UNK     1      19.619  -1.406  32.049  1.00  0.00     0.022 A 
HETATM   20  C14 UNK     1      19.793  -0.740  30.835  1.00  0.00     0.012 A 
HETATM   21 Br1  UNK     1      20.721  -1.581  29.421  1.00  0.00    -0.051 Br
HETATM   22  C11 UNK     1      19.280   0.546  30.668  1.00  0.00     0.039 A 
BRANCH  17  23
HETATM   23  O2  UNK     1      17.750   1.084  33.956  1.00  0.00    -0.355 OA
HETATM   24  C17 UNK     1      18.454   1.223  35.189  1.00  0.00     0.210 C 
ENDBRANCH  17  23
ENDBRANCH   3  16
TORSDOF 3
ENDMDL
MODEL 5
REMARK VINA RESULT:      -8.5      6.874      9.070
REMARK  3 active torsions:
REMARK  status: ('A' for Active; 'I' for Inactive)
REMARK    1  A    between atoms: C10_16  and  O2_3 
REMARK    2  A    between atoms: C1_7  and  N1_6 
REMARK       I    between atoms: C8_14  and  N1_6 
REMARK    3  A    between atoms: C6_12  and  C8_14 
ROOT
HETATM    1  O3  UNK     1      20.477  -4.437  35.635  1.00  0.00    -0.267 OA
HETATM    2  N1  UNK     1      18.924  -3.622  37.169  1.00  0.00    -0.323 N 
HETATM    3  C8  UNK     1      19.792  -4.600  36.642  1.00  0.00     0.259 C 
HETATM    4  H3  UNK     1      18.434  -3.839  38.033  1.00  0.00     0.169 HD
ENDROOT
BRANCH   2   5
HETATM    5  C1  UNK     1      18.673  -2.336  36.690  1.00  0.00     0.035 A 
HETATM    6  C4  UNK     1      18.843  -2.054  35.331  1.00  0.00     0.043 A 
HETATM    7  C2  UNK     1      18.592  -0.769  34.848  1.00  0.00     0.000 A 
HETATM    8  C3  UNK     1      18.172   0.215  35.740  1.00  0.00     0.089 A 
HETATM    9  C9  UNK     1      18.752  -0.421  33.446  1.00  0.00     0.020 A 
HETATM   10  O1  UNK     1      17.910   1.526  35.291  1.00  0.00    -0.275 OA
HETATM   11  C7  UNK     1      17.998  -0.052  37.097  1.00  0.00     0.040 A 
HETATM   12  C15 UNK     1      18.056   1.881  33.954  1.00  0.00     0.288 A 
HETATM   13  C13 UNK     1      18.501   0.822  33.030  1.00  0.00     0.083 A 
HETATM   14  O4  UNK     1      17.829   3.019  33.556  1.00  0.00    -0.260 OA
HETATM   15  C5  UNK     1      18.251  -1.337  37.570  1.00  0.00     0.032 A 
ENDBRANCH   2   5
BRANCH   3  16
HETATM   16  C6  UNK     1      19.801  -5.883  37.366  1.00  0.00     0.067 A 
HETATM   17  C10 UNK     1      18.718  -6.745  37.274  1.00  0.00     0.084 A 
HETATM   18  C12 UNK     1      18.745  -7.955  37.967  1.00  0.00     0.039 A 
HETATM   19  C16 UNK     1      19.856  -8.289  38.743  1.00  0.00     0.022 A 
HETATM   20  C14 UNK     1      20.938  -7.413  38.826  1.00  0.00     0.012 A 
HETATM   21 Br1  UNK     1      22.442  -7.868  39.876  1.00  0.00    -0.051 Br
HETATM   22  C11 UNK     1      20.910  -6.202  38.134  1.00  0.00     0.039 A 
BRANCH  17  23
HETATM   23  O2  UNK     1      17.625  -6.438  36.520  1.00  0.00    -0.355 OA
HETATM   24  C17 UNK     1      17.309  -7.323  35.448  1.00  0.00     0.210 C 
ENDBRANCH  17  23
ENDBRANCH   3  16
TORSDOF 3
ENDMDL
MODEL 6
REMARK VINA RESULT:      -8.5      2.158      2.784
REMARK  3 active torsions:
REMARK  status: ('A' for Active; 'I' for Inactive)
REMARK    1  A    between atoms: C10_16  and  O2_3 
REMARK    2  A    between atoms: C1_7  and  N1_6 
REMARK       I    between atoms: C8_14  and  N1_6 
REMARK    3  A    between atoms: C6_12  and  C8_14 
ROOT
HETATM    1  O3  UNK     1      18.186   3.515  30.997  1.00  0.00    -0.267 OA
HETATM    2  N1  UNK     1      18.304   4.046  33.263  1.00  0.00    -0.323 N 
HETATM    3  C8  UNK     1      18.313   3.160  32.166  1.00  0.00     0.259 C 
HETATM    4  H3  UNK     1      18.462   3.657  34.188  1.00  0.00     0.169 HD
ENDROOT
BRANCH   2   5
HETATM    5  C1  UNK     1      18.156   5.433  33.256  1.00  0.00     0.035 A 
HETATM    6  C4  UNK     1      19.135   6.240  33.843  1.00  0.00     0.043 A 
HETATM    7  C2  UNK     1      18.991   7.629  33.838  1.00  0.00     0.000 A 
HETATM    8  C3  UNK     1      17.862   8.185  33.241  1.00  0.00     0.089 A 
HETATM    9  C9  UNK     1      19.978   8.514  34.433  1.00  0.00     0.020 A 
HETATM   10  O1  UNK     1      17.680   9.583  33.216  1.00  0.00    -0.275 OA
HETATM   11  C7  UNK     1      16.879   7.394  32.652  1.00  0.00     0.040 A 
HETATM   12  C15 UNK     1      18.611  10.450  33.779  1.00  0.00     0.288 A 
HETATM   13  C13 UNK     1      19.797   9.837  34.404  1.00  0.00     0.083 A 
HETATM   14  O4  UNK     1      18.459  11.667  33.761  1.00  0.00    -0.260 OA
HETATM   15  C5  UNK     1      17.031   6.009  32.662  1.00  0.00     0.032 A 
ENDBRANCH   2   5
BRANCH   3  16
HETATM   16  C6  UNK     1      18.449   1.735  32.516  1.00  0.00     0.067 A 
HETATM   17  C10 UNK     1      19.017   0.846  31.616  1.00  0.00     0.084 A 
HETATM   18  C12 UNK     1      19.136  -0.500  31.966  1.00  0.00     0.039 A 
HETATM   19  C16 UNK     1      18.687  -0.938  33.211  1.00  0.00     0.022 A 
HETATM   20  C14 UNK     1      18.119  -0.033  34.107  1.00  0.00     0.012 A 
HETATM   21 Br1  UNK     1      17.513  -0.629  35.795  1.00  0.00    -0.051 Br
HETATM   22  C11 UNK     1      17.998   1.312  33.757  1.00  0.00     0.039 A 
BRANCH  17  23
HETATM   23  O2  UNK     1      19.462   1.255  30.395  1.00  0.00    -0.355 OA
HETATM   24  C17 UNK     1      19.800   0.237  29.455  1.00  0.00     0.210 C 
ENDBRANCH  17  23
ENDBRANCH   3  16
TORSDOF 3
ENDMDL
MODEL 7
REMARK VINA RESULT:      -8.5      7.829     12.159
REMARK  3 active torsions:
REMARK  status: ('A' for Active; 'I' for Inactive)
REMARK    1  A    between atoms: C10_16  and  O2_3 
REMARK    2  A    between atoms: C1_7  and  N1_6 
REMARK       I    between atoms: C8_14  and  N1_6 
REMARK    3  A    between atoms: C6_12  and  C8_14 
ROOT
HETATM    1  O3  UNK     1      21.120  -3.139  36.443  1.00  0.00    -0.267 OA
HETATM    2  N1  UNK     1      19.176  -4.220  35.748  1.00  0.00    -0.323 N 
HETATM    3  C8  UNK     1      19.974  -3.086  36.002  1.00  0.00     0.259 C 
HETATM    4  H3  UNK     1      18.256  -4.071  35.340  1.00  0.00     0.169 HD
ENDROOT
BRANCH   2   5
HETATM    5  C1  UNK     1      19.496  -5.565  35.932  1.00  0.00     0.035 A 
HETATM    6  C4  UNK     1      19.187  -6.195  37.141  1.00  0.00     0.043 A 
HETATM    7  C2  UNK     1      19.506  -7.541  37.329  1.00  0.00     0.000 A 
HETATM    8  C3  UNK     1      20.131  -8.235  36.295  1.00  0.00     0.089 A 
HETATM    9  C9  UNK     1      19.207  -8.245  38.565  1.00  0.00     0.020 A 
HETATM   10  O1  UNK     1      20.471  -9.595  36.447  1.00  0.00    -0.275 OA
HETATM   11  C7  UNK     1      20.445  -7.620  35.085  1.00  0.00     0.040 A 
HETATM   12  C15 UNK     1      20.194 -10.289  37.621  1.00  0.00     0.288 A 
HETATM   13  C13 UNK     1      19.531  -9.533  38.699  1.00  0.00     0.083 A 
HETATM   14  O4  UNK     1      20.486 -11.472  37.760  1.00  0.00    -0.260 OA
HETATM   15  C5  UNK     1      20.123  -6.277  34.907  1.00  0.00     0.032 A 
ENDBRANCH   2   5
BRANCH   3  16
HETATM   16  C6  UNK     1      19.322  -1.792  35.738  1.00  0.00     0.067 A 
HETATM   17  C10 UNK     1      19.243  -1.300  34.443  1.00  0.00     0.084 A 
HETATM   18  C12 UNK     1      18.622  -0.072  34.214  1.00  0.00     0.039 A 
HETATM   19  C16 UNK     1      18.087   0.648  35.281  1.00  0.00     0.022 A 
HETATM   20  C14 UNK     1      18.172   0.142  36.579  1.00  0.00     0.012 A 
HETATM   21 Br1  UNK     1      17.445   1.118  38.023  1.00  0.00    -0.051 Br
HETATM   22  C11 UNK     1      18.795  -1.085  36.808  1.00  0.00     0.039 A 
BRANCH  17  23
HETATM   23  O2  UNK     1      19.758  -1.990  33.387  1.00  0.00    -0.355 OA
HETATM   24  C17 UNK     1      19.399  -1.538  32.083  1.00  0.00     0.210 C 
ENDBRANCH  17  23
ENDBRANCH   3  16
TORSDOF 3
ENDMDL
MODEL 8
REMARK VINA RESULT:      -8.5      3.278      8.292
REMARK  3 active torsions:
REMARK  status: ('A' for Active; 'I' for Inactive)
REMARK    1  A    between atoms: C10_16  and  O2_3 
REMARK    2  A    between atoms: C1_7  and  N1_6 
REMARK       I    between atoms: C8_14  and  N1_6 
REMARK    3  A    between atoms: C6_12  and  C8_14 
ROOT
HETATM    1  O3  UNK     1      19.602   5.349  31.829  1.00  0.00    -0.267 OA
HETATM    2  N1  UNK     1      17.761   3.996  32.283  1.00  0.00    -0.323 N 
HETATM    3  C8  UNK     1      18.427   5.233  32.169  1.00  0.00     0.259 C 
HETATM    4  H3  UNK     1      16.774   4.010  32.529  1.00  0.00     0.169 HD
ENDROOT
BRANCH   2   5
HETATM    5  C1  UNK     1      18.262   2.715  32.048  1.00  0.00     0.035 A 
HETATM    6  C4  UNK     1      18.719   2.370  30.774  1.00  0.00     0.043 A 
HETATM    7  C2  UNK     1      19.221   1.089  30.535  1.00  0.00     0.000 A 
HETATM    8  C3  UNK     1      19.256   0.174  31.585  1.00  0.00     0.089 A 
HETATM    9  C9  UNK     1      19.710   0.677  29.230  1.00  0.00     0.020 A 
HETATM   10  O1  UNK     1      19.754  -1.129  31.384  1.00  0.00    -0.275 OA
HETATM   11  C7  UNK     1      18.803   0.504  32.860  1.00  0.00     0.040 A 
HETATM   12  C15 UNK     1      20.227  -1.546  30.143  1.00  0.00     0.288 A 
HETATM   13  C13 UNK     1      20.181  -0.559  29.049  1.00  0.00     0.083 A 
HETATM   14  O4  UNK     1      20.663  -2.677  29.961  1.00  0.00    -0.260 OA
HETATM   15  C5  UNK     1      18.304   1.784  33.089  1.00  0.00     0.032 A 
ENDBRANCH   2   5
BRANCH   3  16
HETATM   16  C6  UNK     1      17.622   6.412  32.531  1.00  0.00     0.067 A 
HETATM   17  C10 UNK     1      18.223   7.515  33.120  1.00  0.00     0.084 A 
HETATM   18  C12 UNK     1      17.443   8.622  33.455  1.00  0.00     0.039 A 
HETATM   19  C16 UNK     1      16.073   8.613  33.196  1.00  0.00     0.022 A 
HETATM   20  C14 UNK     1      15.481   7.498  32.602  1.00  0.00     0.012 A 
HETATM   21 Br1  UNK     1      13.625   7.489  32.251  1.00  0.00    -0.051 Br
HETATM   22  C11 UNK     1      16.261   6.390  32.269  1.00  0.00     0.039 A 
BRANCH  17  23
HETATM   23  O2  UNK     1      19.560   7.544  33.379  1.00  0.00    -0.355 OA
HETATM   24  C17 UNK     1      20.020   8.530  34.300  1.00  0.00     0.210 C 
ENDBRANCH  17  23
ENDBRANCH   3  16
TORSDOF 3
ENDMDL
MODEL 9
REMARK VINA RESULT:      -8.4     12.920     15.781
REMARK  3 active torsions:
REMARK  status: ('A' for Active; 'I' for Inactive)
REMARK    1  A    between atoms: C10_16  and  O2_3 
REMARK    2  A    between atoms: C1_7  and  N1_6 
REMARK       I    between atoms: C8_14  and  N1_6 
REMARK    3  A    between atoms: C6_12  and  C8_14 
ROOT
HETATM    1  O3  UNK     1      16.974  -2.143  16.217  1.00  0.00    -0.267 OA
HETATM    2  N1  UNK     1      19.138  -1.289  16.077  1.00  0.00    -0.323 N 
HETATM    3  C8  UNK     1      18.078  -2.127  15.676  1.00  0.00     0.259 C 
HETATM    4  H3  UNK     1      19.998  -1.320  15.534  1.00  0.00     0.169 HD
ENDROOT
BRANCH   2   5
HETATM    5  C1  UNK     1      19.162  -0.355  17.113  1.00  0.00     0.035 A 
HETATM    6  C4  UNK     1      19.357  -0.781  18.429  1.00  0.00     0.043 A 
HETATM    7  C2  UNK     1      19.382   0.151  19.469  1.00  0.00     0.000 A 
HETATM    8  C3  UNK     1      19.209   1.500  19.166  1.00  0.00     0.089 A 
HETATM    9  C9  UNK     1      19.581  -0.236  20.855  1.00  0.00     0.020 A 
HETATM   10  O1  UNK     1      19.226   2.472  20.188  1.00  0.00    -0.275 OA
HETATM   11  C7  UNK     1      19.014   1.939  17.859  1.00  0.00     0.040 A 
HETATM   12  C15 UNK     1      19.416   2.124  21.522  1.00  0.00     0.288 A 
HETATM   13  C13 UNK     1      19.597   0.691  21.816  1.00  0.00     0.083 A 
HETATM   14  O4  UNK     1      19.432   2.963  22.416  1.00  0.00    -0.260 OA
HETATM   15  C5  UNK     1      18.991   1.002  16.828  1.00  0.00     0.032 A 
ENDBRANCH   2   5
BRANCH   3  16
HETATM   16  C6  UNK     1      18.389  -3.038  14.561  1.00  0.00     0.067 A 
HETATM   17  C10 UNK     1      19.034  -2.563  13.429  1.00  0.00     0.084 A 
HETATM   18  C12 UNK     1      19.320  -3.443  12.384  1.00  0.00     0.039 A 
HETATM   19  C16 UNK     1      18.958  -4.786  12.485  1.00  0.00     0.022 A 
HETATM   20  C14 UNK     1      18.310  -5.251  13.630  1.00  0.00     0.012 A 
HETATM   21 Br1  UNK     1      17.823  -7.071  13.765  1.00  0.00    -0.051 Br
HETATM   22  C11 UNK     1      18.023  -4.371  14.674  1.00  0.00     0.039 A 
BRANCH  17  23
HETATM   23  O2  UNK     1      19.397  -1.255  13.312  1.00  0.00    -0.355 OA
HETATM   24  C17 UNK     1      20.725  -0.990  12.865  1.00  0.00     0.210 C 
ENDBRANCH  17  23
ENDBRANCH   3  16
TORSDOF 3
ENDMDL
MODEL 10
REMARK VINA RESULT:      -8.4     12.971     15.846
REMARK  3 active torsions:
REMARK  status: ('A' for Active; 'I' for Inactive)
REMARK    1  A    between atoms: C10_16  and  O2_3 
REMARK    2  A    between atoms: C1_7  and  N1_6 
REMARK       I    between atoms: C8_14  and  N1_6 
REMARK    3  A    between atoms: C6_12  and  C8_14 
ROOT
HETATM    1  O3  UNK     1      17.149  -2.242  16.328  1.00  0.00    -0.267 OA
HETATM    2  N1  UNK     1      19.155  -1.103  15.997  1.00  0.00    -0.323 N 
HETATM    3  C8  UNK     1      18.175  -2.065  15.676  1.00  0.00     0.259 C 
HETATM    4  H3  UNK     1      19.947  -1.005  15.368  1.00  0.00     0.169 HD
ENDROOT
BRANCH   2   5
HETATM    5  C1  UNK     1      19.168  -0.199  17.060  1.00  0.00     0.035 A 
HETATM    6  C4  UNK     1      19.352  -0.664  18.365  1.00  0.00     0.043 A 
HETATM    7  C2  UNK     1      19.367   0.238  19.432  1.00  0.00     0.000 A 
HETATM    8  C3  UNK     1      19.194   1.595  19.168  1.00  0.00     0.089 A 
HETATM    9  C9  UNK     1      19.556  -0.190  20.808  1.00  0.00     0.020 A 
HETATM   10  O1  UNK     1      19.201   2.536  20.217  1.00  0.00    -0.275 OA
HETATM   11  C7  UNK     1      19.009   2.071  17.872  1.00  0.00     0.040 A 
HETATM   12  C15 UNK     1      19.380   2.150  21.542  1.00  0.00     0.288 A 
HETATM   13  C13 UNK     1      19.561   0.709  21.795  1.00  0.00     0.083 A 
HETATM   14  O4  UNK     1      19.388   2.963  22.460  1.00  0.00    -0.260 OA
HETATM   15  C5  UNK     1      18.996   1.165  16.814  1.00  0.00     0.032 A 
ENDBRANCH   2   5
BRANCH   3  16
HETATM   16  C6  UNK     1      18.481  -2.899  14.502  1.00  0.00     0.067 A 
HETATM   17  C10 UNK     1      18.176  -4.253  14.507  1.00  0.00     0.084 A 
HETATM   18  C12 UNK     1      18.474  -5.026  13.385  1.00  0.00     0.039 A 
HETATM   19  C16 UNK     1      19.070  -4.436  12.270  1.00  0.00     0.022 A 
HETATM   20  C14 UNK     1      19.370  -3.074  12.277  1.00  0.00     0.012 A 
HETATM   21 Br1  UNK     1      20.176  -2.277  10.766  1.00  0.00    -0.051 Br
HETATM   22  C11 UNK     1      19.074  -2.301  13.400  1.00  0.00     0.039 A 
BRANCH  17  23
HETATM   23  O2  UNK     1      17.592  -4.847  15.585  1.00  0.00    -0.355 OA
HETATM   24  C17 UNK     1      17.988  -6.185  15.880  1.00  0.00     0.210 C 
ENDBRANCH  17  23
ENDBRANCH   3  16
TORSDOF 3
ENDMDL
