MODEL 1
REMARK VINA RESULT:      -8.8      0.000      0.000
REMARK  3 active torsions:
REMARK  status: ('A' for Active; 'I' for Inactive)
REMARK    1  A    between atoms: C16_20  and  O2_2 
REMARK    2  A    between atoms: C4_8  and  O2_2 
REMARK    3  A    between atoms: C2_6  and  C6_10 
ROOT
HETATM    1  N1  UNK     1      17.495   6.664  32.322  1.00  0.00    -0.195 NA
HETATM    2  C16 UNK     1      18.576   4.324  32.805  1.00  0.00     0.299 C 
HETATM    3  C17 UNK     1      17.973   5.629  32.536  1.00  0.00     0.085 C 
ENDROOT
BRANCH   2   4
HETATM    4  O2  UNK     1      17.616   3.294  32.659  1.00  0.00    -0.331 OA
BRANCH   4   5
HETATM    5  C4  UNK     1      18.217   2.113  32.281  1.00  0.00     0.155 A 
HETATM    6  C2  UNK     1      18.408   1.083  33.125  1.00  0.00     0.123 A 
HETATM    7  O1  UNK     1      19.037  -0.104  32.787  1.00  0.00    -0.306 OA
HETATM    8  C3  UNK     1      19.481  -0.265  31.500  1.00  0.00     0.090 A 
HETATM    9  C1  UNK     1      19.339   0.717  30.523  1.00  0.00     0.051 A 
HETATM   10  C8  UNK     1      20.098  -1.476  31.187  1.00  0.00     0.038 A 
HETATM   11  C5  UNK     1      18.686   1.986  30.880  1.00  0.00     0.221 A 
HETATM   12  C7  UNK     1      19.811   0.497  29.227  1.00  0.00     0.018 A 
HETATM   13  O3  UNK     1      18.538   2.888  30.067  1.00  0.00    -0.284 OA
HETATM   14  C11 UNK     1      20.428  -0.715  28.915  1.00  0.00     0.001 A 
HETATM   15  C12 UNK     1      20.572  -1.700  29.894  1.00  0.00     0.003 A 
BRANCH   6  16
HETATM   16  C6  UNK     1      17.979   1.126  34.534  1.00  0.00     0.001 A 
HETATM   17  C10 UNK     1      16.767   0.550  34.913  1.00  0.00     0.014 A 
HETATM   18  C14 UNK     1      16.361   0.592  36.248  1.00  0.00     0.001 A 
HETATM   19  C15 UNK     1      17.168   1.210  37.203  1.00  0.00     0.000 A 
HETATM   20  C13 UNK     1      18.380   1.788  36.824  1.00  0.00     0.001 A 
HETATM   21  C9  UNK     1      18.786   1.745  35.490  1.00  0.00     0.014 A 
ENDBRANCH   6  16
ENDBRANCH   4   5
ENDBRANCH   2   4
TORSDOF 3
ENDMDL
MODEL 2
REMARK VINA RESULT:      -8.6      3.388      4.706
REMARK  3 active torsions:
REMARK  status: ('A' for Active; 'I' for Inactive)
REMARK    1  A    between atoms: C16_20  and  O2_2 
REMARK    2  A    between atoms: C4_8  and  O2_2 
REMARK    3  A    between atoms: C2_6  and  C6_10 
ROOT
HETATM    1  N1  UNK     1      21.004  -4.289  37.105  1.00  0.00    -0.195 NA
HETATM    2  C16 UNK     1      20.437  -2.091  35.791  1.00  0.00     0.299 C 
HETATM    3  C17 UNK     1      20.753  -3.317  36.523  1.00  0.00     0.085 C 
ENDROOT
BRANCH   2   4
HETATM    4  O2  UNK     1      19.232  -2.245  35.064  1.00  0.00    -0.331 OA
BRANCH   4   5
HETATM    5  C4  UNK     1      19.240  -1.461  33.931  1.00  0.00     0.155 A 
HETATM    6  C2  UNK     1      18.617  -0.271  33.857  1.00  0.00     0.123 A 
HETATM    7  O1  UNK     1      18.578   0.527  32.725  1.00  0.00    -0.306 OA
HETATM    8  C3  UNK     1      19.234   0.098  31.600  1.00  0.00     0.090 A 
HETATM    9  C1  UNK     1      19.926  -1.109  31.543  1.00  0.00     0.051 A 
HETATM   10  C8  UNK     1      19.187   0.929  30.480  1.00  0.00     0.038 A 
HETATM   11  C5  UNK     1      19.958  -1.968  32.737  1.00  0.00     0.221 A 
HETATM   12  C7  UNK     1      20.577  -1.495  30.368  1.00  0.00     0.018 A 
HETATM   13  O3  UNK     1      20.545  -3.042  32.745  1.00  0.00    -0.284 OA
HETATM   14  C11 UNK     1      20.529  -0.662  29.249  1.00  0.00     0.001 A 
HETATM   15  C12 UNK     1      19.835   0.547  29.305  1.00  0.00     0.003 A 
BRANCH   6  16
HETATM   16  C6  UNK     1      17.875   0.305  34.992  1.00  0.00     0.001 A 
HETATM   17  C10 UNK     1      16.519   0.021  35.156  1.00  0.00     0.014 A 
HETATM   18  C14 UNK     1      15.817   0.567  36.231  1.00  0.00     0.001 A 
HETATM   19  C15 UNK     1      16.471   1.398  37.141  1.00  0.00     0.000 A 
HETATM   20  C13 UNK     1      17.826   1.683  36.977  1.00  0.00     0.001 A 
HETATM   21  C9  UNK     1      18.528   1.136  35.903  1.00  0.00     0.014 A 
ENDBRANCH   6  16
ENDBRANCH   4   5
ENDBRANCH   2   4
TORSDOF 3
ENDMDL
MODEL 3
REMARK VINA RESULT:      -7.9      2.387      4.657
REMARK  3 active torsions:
REMARK  status: ('A' for Active; 'I' for Inactive)
REMARK    1  A    between atoms: C16_20  and  O2_2 
REMARK    2  A    between atoms: C4_8  and  O2_2 
REMARK    3  A    between atoms: C2_6  and  C6_10 
ROOT
HETATM    1  N1  UNK     1      20.283  -2.115  30.048  1.00  0.00    -0.195 NA
HETATM    2  C16 UNK     1      19.813  -0.381  31.960  1.00  0.00     0.299 C 
HETATM    3  C17 UNK     1      20.075  -1.347  30.893  1.00  0.00     0.085 C 
ENDROOT
BRANCH   2   4
HETATM    4  O2  UNK     1      18.482   0.094  31.883  1.00  0.00    -0.331 OA
BRANCH   4   5
HETATM    5  C4  UNK     1      18.440   1.464  32.024  1.00  0.00     0.155 A 
HETATM    6  C2  UNK     1      18.115   2.074  33.179  1.00  0.00     0.123 A 
HETATM    7  O1  UNK     1      18.033   3.446  33.346  1.00  0.00    -0.306 OA
HETATM    8  C3  UNK     1      18.322   4.254  32.277  1.00  0.00     0.090 A 
HETATM    9  C1  UNK     1      18.681   3.754  31.028  1.00  0.00     0.051 A 
HETATM   10  C8  UNK     1      18.243   5.632  32.480  1.00  0.00     0.038 A 
HETATM   11  C5  UNK     1      18.756   2.297  30.839  1.00  0.00     0.221 A 
HETATM   12  C7  UNK     1      18.965   4.626  29.973  1.00  0.00     0.018 A 
HETATM   13  O3  UNK     1      19.059   1.800  29.763  1.00  0.00    -0.284 OA
HETATM   14  C11 UNK     1      18.886   6.004  30.179  1.00  0.00     0.001 A 
HETATM   15  C12 UNK     1      18.525   6.506  31.430  1.00  0.00     0.003 A 
BRANCH   6  16
HETATM   16  C6  UNK     1      17.783   1.323  34.402  1.00  0.00     0.001 A 
HETATM   17  C10 UNK     1      18.635   1.373  35.505  1.00  0.00     0.014 A 
HETATM   18  C14 UNK     1      18.320   0.662  36.664  1.00  0.00     0.001 A 
HETATM   19  C15 UNK     1      17.152  -0.099  36.718  1.00  0.00     0.000 A 
HETATM   20  C13 UNK     1      16.300  -0.150  35.615  1.00  0.00     0.001 A 
HETATM   21  C9  UNK     1      16.615   0.562  34.458  1.00  0.00     0.014 A 
ENDBRANCH   6  16
ENDBRANCH   4   5
ENDBRANCH   2   4
TORSDOF 3
ENDMDL
MODEL 4
REMARK VINA RESULT:      -7.7      1.973      4.413
REMARK  3 active torsions:
REMARK  status: ('A' for Active; 'I' for Inactive)
REMARK    1  A    between atoms: C16_20  and  O2_2 
REMARK    2  A    between atoms: C4_8  and  O2_2 
REMARK    3  A    between atoms: C2_6  and  C6_10 
ROOT
HETATM    1  N1  UNK     1      18.268   1.450  37.036  1.00  0.00    -0.195 NA
HETATM    2  C16 UNK     1      18.768   2.717  34.794  1.00  0.00     0.299 C 
HETATM    3  C17 UNK     1      18.489   2.010  36.044  1.00  0.00     0.085 C 
ENDROOT
BRANCH   2   4
HETATM    4  O2  UNK     1      17.808   2.381  33.810  1.00  0.00    -0.331 OA
BRANCH   4   5
HETATM    5  C4  UNK     1      18.410   1.800  32.716  1.00  0.00     0.155 A 
HETATM    6  C2  UNK     1      18.737   2.486  31.606  1.00  0.00     0.123 A 
HETATM    7  O1  UNK     1      19.313   1.927  30.477  1.00  0.00    -0.306 OA
HETATM    8  C3  UNK     1      19.598   0.586  30.484  1.00  0.00     0.090 A 
HETATM    9  C1  UNK     1      19.321  -0.240  31.572  1.00  0.00     0.051 A 
HETATM   10  C8  UNK     1      20.190   0.054  29.338  1.00  0.00     0.038 A 
HETATM   11  C5  UNK     1      18.695   0.345  32.768  1.00  0.00     0.221 A 
HETATM   12  C7  UNK     1      19.633  -1.601  31.523  1.00  0.00     0.018 A 
HETATM   13  O3  UNK     1      18.422  -0.331  33.750  1.00  0.00    -0.284 OA
HETATM   14  C11 UNK     1      20.226  -2.130  30.375  1.00  0.00     0.001 A 
HETATM   15  C12 UNK     1      20.503  -1.304  29.285  1.00  0.00     0.003 A 
BRANCH   6  16
HETATM   16  C6  UNK     1      18.485   3.931  31.467  1.00  0.00     0.001 A 
HETATM   17  C10 UNK     1      19.141   4.663  30.478  1.00  0.00     0.014 A 
HETATM   18  C14 UNK     1      18.903   6.031  30.347  1.00  0.00     0.001 A 
HETATM   19  C15 UNK     1      18.008   6.668  31.207  1.00  0.00     0.000 A 
HETATM   20  C13 UNK     1      17.352   5.937  32.198  1.00  0.00     0.001 A 
HETATM   21  C9  UNK     1      17.590   4.569  32.327  1.00  0.00     0.014 A 
ENDBRANCH   6  16
ENDBRANCH   4   5
ENDBRANCH   2   4
TORSDOF 3
ENDMDL
MODEL 5
REMARK VINA RESULT:      -7.7     23.384     25.592
REMARK  3 active torsions:
REMARK  status: ('A' for Active; 'I' for Inactive)
REMARK    1  A    between atoms: C16_20  and  O2_2 
REMARK    2  A    between atoms: C4_8  and  O2_2 
REMARK    3  A    between atoms: C2_6  and  C6_10 
ROOT
HETATM    1  N1  UNK     1      15.833   4.425   9.792  1.00  0.00    -0.195 NA
HETATM    2  C16 UNK     1      13.294   5.072   9.659  1.00  0.00     0.299 C 
HETATM    3  C17 UNK     1      14.710   4.711   9.734  1.00  0.00     0.085 C 
ENDROOT
BRANCH   2   4
HETATM    4  O2  UNK     1      13.034   6.223  10.441  1.00  0.00    -0.331 OA
BRANCH   4   5
HETATM    5  C4  UNK     1      13.606   7.340   9.874  1.00  0.00     0.155 A 
HETATM    6  C2  UNK     1      13.162   7.895   8.731  1.00  0.00     0.123 A 
HETATM    7  O1  UNK     1      13.734   8.997   8.118  1.00  0.00    -0.306 OA
HETATM    8  C3  UNK     1      14.815   9.591   8.716  1.00  0.00     0.090 A 
HETATM    9  C1  UNK     1      15.370   9.125   9.906  1.00  0.00     0.051 A 
HETATM   10  C8  UNK     1      15.361  10.707   8.081  1.00  0.00     0.038 A 
HETATM   11  C5  UNK     1      14.777   7.945  10.554  1.00  0.00     0.221 A 
HETATM   12  C7  UNK     1      16.474   9.770  10.470  1.00  0.00     0.018 A 
HETATM   13  O3  UNK     1      15.226   7.486  11.596  1.00  0.00    -0.284 OA
HETATM   14  C11 UNK     1      17.018  10.887   9.834  1.00  0.00     0.001 A 
HETATM   15  C12 UNK     1      16.463  11.354   8.641  1.00  0.00     0.003 A 
BRANCH   6  16
HETATM   16  C6  UNK     1      12.009   7.356   7.988  1.00  0.00     0.001 A 
HETATM   17  C10 UNK     1      12.204   6.731   6.756  1.00  0.00     0.014 A 
HETATM   18  C14 UNK     1      11.113   6.221   6.051  1.00  0.00     0.001 A 
HETATM   19  C15 UNK     1       9.827   6.337   6.579  1.00  0.00     0.000 A 
HETATM   20  C13 UNK     1       9.631   6.963   7.810  1.00  0.00     0.001 A 
HETATM   21  C9  UNK     1      10.723   7.472   8.515  1.00  0.00     0.014 A 
ENDBRANCH   6  16
ENDBRANCH   4   5
ENDBRANCH   2   4
TORSDOF 3
ENDMDL
MODEL 6
REMARK VINA RESULT:      -7.4      5.954      9.838
REMARK  3 active torsions:
REMARK  status: ('A' for Active; 'I' for Inactive)
REMARK    1  A    between atoms: C16_20  and  O2_2 
REMARK    2  A    between atoms: C4_8  and  O2_2 
REMARK    3  A    between atoms: C2_6  and  C6_10 
ROOT
HETATM    1  N1  UNK     1      14.044   6.854  31.459  1.00  0.00    -0.195 NA
HETATM    2  C16 UNK     1      14.297   7.745  33.913  1.00  0.00     0.299 C 
HETATM    3  C17 UNK     1      14.156   7.248  32.545  1.00  0.00     0.085 C 
ENDROOT
BRANCH   2   4
HETATM    4  O2  UNK     1      15.645   7.655  34.337  1.00  0.00    -0.331 OA
BRANCH   4   5
HETATM    5  C4  UNK     1      16.276   8.875  34.225  1.00  0.00     0.155 A 
HETATM    6  C2  UNK     1      17.455   9.037  33.597  1.00  0.00     0.123 A 
HETATM    7  O1  UNK     1      18.132  10.241  33.494  1.00  0.00    -0.306 OA
HETATM    8  C3  UNK     1      17.564  11.360  34.047  1.00  0.00     0.090 A 
HETATM    9  C1  UNK     1      16.343  11.335  34.716  1.00  0.00     0.051 A 
HETATM   10  C8  UNK     1      18.263  12.560  33.916  1.00  0.00     0.038 A 
HETATM   11  C5  UNK     1      15.626  10.056  34.842  1.00  0.00     0.221 A 
HETATM   12  C7  UNK     1      15.812  12.507  35.260  1.00  0.00     0.018 A 
HETATM   13  O3  UNK     1      14.554   9.971  35.425  1.00  0.00    -0.284 OA
HETATM   14  C11 UNK     1      16.513  13.707  35.127  1.00  0.00     0.001 A 
HETATM   15  C12 UNK     1      17.737  13.733  34.457  1.00  0.00     0.003 A 
BRANCH   6  16
HETATM   16  C6  UNK     1      18.173   7.917  32.962  1.00  0.00     0.001 A 
HETATM   17  C10 UNK     1      19.328   7.404  33.552  1.00  0.00     0.014 A 
HETATM   18  C14 UNK     1      20.008   6.344  32.950  1.00  0.00     0.001 A 
HETATM   19  C15 UNK     1      19.532   5.799  31.757  1.00  0.00     0.000 A 
HETATM   20  C13 UNK     1      18.377   6.312  31.166  1.00  0.00     0.001 A 
HETATM   21  C9  UNK     1      17.697   7.371  31.769  1.00  0.00     0.014 A 
ENDBRANCH   6  16
ENDBRANCH   4   5
ENDBRANCH   2   4
TORSDOF 3
ENDMDL
MODEL 7
REMARK VINA RESULT:      -7.4      2.273      5.758
REMARK  3 active torsions:
REMARK  status: ('A' for Active; 'I' for Inactive)
REMARK    1  A    between atoms: C16_20  and  O2_2 
REMARK    2  A    between atoms: C4_8  and  O2_2 
REMARK    3  A    between atoms: C2_6  and  C6_10 
ROOT
HETATM    1  N1  UNK     1      19.755  -0.469  28.274  1.00  0.00    -0.195 NA
HETATM    2  C16 UNK     1      19.804   0.648  30.647  1.00  0.00     0.299 C 
HETATM    3  C17 UNK     1      19.776   0.025  29.323  1.00  0.00     0.085 C 
ENDROOT
BRANCH   2   4
HETATM    4  O2  UNK     1      18.556   1.251  30.936  1.00  0.00    -0.331 OA
BRANCH   4   5
HETATM    5  C4  UNK     1      18.395   1.416  32.295  1.00  0.00     0.155 A 
HETATM    6  C2  UNK     1      18.316   2.623  32.885  1.00  0.00     0.123 A 
HETATM    7  O1  UNK     1      18.186   2.824  34.249  1.00  0.00    -0.306 OA
HETATM    8  C3  UNK     1      18.109   1.726  35.067  1.00  0.00     0.090 A 
HETATM    9  C1  UNK     1      18.167   0.420  34.587  1.00  0.00     0.051 A 
HETATM   10  C8  UNK     1      17.965   1.961  36.435  1.00  0.00     0.038 A 
HETATM   11  C5  UNK     1      18.321   0.200  33.140  1.00  0.00     0.221 A 
HETATM   12  C7  UNK     1      18.083  -0.661  35.469  1.00  0.00     0.018 A 
HETATM   13  O3  UNK     1      18.385  -0.924  32.661  1.00  0.00    -0.284 OA
HETATM   14  C11 UNK     1      17.939  -0.423  36.836  1.00  0.00     0.001 A 
HETATM   15  C12 UNK     1      17.881   0.885  37.319  1.00  0.00     0.003 A 
BRANCH   6  16
HETATM   16  C6  UNK     1      18.387   3.881  32.122  1.00  0.00     0.001 A 
HETATM   17  C10 UNK     1      19.032   3.913  30.886  1.00  0.00     0.014 A 
HETATM   18  C14 UNK     1      19.099   5.105  30.163  1.00  0.00     0.001 A 
HETATM   19  C15 UNK     1      18.522   6.265  30.679  1.00  0.00     0.000 A 
HETATM   20  C13 UNK     1      17.878   6.235  31.915  1.00  0.00     0.001 A 
HETATM   21  C9  UNK     1      17.810   5.042  32.637  1.00  0.00     0.014 A 
ENDBRANCH   6  16
ENDBRANCH   4   5
ENDBRANCH   2   4
TORSDOF 3
ENDMDL
MODEL 8
REMARK VINA RESULT:      -7.4     23.675     25.829
REMARK  3 active torsions:
REMARK  status: ('A' for Active; 'I' for Inactive)
REMARK    1  A    between atoms: C16_20  and  O2_2 
REMARK    2  A    between atoms: C4_8  and  O2_2 
REMARK    3  A    between atoms: C2_6  and  C6_10 
ROOT
HETATM    1  N1  UNK     1       8.923   3.975   9.920  1.00  0.00    -0.195 NA
HETATM    2  C16 UNK     1      11.395   4.679  10.441  1.00  0.00     0.299 C 
HETATM    3  C17 UNK     1      10.017   4.286  10.150  1.00  0.00     0.085 C 
ENDROOT
BRANCH   2   4
HETATM    4  O2  UNK     1      12.166   4.700   9.253  1.00  0.00    -0.331 OA
BRANCH   4   5
HETATM    5  C4  UNK     1      12.790   5.919   9.095  1.00  0.00     0.155 A 
HETATM    6  C2  UNK     1      12.276   6.917   8.353  1.00  0.00     0.123 A 
HETATM    7  O1  UNK     1      12.892   8.140   8.148  1.00  0.00    -0.306 OA
HETATM    8  C3  UNK     1      14.099   8.375   8.754  1.00  0.00     0.090 A 
HETATM    9  C1  UNK     1      14.737   7.433   9.556  1.00  0.00     0.051 A 
HETATM   10  C8  UNK     1      14.688   9.621   8.538  1.00  0.00     0.038 A 
HETATM   11  C5  UNK     1      14.096   6.125   9.766  1.00  0.00     0.221 A 
HETATM   12  C7  UNK     1      15.968   7.727  10.149  1.00  0.00     0.018 A 
HETATM   13  O3  UNK     1      14.612   5.255  10.454  1.00  0.00    -0.284 OA
HETATM   14  C11 UNK     1      16.555   8.975   9.932  1.00  0.00     0.001 A 
HETATM   15  C12 UNK     1      15.917   9.920   9.128  1.00  0.00     0.003 A 
BRANCH   6  16
HETATM   16  C6  UNK     1      10.988   6.795   7.648  1.00  0.00     0.001 A 
HETATM   17  C10 UNK     1       9.806   7.179   8.282  1.00  0.00     0.014 A 
HETATM   18  C14 UNK     1       8.586   7.064   7.615  1.00  0.00     0.001 A 
HETATM   19  C15 UNK     1       8.549   6.562   6.313  1.00  0.00     0.000 A 
HETATM   20  C13 UNK     1       9.730   6.177   5.679  1.00  0.00     0.001 A 
HETATM   21  C9  UNK     1      10.950   6.294   6.347  1.00  0.00     0.014 A 
ENDBRANCH   6  16
ENDBRANCH   4   5
ENDBRANCH   2   4
TORSDOF 3
ENDMDL
MODEL 9
REMARK VINA RESULT:      -7.2     23.846     25.780
REMARK  3 active torsions:
REMARK  status: ('A' for Active; 'I' for Inactive)
REMARK    1  A    between atoms: C16_20  and  O2_2 
REMARK    2  A    between atoms: C4_8  and  O2_2 
REMARK    3  A    between atoms: C2_6  and  C6_10 
ROOT
HETATM    1  N1  UNK     1      13.815  12.060  11.533  1.00  0.00    -0.195 NA
HETATM    2  C16 UNK     1      11.843  10.580  10.637  1.00  0.00     0.299 C 
HETATM    3  C17 UNK     1      12.943  11.405  11.137  1.00  0.00     0.085 C 
ENDROOT
BRANCH   2   4
HETATM    4  O2  UNK     1      12.123   9.207  10.835  1.00  0.00    -0.331 OA
BRANCH   4   5
HETATM    5  C4  UNK     1      11.942   8.496   9.669  1.00  0.00     0.155 A 
HETATM    6  C2  UNK     1      12.951   8.174   8.840  1.00  0.00     0.123 A 
HETATM    7  O1  UNK     1      12.799   7.489   7.645  1.00  0.00    -0.306 OA
HETATM    8  C3  UNK     1      11.542   7.084   7.279  1.00  0.00     0.090 A 
HETATM    9  C1  UNK     1      10.411   7.343   8.049  1.00  0.00     0.051 A 
HETATM   10  C8  UNK     1      11.423   6.386   6.077  1.00  0.00     0.038 A 
HETATM   11  C5  UNK     1      10.563   8.083   9.312  1.00  0.00     0.221 A 
HETATM   12  C7  UNK     1       9.153   6.905   7.626  1.00  0.00     0.018 A 
HETATM   13  O3  UNK     1       9.606   8.345  10.027  1.00  0.00    -0.284 OA
HETATM   14  C11 UNK     1       9.036   6.206   6.424  1.00  0.00     0.001 A 
HETATM   15  C12 UNK     1      10.169   5.948   5.650  1.00  0.00     0.003 A 
BRANCH   6  16
HETATM   16  C6  UNK     1      14.350   8.549   9.114  1.00  0.00     0.001 A 
HETATM   17  C10 UNK     1      14.854   9.759   8.637  1.00  0.00     0.014 A 
HETATM   18  C14 UNK     1      16.179  10.114   8.897  1.00  0.00     0.001 A 
HETATM   19  C15 UNK     1      16.998   9.258   9.633  1.00  0.00     0.000 A 
HETATM   20  C13 UNK     1      16.494   8.048  10.109  1.00  0.00     0.001 A 
HETATM   21  C9  UNK     1      15.170   7.694   9.850  1.00  0.00     0.014 A 
ENDBRANCH   6  16
ENDBRANCH   4   5
ENDBRANCH   2   4
TORSDOF 3
ENDMDL
MODEL 10
REMARK VINA RESULT:      -7.2      2.411      5.024
REMARK  3 active torsions:
REMARK  status: ('A' for Active; 'I' for Inactive)
REMARK    1  A    between atoms: C16_20  and  O2_2 
REMARK    2  A    between atoms: C4_8  and  O2_2 
REMARK    3  A    between atoms: C2_6  and  C6_10 
ROOT
HETATM    1  N1  UNK     1      19.516   6.436  29.705  1.00  0.00    -0.195 NA
HETATM    2  C16 UNK     1      19.457   3.949  30.538  1.00  0.00     0.299 C 
HETATM    3  C17 UNK     1      19.490   5.336  30.074  1.00  0.00     0.085 C 
ENDROOT
BRANCH   2   4
HETATM    4  O2  UNK     1      18.163   3.613  31.004  1.00  0.00    -0.331 OA
BRANCH   4   5
HETATM    5  C4  UNK     1      18.216   3.138  32.296  1.00  0.00     0.155 A 
HETATM    6  C2  UNK     1      18.196   3.941  33.375  1.00  0.00     0.123 A 
HETATM    7  O1  UNK     1      18.279   3.499  34.686  1.00  0.00    -0.306 OA
HETATM    8  C3  UNK     1      18.366   2.151  34.916  1.00  0.00     0.090 A 
HETATM    9  C1  UNK     1      18.387   1.208  33.891  1.00  0.00     0.051 A 
HETATM   10  C8  UNK     1      18.436   1.736  36.247  1.00  0.00     0.038 A 
HETATM   11  C5  UNK     1      18.314   1.672  32.497  1.00  0.00     0.221 A 
HETATM   12  C7  UNK     1      18.477  -0.154  34.186  1.00  0.00     0.018 A 
HETATM   13  O3  UNK     1      18.335   0.892  31.555  1.00  0.00    -0.284 OA
HETATM   14  C11 UNK     1      18.546  -0.567  35.518  1.00  0.00     0.001 A 
HETATM   15  C12 UNK     1      18.526   0.376  36.546  1.00  0.00     0.003 A 
BRANCH   6  16
HETATM   16  C6  UNK     1      18.106   5.408  33.267  1.00  0.00     0.001 A 
HETATM   17  C10 UNK     1      19.182   6.204  33.660  1.00  0.00     0.014 A 
HETATM   18  C14 UNK     1      19.097   7.593  33.559  1.00  0.00     0.001 A 
HETATM   19  C15 UNK     1      17.934   8.185  33.065  1.00  0.00     0.000 A 
HETATM   20  C13 UNK     1      16.858   7.390  32.672  1.00  0.00     0.001 A 
HETATM   21  C9  UNK     1      16.944   6.001  32.774  1.00  0.00     0.014 A 
ENDBRANCH   6  16
ENDBRANCH   4   5
ENDBRANCH   2   4
TORSDOF 3
ENDMDL
