MODEL 1
REMARK VINA RESULT:      -8.2      0.000      0.000
REMARK  1 active torsions:
REMARK  status: ('A' for Active; 'I' for Inactive)
REMARK       I    between atoms: C14_18  and  N1_4 
REMARK    1  A    between atoms: C14_18  and  C8_12 
ROOT
HETATM    1  O1  UNK     1      18.860   0.454  31.559  1.00  0.00    -0.274 OA
HETATM    2  O2  UNK     1      18.951   1.933  29.823  1.00  0.00    -0.259 OA
HETATM    3  C1  UNK     1      18.332   1.227  33.821  1.00  0.00     0.010 A 
HETATM    4  C2  UNK     1      18.129   0.913  35.197  1.00  0.00    -0.013 A 
HETATM    5  C3  UNK     1      18.260  -0.443  35.610  1.00  0.00    -0.025 A 
HETATM    6  C4  UNK     1      18.649   0.199  32.930  1.00  0.00     0.090 A 
HETATM    7  C5  UNK     1      18.230   2.577  33.261  1.00  0.00     0.038 A 
HETATM    8  C6  UNK     1      18.580  -1.439  34.675  1.00  0.00     0.015 A 
HETATM    9  C7  UNK     1      18.777  -1.124  33.337  1.00  0.00     0.039 A 
HETATM   10  C8  UNK     1      18.431   2.812  31.958  1.00  0.00     0.108 A 
HETATM   11  C9  UNK     1      17.802   1.862  36.197  1.00  0.00     0.013 A 
HETATM   12  C10 UNK     1      18.067  -0.794  36.957  1.00  0.00     0.012 A 
HETATM   13  C11 UNK     1      18.766   1.727  31.017  1.00  0.00     0.304 A 
HETATM   14  C12 UNK     1      17.614   1.494  37.532  1.00  0.00     0.001 A 
HETATM   15  C13 UNK     1      17.746   0.166  37.911  1.00  0.00     0.001 A 
ENDROOT
BRANCH  10  16
HETATM   16  C14 UNK     1      18.298   4.208  31.520  1.00  0.00     0.257 C 
HETATM   17  O3  UNK     1      17.373   4.910  31.920  1.00  0.00    -0.267 OA
HETATM   18  N1  UNK     1      19.298   4.593  30.645  1.00  0.00    -0.361 N 
HETATM   19  C15 UNK     1      19.378   5.919  30.075  1.00  0.00     0.149 C 
HETATM   20  H8  UNK     1      20.048   3.951  30.410  1.00  0.00     0.162 HD
ENDBRANCH  10  16
TORSDOF 1
ENDMDL
MODEL 2
REMARK VINA RESULT:      -8.2     14.383     17.271
REMARK  1 active torsions:
REMARK  status: ('A' for Active; 'I' for Inactive)
REMARK       I    between atoms: C14_18  and  N1_4 
REMARK    1  A    between atoms: C14_18  and  C8_12 
ROOT
HETATM    1  O1  UNK     1      19.188   0.580  14.737  1.00  0.00    -0.274 OA
HETATM    2  O2  UNK     1      18.994  -1.149  13.260  1.00  0.00    -0.259 OA
HETATM    3  C1  UNK     1      19.104   0.167  17.149  1.00  0.00     0.010 A 
HETATM    4  C2  UNK     1      19.152   0.690  18.474  1.00  0.00    -0.013 A 
HETATM    5  C3  UNK     1      19.323   2.092  18.645  1.00  0.00    -0.025 A 
HETATM    6  C4  UNK     1      19.228   1.044  16.069  1.00  0.00     0.090 A 
HETATM    7  C5  UNK     1      18.932  -1.253  16.829  1.00  0.00     0.038 A 
HETATM    8  C6  UNK     1      19.442   2.932  17.526  1.00  0.00     0.015 A 
HETATM    9  C7  UNK     1      19.394   2.413  16.239  1.00  0.00     0.039 A 
HETATM   10  C8  UNK     1      18.896  -1.687  15.563  1.00  0.00     0.108 A 
HETATM   11  C9  UNK     1      19.040  -0.093  19.650  1.00  0.00     0.013 A 
HETATM   12  C10 UNK     1      19.375   2.648  19.934  1.00  0.00     0.012 A 
HETATM   13  C11 UNK     1      19.026  -0.761  14.422  1.00  0.00     0.304 A 
HETATM   14  C12 UNK     1      19.095   0.477  20.925  1.00  0.00     0.001 A 
HETATM   15  C13 UNK     1      19.263   1.847  21.067  1.00  0.00     0.001 A 
ENDROOT
BRANCH  10  16
HETATM   16  C14 UNK     1      18.720  -3.133  15.375  1.00  0.00     0.257 C 
HETATM   17  O3  UNK     1      17.653  -3.679  15.648  1.00  0.00    -0.267 OA
HETATM   18  N1  UNK     1      19.853  -3.752  14.881  1.00  0.00    -0.361 N 
HETATM   19  C15 UNK     1      19.923  -5.171  14.616  1.00  0.00     0.149 C 
HETATM   20  H8  UNK     1      20.673  -3.204  14.642  1.00  0.00     0.162 HD
ENDBRANCH  10  16
TORSDOF 1
ENDMDL
MODEL 3
REMARK VINA RESULT:      -8.1     24.335     26.337
REMARK  1 active torsions:
REMARK  status: ('A' for Active; 'I' for Inactive)
REMARK       I    between atoms: C14_18  and  N1_4 
REMARK    1  A    between atoms: C14_18  and  C8_12 
ROOT
HETATM    1  O1  UNK     1      13.946   5.061   9.232  1.00  0.00    -0.274 OA
HETATM    2  O2  UNK     1      12.200   3.964   8.252  1.00  0.00    -0.259 OA
HETATM    3  C1  UNK     1      14.328   7.437   8.779  1.00  0.00     0.010 A 
HETATM    4  C2  UNK     1      15.109   8.607   9.006  1.00  0.00    -0.013 A 
HETATM    5  C3  UNK     1      16.228   8.517   9.881  1.00  0.00    -0.025 A 
HETATM    6  C4  UNK     1      14.684   6.248   9.420  1.00  0.00     0.090 A 
HETATM    7  C5  UNK     1      13.153   7.388   7.905  1.00  0.00     0.038 A 
HETATM    8  C6  UNK     1      16.545   7.299  10.501  1.00  0.00     0.015 A 
HETATM    9  C7  UNK     1      15.778   6.163  10.274  1.00  0.00     0.039 A 
HETATM   10  C8  UNK     1      12.456   6.258   7.729  1.00  0.00     0.108 A 
HETATM   11  C9  UNK     1      14.852   9.871   8.419  1.00  0.00     0.013 A 
HETATM   12  C10 UNK     1      17.024   9.648  10.132  1.00  0.00     0.012 A 
HETATM   13  C11 UNK     1      12.832   5.003   8.406  1.00  0.00     0.304 A 
HETATM   14  C12 UNK     1      15.654  10.985   8.680  1.00  0.00     0.001 A 
HETATM   15  C13 UNK     1      16.739  10.873   9.537  1.00  0.00     0.001 A 
ENDROOT
BRANCH  10  16
HETATM   16  C14 UNK     1      11.299   6.339   6.828  1.00  0.00     0.257 C 
HETATM   17  O3  UNK     1      11.446   6.589   5.634  1.00  0.00    -0.267 OA
HETATM   18  N1  UNK     1      10.098   6.112   7.475  1.00  0.00    -0.361 N 
HETATM   19  C15 UNK     1       8.821   6.141   6.798  1.00  0.00     0.149 C 
HETATM   20  H8  UNK     1      10.085   5.866   8.460  1.00  0.00     0.162 HD
ENDBRANCH  10  16
TORSDOF 1
ENDMDL
MODEL 4
REMARK VINA RESULT:      -8.0      2.434      5.720
REMARK  1 active torsions:
REMARK  status: ('A' for Active; 'I' for Inactive)
REMARK       I    between atoms: C14_18  and  N1_4 
REMARK    1  A    between atoms: C14_18  and  C8_12 
ROOT
HETATM    1  O1  UNK     1      18.807   0.672  31.257  1.00  0.00    -0.274 OA
HETATM    2  O2  UNK     1      18.742  -1.336  32.343  1.00  0.00    -0.259 OA
HETATM    3  C1  UNK     1      18.397   2.754  32.476  1.00  0.00     0.010 A 
HETATM    4  C2  UNK     1      18.292   4.176  32.454  1.00  0.00    -0.013 A 
HETATM    5  C3  UNK     1      18.491   4.851  31.217  1.00  0.00    -0.025 A 
HETATM    6  C4  UNK     1      18.691   2.077  31.291  1.00  0.00     0.090 A 
HETATM    7  C5  UNK     1      18.216   1.935  33.677  1.00  0.00     0.038 A 
HETATM    8  C6  UNK     1      18.785   4.124  30.053  1.00  0.00     0.015 A 
HETATM    9  C7  UNK     1      18.885   2.739  30.085  1.00  0.00     0.039 A 
HETATM   10  C8  UNK     1      18.327   0.601  33.639  1.00  0.00     0.108 A 
HETATM   11  C9  UNK     1      18.001   4.977  33.585  1.00  0.00     0.013 A 
HETATM   12  C10 UNK     1      18.397   6.252  31.152  1.00  0.00     0.012 A 
HETATM   13  C11 UNK     1      18.638  -0.115  32.387  1.00  0.00     0.304 A 
HETATM   14  C12 UNK     1      17.911   6.370  33.502  1.00  0.00     0.001 A 
HETATM   15  C13 UNK     1      18.110   7.007  32.286  1.00  0.00     0.001 A 
ENDROOT
BRANCH  10  16
HETATM   16  C14 UNK     1      18.123  -0.107  34.909  1.00  0.00     0.257 C 
HETATM   17  O3  UNK     1      17.124   0.099  35.594  1.00  0.00    -0.267 OA
HETATM   18  N1  UNK     1      19.153  -0.981  35.208  1.00  0.00    -0.361 N 
HETATM   19  C15 UNK     1      19.178  -1.788  36.407  1.00  0.00     0.149 C 
HETATM   20  H8  UNK     1      19.916  -1.117  34.553  1.00  0.00     0.162 HD
ENDBRANCH  10  16
TORSDOF 1
ENDMDL
MODEL 5
REMARK VINA RESULT:      -8.0      3.327      6.584
REMARK  1 active torsions:
REMARK  status: ('A' for Active; 'I' for Inactive)
REMARK       I    between atoms: C14_18  and  N1_4 
REMARK    1  A    between atoms: C14_18  and  C8_12 
ROOT
HETATM    1  O1  UNK     1      17.923   1.566  34.318  1.00  0.00    -0.274 OA
HETATM    2  O2  UNK     1      17.504   0.984  36.485  1.00  0.00    -0.259 OA
HETATM    3  C1  UNK     1      18.920  -0.047  32.770  1.00  0.00     0.010 A 
HETATM    4  C2  UNK     1      19.395  -0.340  31.458  1.00  0.00    -0.013 A 
HETATM    5  C3  UNK     1      19.327   0.680  30.469  1.00  0.00    -0.025 A 
HETATM    6  C4  UNK     1      18.406   1.224  33.038  1.00  0.00     0.090 A 
HETATM    7  C5  UNK     1      18.931  -1.002  33.882  1.00  0.00     0.038 A 
HETATM    8  C6  UNK     1      18.802   1.941  30.788  1.00  0.00     0.015 A 
HETATM    9  C7  UNK     1      18.342   2.218  32.069  1.00  0.00     0.039 A 
HETATM   10  C8  UNK     1      18.470  -0.671  35.095  1.00  0.00     0.108 A 
HETATM   11  C9  UNK     1      19.936  -1.588  31.061  1.00  0.00     0.013 A 
HETATM   12  C10 UNK     1      19.784   0.432  29.163  1.00  0.00     0.012 A 
HETATM   13  C11 UNK     1      17.928   0.672  35.378  1.00  0.00     0.304 A 
HETATM   14  C12 UNK     1      20.386  -1.817  29.758  1.00  0.00     0.001 A 
HETATM   15  C13 UNK     1      20.309  -0.808  28.809  1.00  0.00     0.001 A 
ENDROOT
BRANCH  10  16
HETATM   16  C14 UNK     1      18.535  -1.716  36.125  1.00  0.00     0.257 C 
HETATM   17  O3  UNK     1      17.514  -2.124  36.674  1.00  0.00    -0.267 OA
HETATM   18  N1  UNK     1      19.826  -2.144  36.375  1.00  0.00    -0.361 N 
HETATM   19  C15 UNK     1      20.142  -3.164  37.350  1.00  0.00     0.149 C 
HETATM   20  H8  UNK     1      20.601  -1.777  35.833  1.00  0.00     0.162 HD
ENDBRANCH  10  16
TORSDOF 1
ENDMDL
MODEL 6
REMARK VINA RESULT:      -7.7      3.427      6.086
REMARK  1 active torsions:
REMARK  status: ('A' for Active; 'I' for Inactive)
REMARK       I    between atoms: C14_18  and  N1_4 
REMARK    1  A    between atoms: C14_18  and  C8_12 
ROOT
HETATM    1  O1  UNK     1      19.814  -2.495  34.697  1.00  0.00    -0.274 OA
HETATM    2  O2  UNK     1      18.922  -2.158  36.772  1.00  0.00    -0.259 OA
HETATM    3  C1  UNK     1      19.315  -0.948  32.867  1.00  0.00     0.010 A 
HETATM    4  C2  UNK     1      19.494  -0.583  31.500  1.00  0.00    -0.013 A 
HETATM    5  C3  UNK     1      20.322  -1.401  30.683  1.00  0.00    -0.025 A 
HETATM    6  C4  UNK     1      19.956  -2.089  33.354  1.00  0.00     0.090 A 
HETATM    7  C5  UNK     1      18.491  -0.197  33.818  1.00  0.00     0.038 A 
HETATM    8  C6  UNK     1      20.944  -2.539  31.220  1.00  0.00     0.015 A 
HETATM    9  C7  UNK     1      20.764  -2.887  32.552  1.00  0.00     0.039 A 
HETATM   10  C8  UNK     1      18.360  -0.587  35.092  1.00  0.00     0.108 A 
HETATM   11  C9  UNK     1      18.902   0.549  30.888  1.00  0.00     0.013 A 
HETATM   12  C10 UNK     1      20.525  -1.077  29.330  1.00  0.00     0.012 A 
HETATM   13  C11 UNK     1      19.037  -1.793  35.607  1.00  0.00     0.304 A 
HETATM   14  C12 UNK     1      19.115   0.857  29.541  1.00  0.00     0.001 A 
HETATM   15  C13 UNK     1      19.927   0.045  28.763  1.00  0.00     0.001 A 
ENDROOT
BRANCH  10  16
HETATM   16  C14 UNK     1      17.507   0.250  35.947  1.00  0.00     0.257 C 
HETATM   17  O3  UNK     1      16.394   0.608  35.569  1.00  0.00    -0.267 OA
HETATM   18  N1  UNK     1      18.100   0.561  37.157  1.00  0.00    -0.361 N 
HETATM   19  C15 UNK     1      17.456   1.375  38.163  1.00  0.00     0.149 C 
HETATM   20  H8  UNK     1      19.008   0.176  37.396  1.00  0.00     0.162 HD
ENDBRANCH  10  16
TORSDOF 1
ENDMDL
MODEL 7
REMARK VINA RESULT:      -7.6      2.598      3.215
REMARK  1 active torsions:
REMARK  status: ('A' for Active; 'I' for Inactive)
REMARK       I    between atoms: C14_18  and  N1_4 
REMARK    1  A    between atoms: C14_18  and  C8_12 
ROOT
HETATM    1  O1  UNK     1      20.419  -2.527  32.610  1.00  0.00    -0.274 OA
HETATM    2  O2  UNK     1      20.914  -2.330  30.391  1.00  0.00    -0.259 OA
HETATM    3  C1  UNK     1      19.081  -0.816  33.739  1.00  0.00     0.010 A 
HETATM    4  C2  UNK     1      18.468  -0.347  34.938  1.00  0.00    -0.013 A 
HETATM    5  C3  UNK     1      18.608  -1.125  36.121  1.00  0.00    -0.025 A 
HETATM    6  C4  UNK     1      19.793  -2.017  33.767  1.00  0.00     0.090 A 
HETATM    7  C5  UNK     1      19.017  -0.116  32.454  1.00  0.00     0.038 A 
HETATM    8  C6  UNK     1      19.334  -2.325  36.097  1.00  0.00     0.015 A 
HETATM    9  C7  UNK     1      19.928  -2.774  34.924  1.00  0.00     0.039 A 
HETATM   10  C8  UNK     1      19.613  -0.605  31.359  1.00  0.00     0.108 A 
HETATM   11  C9  UNK     1      17.719   0.852  35.040  1.00  0.00     0.013 A 
HETATM   12  C10 UNK     1      18.018  -0.698  37.323  1.00  0.00     0.012 A 
HETATM   13  C11 UNK     1      20.366  -1.874  31.388  1.00  0.00     0.304 A 
HETATM   14  C12 UNK     1      17.139   1.261  36.245  1.00  0.00     0.001 A 
HETATM   15  C13 UNK     1      17.289   0.486  37.385  1.00  0.00     0.001 A 
ENDROOT
BRANCH  10  16
HETATM   16  C14 UNK     1      19.476   0.189  30.131  1.00  0.00     0.257 C 
HETATM   17  O3  UNK     1      20.400   0.268  29.324  1.00  0.00    -0.267 OA
HETATM   18  N1  UNK     1      18.240   0.799  30.022  1.00  0.00    -0.361 N 
HETATM   19  C15 UNK     1      17.870   1.635  28.902  1.00  0.00     0.149 C 
HETATM   20  H8  UNK     1      17.523   0.634  30.722  1.00  0.00     0.162 HD
ENDBRANCH  10  16
TORSDOF 1
ENDMDL
MODEL 8
REMARK VINA RESULT:      -7.6      3.330      5.678
REMARK  1 active torsions:
REMARK  status: ('A' for Active; 'I' for Inactive)
REMARK       I    between atoms: C14_18  and  N1_4 
REMARK    1  A    between atoms: C14_18  and  C8_12 
ROOT
HETATM    1  O1  UNK     1      19.082   2.623  29.189  1.00  0.00    -0.274 OA
HETATM    2  O2  UNK     1      19.414   0.377  28.947  1.00  0.00    -0.259 OA
HETATM    3  C1  UNK     1      18.639   3.581  31.398  1.00  0.00     0.010 A 
HETATM    4  C2  UNK     1      18.374   4.735  32.192  1.00  0.00    -0.013 A 
HETATM    5  C3  UNK     1      18.299   6.000  31.546  1.00  0.00    -0.025 A 
HETATM    6  C4  UNK     1      18.817   3.731  30.021  1.00  0.00     0.090 A 
HETATM    7  C5  UNK     1      18.742   2.220  31.932  1.00  0.00     0.038 A 
HETATM    8  C6  UNK     1      18.484   6.098  30.158  1.00  0.00     0.015 A 
HETATM    9  C7  UNK     1      18.742   4.968  29.393  1.00  0.00     0.039 A 
HETATM   10  C8  UNK     1      18.995   1.172  31.137  1.00  0.00     0.108 A 
HETATM   11  C9  UNK     1      18.177   4.715  33.595  1.00  0.00     0.013 A 
HETATM   12  C10 UNK     1      18.039   7.162  32.292  1.00  0.00     0.012 A 
HETATM   13  C11 UNK     1      19.182   1.330  29.683  1.00  0.00     0.304 A 
HETATM   14  C12 UNK     1      17.920   5.881  34.321  1.00  0.00     0.001 A 
HETATM   15  C13 UNK     1      17.852   7.104  33.670  1.00  0.00     0.001 A 
ENDROOT
BRANCH  10  16
HETATM   16  C14 UNK     1      19.075  -0.140  31.793  1.00  0.00     0.257 C 
HETATM   17  O3  UNK     1      18.154  -0.551  32.497  1.00  0.00    -0.267 OA
HETATM   18  N1  UNK     1      20.259  -0.802  31.526  1.00  0.00    -0.361 N 
HETATM   19  C15 UNK     1      20.569  -2.108  32.063  1.00  0.00     0.149 C 
HETATM   20  H8  UNK     1      20.941  -0.398  30.892  1.00  0.00     0.162 HD
ENDBRANCH  10  16
TORSDOF 1
ENDMDL
MODEL 9
REMARK VINA RESULT:      -7.6     13.573     15.701
REMARK  1 active torsions:
REMARK  status: ('A' for Active; 'I' for Inactive)
REMARK       I    between atoms: C14_18  and  N1_4 
REMARK    1  A    between atoms: C14_18  and  C8_12 
ROOT
HETATM    1  O1  UNK     1      27.006  -6.183  38.706  1.00  0.00    -0.274 OA
HETATM    2  O2  UNK     1      25.215  -7.597  38.659  1.00  0.00    -0.259 OA
HETATM    3  C1  UNK     1      29.272  -7.039  38.353  1.00  0.00     0.010 A 
HETATM    4  C2  UNK     1      30.671  -6.776  38.258  1.00  0.00    -0.013 A 
HETATM    5  C3  UNK     1      31.122  -5.437  38.424  1.00  0.00    -0.025 A 
HETATM    6  C4  UNK     1      28.398  -5.979  38.603  1.00  0.00     0.090 A 
HETATM    7  C5  UNK     1      28.673  -8.368  38.204  1.00  0.00     0.038 A 
HETATM    8  C6  UNK     1      30.203  -4.407  38.674  1.00  0.00     0.015 A 
HETATM    9  C7  UNK     1      28.842  -4.672  38.765  1.00  0.00     0.039 A 
HETATM   10  C8  UNK     1      27.350  -8.555  38.303  1.00  0.00     0.108 A 
HETATM   11  C9  UNK     1      31.657  -7.762  38.007  1.00  0.00     0.013 A 
HETATM   12  C10 UNK     1      32.491  -5.135  38.337  1.00  0.00     0.012 A 
HETATM   13  C11 UNK     1      26.427  -7.435  38.567  1.00  0.00     0.304 A 
HETATM   14  C12 UNK     1      33.015  -7.443  37.923  1.00  0.00     0.001 A 
HETATM   15  C13 UNK     1      33.432  -6.130  38.088  1.00  0.00     0.001 A 
ENDROOT
BRANCH  10  16
HETATM   16  C14 UNK     1      26.872  -9.933  38.134  1.00  0.00     0.257 C 
HETATM   17  O3  UNK     1      27.145 -10.802  38.960  1.00  0.00    -0.267 OA
HETATM   18  N1  UNK     1      26.124 -10.105  36.984  1.00  0.00    -0.361 N 
HETATM   19  C15 UNK     1      25.549 -11.374  36.601  1.00  0.00     0.149 C 
HETATM   20  H8  UNK     1      25.914  -9.312  36.386  1.00  0.00     0.162 HD
ENDBRANCH  10  16
TORSDOF 1
ENDMDL
MODEL 10
REMARK VINA RESULT:      -7.5      6.724      8.201
REMARK  1 active torsions:
REMARK  status: ('A' for Active; 'I' for Inactive)
REMARK       I    between atoms: C14_18  and  N1_4 
REMARK    1  A    between atoms: C14_18  and  C8_12 
ROOT
HETATM    1  O1  UNK     1      17.232   8.874  35.132  1.00  0.00    -0.274 OA
HETATM    2  O2  UNK     1      15.267   9.920  35.637  1.00  0.00    -0.259 OA
HETATM    3  C1  UNK     1      17.549   7.817  32.946  1.00  0.00     0.010 A 
HETATM    4  C2  UNK     1      18.393   7.085  32.060  1.00  0.00    -0.013 A 
HETATM    5  C3  UNK     1      19.694   6.723  32.508  1.00  0.00    -0.025 A 
HETATM    6  C4  UNK     1      18.025   8.151  34.216  1.00  0.00     0.090 A 
HETATM    7  C5  UNK     1      16.189   8.253  32.616  1.00  0.00     0.038 A 
HETATM    8  C6  UNK     1      20.126   7.082  33.793  1.00  0.00     0.015 A 
HETATM    9  C7  UNK     1      19.296   7.794  34.650  1.00  0.00     0.039 A 
HETATM   10  C8  UNK     1      15.442   8.939  33.490  1.00  0.00     0.108 A 
HETATM   11  C9  UNK     1      18.028   6.689  30.750  1.00  0.00     0.013 A 
HETATM   12  C10 UNK     1      20.557   6.002  31.665  1.00  0.00     0.012 A 
HETATM   13  C11 UNK     1      15.945   9.292  34.831  1.00  0.00     0.304 A 
HETATM   14  C12 UNK     1      18.900   5.973  29.925  1.00  0.00     0.001 A 
HETATM   15  C13 UNK     1      20.164   5.630  30.382  1.00  0.00     0.001 A 
ENDROOT
BRANCH  10  16
HETATM   16  C14 UNK     1      14.096   9.320  33.040  1.00  0.00     0.257 C 
HETATM   17  O3  UNK     1      13.324   8.481  32.579  1.00  0.00    -0.267 OA
HETATM   18  N1  UNK     1      13.840  10.670  33.194  1.00  0.00    -0.361 N 
HETATM   19  C15 UNK     1      12.585  11.281  32.818  1.00  0.00     0.149 C 
HETATM   20  H8  UNK     1      14.529  11.275  33.629  1.00  0.00     0.162 HD
ENDBRANCH  10  16
TORSDOF 1
ENDMDL
