MODEL 1
REMARK VINA RESULT:      -9.1      0.000      0.000
REMARK  2 active torsions:
REMARK  status: ('A' for Active; 'I' for Inactive)
REMARK       I    between atoms: C6_11  and  N1_5 
REMARK    1  A    between atoms: C9_14  and  N1_5 
REMARK    2  A    between atoms: C2_7  and  C6_11 
ROOT
HETATM    1  O1  UNK     1      19.064   1.605  28.770  1.00  0.00    -0.274 OA
HETATM    2  O3  UNK     1      18.314   3.750  29.014  1.00  0.00    -0.259 OA
HETATM    3  C1  UNK     1      19.515   0.260  30.744  1.00  0.00    -0.001 A 
HETATM    4  C2  UNK     1      18.719   2.533  31.006  1.00  0.00     0.108 A 
HETATM    5  C3  UNK     1      19.481   0.396  29.360  1.00  0.00     0.089 A 
HETATM    6  C4  UNK     1      19.115   1.386  31.572  1.00  0.00     0.037 A 
HETATM    7  C5  UNK     1      19.935  -0.955  31.291  1.00  0.00     0.014 A 
HETATM    8  C7  UNK     1      18.674   2.701  29.537  1.00  0.00     0.304 A 
HETATM    9  C8  UNK     1      19.853  -0.643  28.511  1.00  0.00     0.038 A 
HETATM   10  C10 UNK     1      20.311  -2.008  30.451  1.00  0.00     0.001 A 
HETATM   11  C11 UNK     1      20.270  -1.852  29.064  1.00  0.00     0.003 A 
ENDROOT
BRANCH   4  12
HETATM   12  C6  UNK     1      18.335   3.611  31.925  1.00  0.00     0.262 C 
HETATM   13  O2  UNK     1      17.615   3.363  32.890  1.00  0.00    -0.267 OA
HETATM   14  N1  UNK     1      18.870   4.835  31.549  1.00  0.00    -0.323 N 
HETATM   15  H4  UNK     1      19.434   4.877  30.703  1.00  0.00     0.169 HD
BRANCH  14  16
HETATM   16  C9  UNK     1      18.709   6.084  32.196  1.00  0.00     0.035 A 
HETATM   17  C12 UNK     1      19.701   6.536  33.050  1.00  0.00     0.032 A 
HETATM   18  C14 UNK     1      19.542   7.766  33.689  1.00  0.00     0.044 A 
HETATM   19  C16 UNK     1      18.393   8.525  33.465  1.00  0.00     0.116 A 
HETATM   20  C15 UNK     1      17.403   8.054  32.602  1.00  0.00     0.044 A 
HETATM   21  F1  UNK     1      18.241   9.706  34.079  1.00  0.00    -0.206 F 
HETATM   22  C13 UNK     1      17.562   6.825  31.963  1.00  0.00     0.032 A 
ENDBRANCH  14  16
ENDBRANCH   4  12
TORSDOF 2
ENDMDL
MODEL 2
REMARK VINA RESULT:      -8.9      8.490     11.658
REMARK  2 active torsions:
REMARK  status: ('A' for Active; 'I' for Inactive)
REMARK       I    between atoms: C6_11  and  N1_5 
REMARK    1  A    between atoms: C9_14  and  N1_5 
REMARK    2  A    between atoms: C2_7  and  C6_11 
ROOT
HETATM    1  O1  UNK     1      19.499  -0.952  34.747  1.00  0.00    -0.274 OA
HETATM    2  O3  UNK     1      20.582  -2.871  34.143  1.00  0.00    -0.259 OA
HETATM    3  C1  UNK     1      18.467  -0.795  36.941  1.00  0.00    -0.001 A 
HETATM    4  C2  UNK     1      19.616  -2.831  36.306  1.00  0.00     0.108 A 
HETATM    5  C3  UNK     1      18.766  -0.228  35.707  1.00  0.00     0.089 A 
HETATM    6  C4  UNK     1      18.920  -2.148  37.223  1.00  0.00     0.037 A 
HETATM    7  C5  UNK     1      17.738  -0.045  37.868  1.00  0.00     0.014 A 
HETATM    8  C7  UNK     1      19.947  -2.248  34.987  1.00  0.00     0.304 A 
HETATM    9  C8  UNK     1      18.361   1.063  35.375  1.00  0.00     0.038 A 
HETATM   10  C10 UNK     1      17.324   1.251  37.549  1.00  0.00     0.001 A 
HETATM   11  C11 UNK     1      17.635   1.804  36.304  1.00  0.00     0.003 A 
ENDROOT
BRANCH   4  12
HETATM   12  C6  UNK     1      20.028  -4.188  36.684  1.00  0.00     0.262 C 
HETATM   13  O2  UNK     1      21.213  -4.425  36.909  1.00  0.00    -0.267 OA
HETATM   14  N1  UNK     1      18.955  -5.066  36.734  1.00  0.00    -0.323 N 
HETATM   15  H4  UNK     1      18.030  -4.714  36.497  1.00  0.00     0.169 HD
BRANCH  14  16
HETATM   16  C9  UNK     1      18.980  -6.444  37.060  1.00  0.00     0.035 A 
HETATM   17  C12 UNK     1      18.632  -7.374  36.095  1.00  0.00     0.032 A 
HETATM   18  C14 UNK     1      18.655  -8.731  36.417  1.00  0.00     0.044 A 
HETATM   19  C16 UNK     1      19.028  -9.138  37.698  1.00  0.00     0.116 A 
HETATM   20  C15 UNK     1      19.377  -8.188  38.658  1.00  0.00     0.044 A 
HETATM   21  F1  UNK     1      19.052 -10.442  38.006  1.00  0.00    -0.206 F 
HETATM   22  C13 UNK     1      19.353  -6.831  38.337  1.00  0.00     0.032 A 
ENDBRANCH  14  16
ENDBRANCH   4  12
TORSDOF 2
ENDMDL
MODEL 3
REMARK VINA RESULT:      -8.8      8.669     11.593
REMARK  2 active torsions:
REMARK  status: ('A' for Active; 'I' for Inactive)
REMARK       I    between atoms: C6_11  and  N1_5 
REMARK    1  A    between atoms: C9_14  and  N1_5 
REMARK    2  A    between atoms: C2_7  and  C6_11 
ROOT
HETATM    1  O1  UNK     1      19.593  -0.962  34.710  1.00  0.00    -0.274 OA
HETATM    2  O3  UNK     1      20.703  -2.830  34.004  1.00  0.00    -0.259 OA
HETATM    3  C1  UNK     1      18.465  -0.978  36.863  1.00  0.00    -0.001 A 
HETATM    4  C2  UNK     1      19.642  -2.960  36.118  1.00  0.00     0.108 A 
HETATM    5  C3  UNK     1      18.818  -0.315  35.692  1.00  0.00     0.089 A 
HETATM    6  C4  UNK     1      18.906  -2.350  37.056  1.00  0.00     0.037 A 
HETATM    7  C5  UNK     1      17.696  -0.301  37.814  1.00  0.00     0.014 A 
HETATM    8  C7  UNK     1      20.031  -2.274  34.866  1.00  0.00     0.304 A 
HETATM    9  C8  UNK     1      18.427   0.999  35.446  1.00  0.00     0.038 A 
HETATM   10  C10 UNK     1      17.296   1.017  37.581  1.00  0.00     0.001 A 
HETATM   11  C11 UNK     1      17.661   1.667  36.399  1.00  0.00     0.003 A 
ENDROOT
BRANCH   4  12
HETATM   12  C6  UNK     1      20.039  -4.344  36.404  1.00  0.00     0.262 C 
HETATM   13  O2  UNK     1      20.069  -5.170  35.495  1.00  0.00    -0.267 OA
HETATM   14  N1  UNK     1      20.340  -4.535  37.746  1.00  0.00    -0.323 N 
HETATM   15  H4  UNK     1      20.244  -3.746  38.381  1.00  0.00     0.169 HD
BRANCH  14  16
HETATM   16  C9  UNK     1      20.754  -5.734  38.375  1.00  0.00     0.035 A 
HETATM   17  C12 UNK     1      19.798  -6.603  38.873  1.00  0.00     0.032 A 
HETATM   18  C14 UNK     1      20.207  -7.782  39.494  1.00  0.00     0.044 A 
HETATM   19  C16 UNK     1      21.566  -8.076  39.609  1.00  0.00     0.116 A 
HETATM   20  C15 UNK     1      22.516  -7.190  39.101  1.00  0.00     0.044 A 
HETATM   21  F1  UNK     1      21.958  -9.210  40.205  1.00  0.00    -0.206 F 
HETATM   22  C13 UNK     1      22.108  -6.010  38.480  1.00  0.00     0.032 A 
ENDBRANCH  14  16
ENDBRANCH   4  12
TORSDOF 2
ENDMDL
MODEL 4
REMARK VINA RESULT:      -8.8     13.694     16.217
REMARK  2 active torsions:
REMARK  status: ('A' for Active; 'I' for Inactive)
REMARK       I    between atoms: C6_11  and  N1_5 
REMARK    1  A    between atoms: C9_14  and  N1_5 
REMARK    2  A    between atoms: C2_7  and  C6_11 
ROOT
HETATM    1  O1  UNK     1      19.466  -2.112  13.027  1.00  0.00    -0.274 OA
HETATM    2  O3  UNK     1      19.441  -0.190  14.262  1.00  0.00    -0.259 OA
HETATM    3  C1  UNK     1      18.569  -4.161  13.977  1.00  0.00    -0.001 A 
HETATM    4  C2  UNK     1      18.539  -2.126  15.289  1.00  0.00     0.108 A 
HETATM    5  C3  UNK     1      19.169  -3.485  12.921  1.00  0.00     0.089 A 
HETATM    6  C4  UNK     1      18.254  -3.430  15.194  1.00  0.00     0.037 A 
HETATM    7  C5  UNK     1      18.290  -5.523  13.833  1.00  0.00     0.014 A 
HETATM    8  C7  UNK     1      19.177  -1.385  14.178  1.00  0.00     0.304 A 
HETATM    9  C8  UNK     1      19.497  -4.127  11.728  1.00  0.00     0.038 A 
HETATM   10  C10 UNK     1      18.612  -6.182  12.643  1.00  0.00     0.001 A 
HETATM   11  C11 UNK     1      19.215  -5.485  11.592  1.00  0.00     0.003 A 
ENDROOT
BRANCH   4  12
HETATM   12  C6  UNK     1      18.184  -1.476  16.557  1.00  0.00     0.262 C 
HETATM   13  O2  UNK     1      17.099  -1.715  17.082  1.00  0.00    -0.267 OA
HETATM   14  N1  UNK     1      19.186  -0.628  17.009  1.00  0.00    -0.323 N 
HETATM   15  H4  UNK     1      20.024  -0.523  16.440  1.00  0.00     0.169 HD
BRANCH  14  16
HETATM   16  C9  UNK     1      19.187   0.157  18.187  1.00  0.00     0.035 A 
HETATM   17  C12 UNK     1      18.985   1.523  18.089  1.00  0.00     0.032 A 
HETATM   18  C14 UNK     1      18.987   2.297  19.249  1.00  0.00     0.044 A 
HETATM   19  C16 UNK     1      19.192   1.694  20.490  1.00  0.00     0.116 A 
HETATM   20  C15 UNK     1      19.393   0.316  20.571  1.00  0.00     0.044 A 
HETATM   21  F1  UNK     1      19.192   2.437  21.604  1.00  0.00    -0.206 F 
HETATM   22  C13 UNK     1      19.392  -0.459  19.410  1.00  0.00     0.032 A 
ENDBRANCH  14  16
ENDBRANCH   4  12
TORSDOF 2
ENDMDL
MODEL 5
REMARK VINA RESULT:      -8.7      3.218      8.001
REMARK  2 active torsions:
REMARK  status: ('A' for Active; 'I' for Inactive)
REMARK       I    between atoms: C6_11  and  N1_5 
REMARK    1  A    between atoms: C9_14  and  N1_5 
REMARK    2  A    between atoms: C2_7  and  C6_11 
ROOT
HETATM    1  O1  UNK     1      17.332   6.247  34.388  1.00  0.00    -0.274 OA
HETATM    2  O3  UNK     1      18.637   4.397  34.078  1.00  0.00    -0.259 OA
HETATM    3  C1  UNK     1      16.568   7.514  32.460  1.00  0.00    -0.001 A 
HETATM    4  C2  UNK     1      17.950   5.552  32.126  1.00  0.00     0.108 A 
HETATM    5  C3  UNK     1      16.616   7.327  33.837  1.00  0.00     0.089 A 
HETATM    6  C4  UNK     1      17.270   6.577  31.597  1.00  0.00     0.037 A 
HETATM    7  C5  UNK     1      15.846   8.597  31.951  1.00  0.00     0.014 A 
HETATM    8  C7  UNK     1      18.014   5.333  33.588  1.00  0.00     0.304 A 
HETATM    9  C8  UNK     1      15.966   8.189  34.718  1.00  0.00     0.038 A 
HETATM   10  C10 UNK     1      15.188   9.470  32.823  1.00  0.00     0.001 A 
HETATM   11  C11 UNK     1      15.248   9.266  34.203  1.00  0.00     0.003 A 
ENDROOT
BRANCH   4  12
HETATM   12  C6  UNK     1      18.626   4.662  31.175  1.00  0.00     0.262 C 
HETATM   13  O2  UNK     1      19.570   5.083  30.510  1.00  0.00    -0.267 OA
HETATM   14  N1  UNK     1      18.066   3.392  31.159  1.00  0.00    -0.323 N 
HETATM   15  H4  UNK     1      17.267   3.207  31.761  1.00  0.00     0.169 HD
BRANCH  14  16
HETATM   16  C9  UNK     1      18.459   2.285  30.368  1.00  0.00     0.035 A 
HETATM   17  C12 UNK     1      19.361   1.370  30.885  1.00  0.00     0.032 A 
HETATM   18  C14 UNK     1      19.750   0.281  30.106  1.00  0.00     0.044 A 
HETATM   19  C16 UNK     1      19.231   0.122  28.821  1.00  0.00     0.116 A 
HETATM   20  C15 UNK     1      18.323   1.053  28.315  1.00  0.00     0.044 A 
HETATM   21  F1  UNK     1      19.603  -0.925  28.073  1.00  0.00    -0.206 F 
HETATM   22  C13 UNK     1      17.934   2.143  29.094  1.00  0.00     0.032 A 
ENDBRANCH  14  16
ENDBRANCH   4  12
TORSDOF 2
ENDMDL
MODEL 6
REMARK VINA RESULT:      -8.6      3.236      7.830
REMARK  2 active torsions:
REMARK  status: ('A' for Active; 'I' for Inactive)
REMARK       I    between atoms: C6_11  and  N1_5 
REMARK    1  A    between atoms: C9_14  and  N1_5 
REMARK    2  A    between atoms: C2_7  and  C6_11 
ROOT
HETATM    1  O1  UNK     1      19.372   7.479  32.788  1.00  0.00    -0.274 OA
HETATM    2  O3  UNK     1      20.501   5.716  31.871  1.00  0.00    -0.259 OA
HETATM    3  C1  UNK     1      17.045   7.209  33.432  1.00  0.00    -0.001 A 
HETATM    4  C2  UNK     1      18.238   5.338  32.461  1.00  0.00     0.108 A 
HETATM    5  C3  UNK     1      18.182   8.003  33.327  1.00  0.00     0.089 A 
HETATM    6  C4  UNK     1      17.104   5.830  32.974  1.00  0.00     0.037 A 
HETATM    7  C5  UNK     1      15.882   7.765  33.974  1.00  0.00     0.014 A 
HETATM    8  C7  UNK     1      19.460   6.163  32.341  1.00  0.00     0.304 A 
HETATM    9  C8  UNK     1      18.191   9.331  33.747  1.00  0.00     0.038 A 
HETATM   10  C10 UNK     1      15.876   9.097  34.399  1.00  0.00     0.001 A 
HETATM   11  C11 UNK     1      17.029   9.878  34.286  1.00  0.00     0.003 A 
ENDROOT
BRANCH   4  12
HETATM   12  C6  UNK     1      18.198   3.936  32.027  1.00  0.00     0.262 C 
HETATM   13  O2  UNK     1      17.803   3.068  32.801  1.00  0.00    -0.267 OA
HETATM   14  N1  UNK     1      18.643   3.781  30.721  1.00  0.00    -0.323 N 
HETATM   15  H4  UNK     1      18.959   4.606  30.216  1.00  0.00     0.169 HD
BRANCH  14  16
HETATM   16  C9  UNK     1      18.741   2.579  29.979  1.00  0.00     0.035 A 
HETATM   17  C12 UNK     1      19.640   1.606  30.383  1.00  0.00     0.032 A 
HETATM   18  C14 UNK     1      19.738   0.423  29.652  1.00  0.00     0.044 A 
HETATM   19  C16 UNK     1      18.936   0.229  28.527  1.00  0.00     0.116 A 
HETATM   20  C15 UNK     1      18.035   1.219  28.134  1.00  0.00     0.044 A 
HETATM   21  F1  UNK     1      19.029  -0.908  27.826  1.00  0.00    -0.206 F 
HETATM   22  C13 UNK     1      17.937   2.403  28.865  1.00  0.00     0.032 A 
ENDBRANCH  14  16
ENDBRANCH   4  12
TORSDOF 2
ENDMDL
MODEL 7
REMARK VINA RESULT:      -8.6      8.561     10.321
REMARK  2 active torsions:
REMARK  status: ('A' for Active; 'I' for Inactive)
REMARK       I    between atoms: C6_11  and  N1_5 
REMARK    1  A    between atoms: C9_14  and  N1_5 
REMARK    2  A    between atoms: C2_7  and  C6_11 
ROOT
HETATM    1  O1  UNK     1      20.066  -7.663  35.743  1.00  0.00    -0.274 OA
HETATM    2  O3  UNK     1      20.218  -5.652  34.667  1.00  0.00    -0.259 OA
HETATM    3  C1  UNK     1      19.886  -7.717  38.166  1.00  0.00    -0.001 A 
HETATM    4  C2  UNK     1      20.044  -5.584  37.030  1.00  0.00     0.108 A 
HETATM    5  C3  UNK     1      19.953  -8.384  36.948  1.00  0.00     0.089 A 
HETATM    6  C4  UNK     1      19.936  -6.264  38.178  1.00  0.00     0.037 A 
HETATM    7  C5  UNK     1      19.773  -8.468  39.340  1.00  0.00     0.014 A 
HETATM    8  C7  UNK     1      20.117  -6.271  35.722  1.00  0.00     0.304 A 
HETATM    9  C8  UNK     1      19.911  -9.774  36.868  1.00  0.00     0.038 A 
HETATM   10  C10 UNK     1      19.730  -9.864  39.276  1.00  0.00     0.001 A 
HETATM   11  C11 UNK     1      19.799 -10.515  38.042  1.00  0.00     0.003 A 
ENDROOT
BRANCH   4  12
HETATM   12  C6  UNK     1      20.088  -4.121  37.144  1.00  0.00     0.262 C 
HETATM   13  O2  UNK     1      21.078  -3.576  37.629  1.00  0.00    -0.267 OA
HETATM   14  N1  UNK     1      18.932  -3.524  36.661  1.00  0.00    -0.323 N 
HETATM   15  H4  UNK     1      18.189  -4.123  36.308  1.00  0.00     0.169 HD
BRANCH  14  16
HETATM   16  C9  UNK     1      18.629  -2.141  36.615  1.00  0.00     0.035 A 
HETATM   17  C12 UNK     1      18.012  -1.547  37.702  1.00  0.00     0.032 A 
HETATM   18  C14 UNK     1      17.711  -0.186  37.656  1.00  0.00     0.044 A 
HETATM   19  C16 UNK     1      18.033   0.561  36.522  1.00  0.00     0.116 A 
HETATM   20  C15 UNK     1      18.656  -0.053  35.435  1.00  0.00     0.044 A 
HETATM   21  F1  UNK     1      17.746   1.869  36.479  1.00  0.00    -0.206 F 
HETATM   22  C13 UNK     1      18.955  -1.415  35.481  1.00  0.00     0.032 A 
ENDBRANCH  14  16
ENDBRANCH   4  12
TORSDOF 2
ENDMDL
MODEL 8
REMARK VINA RESULT:      -8.6      1.475      2.253
REMARK  2 active torsions:
REMARK  status: ('A' for Active; 'I' for Inactive)
REMARK       I    between atoms: C6_11  and  N1_5 
REMARK    1  A    between atoms: C9_14  and  N1_5 
REMARK    2  A    between atoms: C2_7  and  C6_11 
ROOT
HETATM    1  O1  UNK     1      18.782   0.176  32.895  1.00  0.00    -0.274 OA
HETATM    2  O3  UNK     1      17.888   1.822  34.204  1.00  0.00    -0.259 OA
HETATM    3  C1  UNK     1      19.415   0.676  30.603  1.00  0.00    -0.001 A 
HETATM    4  C2  UNK     1      18.469   2.425  31.987  1.00  0.00     0.108 A 
HETATM    5  C3  UNK     1      19.309  -0.228  31.653  1.00  0.00     0.089 A 
HETATM    6  C4  UNK     1      18.970   2.046  30.805  1.00  0.00     0.037 A 
HETATM    7  C5  UNK     1      19.945   0.237  29.386  1.00  0.00     0.014 A 
HETATM    8  C7  UNK     1      18.348   1.480  33.119  1.00  0.00     0.304 A 
HETATM    9  C8  UNK     1      19.717  -1.554  31.525  1.00  0.00     0.038 A 
HETATM   10  C10 UNK     1      20.357  -1.091  29.242  1.00  0.00     0.001 A 
HETATM   11  C11 UNK     1      20.243  -1.985  30.309  1.00  0.00     0.003 A 
ENDROOT
BRANCH   4  12
HETATM   12  C6  UNK     1      18.047   3.827  32.093  1.00  0.00     0.262 C 
HETATM   13  O2  UNK     1      17.174   4.259  31.345  1.00  0.00    -0.267 OA
HETATM   14  N1  UNK     1      18.741   4.508  33.084  1.00  0.00    -0.323 N 
HETATM   15  H4  UNK     1      19.456   4.006  33.606  1.00  0.00     0.169 HD
BRANCH  14  16
HETATM   16  C9  UNK     1      18.596   5.865  33.462  1.00  0.00     0.035 A 
HETATM   17  C12 UNK     1      19.705   6.694  33.442  1.00  0.00     0.032 A 
HETATM   18  C14 UNK     1      19.563   8.030  33.816  1.00  0.00     0.044 A 
HETATM   19  C16 UNK     1      18.315   8.518  34.204  1.00  0.00     0.116 A 
HETATM   20  C15 UNK     1      17.208   7.669  34.217  1.00  0.00     0.044 A 
HETATM   21  F1  UNK     1      18.179   9.801  34.562  1.00  0.00    -0.206 F 
HETATM   22  C13 UNK     1      17.350   6.332  33.844  1.00  0.00     0.032 A 
ENDBRANCH  14  16
ENDBRANCH   4  12
TORSDOF 2
ENDMDL
MODEL 9
REMARK VINA RESULT:      -8.6      3.381      7.655
REMARK  2 active torsions:
REMARK  status: ('A' for Active; 'I' for Inactive)
REMARK       I    between atoms: C6_11  and  N1_5 
REMARK    1  A    between atoms: C9_14  and  N1_5 
REMARK    2  A    between atoms: C2_7  and  C6_11 
ROOT
HETATM    1  O1  UNK     1      19.145   6.634  31.347  1.00  0.00    -0.274 OA
HETATM    2  O3  UNK     1      19.680   5.129  29.713  1.00  0.00    -0.259 OA
HETATM    3  C1  UNK     1      17.766   5.931  33.221  1.00  0.00    -0.001 A 
HETATM    4  C2  UNK     1      18.333   4.332  31.491  1.00  0.00     0.108 A 
HETATM    5  C3  UNK     1      18.485   6.920  32.558  1.00  0.00     0.089 A 
HETATM    6  C4  UNK     1      17.704   4.598  32.643  1.00  0.00     0.037 A 
HETATM    7  C5  UNK     1      17.126   6.253  34.421  1.00  0.00     0.014 A 
HETATM    8  C7  UNK     1      19.104   5.368  30.769  1.00  0.00     0.304 A 
HETATM    9  C8  UNK     1      18.583   8.216  33.058  1.00  0.00     0.038 A 
HETATM   10  C10 UNK     1      17.215   7.550  34.934  1.00  0.00     0.001 A 
HETATM   11  C11 UNK     1      17.942   8.530  34.254  1.00  0.00     0.003 A 
ENDROOT
BRANCH   4  12
HETATM   12  C6  UNK     1      18.211   2.958  30.988  1.00  0.00     0.262 C 
HETATM   13  O2  UNK     1      17.125   2.552  30.582  1.00  0.00    -0.267 OA
HETATM   14  N1  UNK     1      19.415   2.271  31.049  1.00  0.00    -0.323 N 
HETATM   15  H4  UNK     1      20.226   2.748  31.436  1.00  0.00     0.169 HD
BRANCH  14  16
HETATM   16  C9  UNK     1      19.668   0.935  30.653  1.00  0.00     0.035 A 
HETATM   17  C12 UNK     1      19.936   0.663  29.322  1.00  0.00     0.032 A 
HETATM   18  C14 UNK     1      20.183  -0.652  28.931  1.00  0.00     0.044 A 
HETATM   19  C16 UNK     1      20.159  -1.678  29.877  1.00  0.00     0.116 A 
HETATM   20  C15 UNK     1      19.887  -1.386  31.214  1.00  0.00     0.044 A 
HETATM   21  F1  UNK     1      20.397  -2.941  29.502  1.00  0.00    -0.206 F 
HETATM   22  C13 UNK     1      19.639  -0.070  31.606  1.00  0.00     0.032 A 
ENDBRANCH  14  16
ENDBRANCH   4  12
TORSDOF 2
ENDMDL
MODEL 10
REMARK VINA RESULT:      -8.4      3.196      7.745
REMARK  2 active torsions:
REMARK  status: ('A' for Active; 'I' for Inactive)
REMARK       I    between atoms: C6_11  and  N1_5 
REMARK    1  A    between atoms: C9_14  and  N1_5 
REMARK    2  A    between atoms: C2_7  and  C6_11 
ROOT
HETATM    1  O1  UNK     1      16.899   7.695  32.829  1.00  0.00    -0.274 OA
HETATM    2  O3  UNK     1      15.813   5.884  31.957  1.00  0.00    -0.259 OA
HETATM    3  C1  UNK     1      19.218   7.484  33.527  1.00  0.00    -0.001 A 
HETATM    4  C2  UNK     1      18.071   5.561  32.601  1.00  0.00     0.108 A 
HETATM    5  C3  UNK     1      18.071   8.256  33.374  1.00  0.00     0.089 A 
HETATM    6  C4  UNK     1      19.187   6.089  33.118  1.00  0.00     0.037 A 
HETATM    7  C5  UNK     1      20.361   8.076  34.071  1.00  0.00     0.014 A 
HETATM    8  C7  UNK     1      16.839   6.363  32.428  1.00  0.00     0.304 A 
HETATM    9  C8  UNK     1      18.034   9.597  33.746  1.00  0.00     0.038 A 
HETATM   10  C10 UNK     1      20.339   9.422  34.449  1.00  0.00     0.001 A 
HETATM   11  C11 UNK     1      19.177  10.181  34.288  1.00  0.00     0.003 A 
ENDROOT
BRANCH   4  12
HETATM   12  C6  UNK     1      18.139   4.146  32.219  1.00  0.00     0.262 C 
HETATM   13  O2  UNK     1      17.914   3.276  33.058  1.00  0.00    -0.267 OA
HETATM   14  N1  UNK     1      18.471   3.980  30.882  1.00  0.00    -0.323 N 
HETATM   15  H4  UNK     1      18.648   4.811  30.321  1.00  0.00     0.169 HD
BRANCH  14  16
HETATM   16  C9  UNK     1      18.625   2.764  30.174  1.00  0.00     0.035 A 
HETATM   17  C12 UNK     1      19.461   1.785  30.685  1.00  0.00     0.032 A 
HETATM   18  C14 UNK     1      19.614   0.587  29.987  1.00  0.00     0.044 A 
HETATM   19  C16 UNK     1      18.929   0.385  28.789  1.00  0.00     0.116 A 
HETATM   20  C15 UNK     1      18.091   1.382  28.288  1.00  0.00     0.044 A 
HETATM   21  F1  UNK     1      19.076  -0.766  28.119  1.00  0.00    -0.206 F 
HETATM   22  C13 UNK     1      17.938   2.580  28.985  1.00  0.00     0.032 A 
ENDBRANCH  14  16
ENDBRANCH   4  12
TORSDOF 2
ENDMDL
