MODEL 1
REMARK VINA RESULT:      -8.6      0.000      0.000
REMARK  4 active torsions:
REMARK  status: ('A' for Active; 'I' for Inactive)
REMARK    1  A    between atoms: C1_9  and  O1_1 
REMARK    2  A    between atoms: C7_15  and  O1_1 
REMARK    3  A    between atoms: C15_23  and  N2_8 
REMARK    4  A    between atoms: C7_15  and  C8_16 
ROOT
HETATM    1  O2  UNK     1      18.320   1.312  32.316  1.00  0.00    -0.274 OA
HETATM    2  O4  UNK     1      18.389   2.834  30.614  1.00  0.00    -0.259 OA
HETATM    3  C8  UNK     1      18.238   3.705  32.812  1.00  0.00     0.115 A 
HETATM    4  C9  UNK     1      18.165   3.458  34.125  1.00  0.00     0.038 A 
HETATM    5  C10 UNK     1      18.166   2.088  34.614  1.00  0.00     0.001 A 
HETATM    6  C11 UNK     1      18.243   1.045  33.696  1.00  0.00     0.089 A 
HETATM    7  C12 UNK     1      18.322   2.612  31.817  1.00  0.00     0.304 A 
HETATM    8  C13 UNK     1      18.090   1.783  35.976  1.00  0.00     0.050 A 
HETATM    9  C14 UNK     1      18.248  -0.289  34.099  1.00  0.00     0.041 A 
HETATM   10  C15 UNK     1      18.094   0.450  36.395  1.00  0.00     0.103 A 
HETATM   11  C16 UNK     1      18.173  -0.584  35.459  1.00  0.00     0.039 A 
ENDROOT
BRANCH   3  12
HETATM   12  C7  UNK     1      18.231   5.116  32.417  1.00  0.00     0.299 C 
HETATM   13  O3  UNK     1      19.245   5.778  32.257  1.00  0.00    -0.259 OA
BRANCH  12  14
HETATM   14  O1  UNK     1      16.943   5.529  32.268  1.00  0.00    -0.312 OA
BRANCH  14  15
HETATM   15  C1  UNK     1      16.669   6.860  32.688  1.00  0.00     0.135 C 
HETATM   16  C2  UNK     1      16.736   6.923  34.210  1.00  0.00     0.062 C 
HETATM   17  C4  UNK     1      16.293   8.291  34.729  1.00  0.00     0.274 C 
HETATM   18  N1  UNK     1      14.945   8.627  34.250  1.00  0.00     0.084 N 
HETATM   19  C5  UNK     1      14.890   8.643  32.781  1.00  0.00     0.274 C 
HETATM   20  C6  UNK     1      14.514   9.915  34.793  1.00  0.00     0.309 C 
HETATM   21  C3  UNK     1      15.287   7.287  32.201  1.00  0.00     0.062 C 
ENDBRANCH  14  15
ENDBRANCH  12  14
ENDBRANCH   3  12
BRANCH  10  22
HETATM   22  N2  UNK     1      18.017   0.143  37.780  1.00  0.00    -0.116 N 
HETATM   23  O5  UNK     1      18.088  -1.056  38.142  1.00  0.00    -0.532 OA
HETATM   24  O6  UNK     1      17.883   1.081  38.603  1.00  0.00    -0.532 OA
ENDBRANCH  10  22
TORSDOF 4
ENDMDL
MODEL 2
REMARK VINA RESULT:      -8.4      3.720      4.808
REMARK  4 active torsions:
REMARK  status: ('A' for Active; 'I' for Inactive)
REMARK    1  A    between atoms: C1_9  and  O1_1 
REMARK    2  A    between atoms: C7_15  and  O1_1 
REMARK    3  A    between atoms: C15_23  and  N2_8 
REMARK    4  A    between atoms: C7_15  and  C8_16 
ROOT
HETATM    1  O2  UNK     1      19.337   0.181  28.607  1.00  0.00    -0.274 OA
HETATM    2  O4  UNK     1      18.374   2.163  28.004  1.00  0.00    -0.259 OA
HETATM    3  C8  UNK     1      18.631   1.770  30.326  1.00  0.00     0.115 A 
HETATM    4  C9  UNK     1      19.051   0.950  31.296  1.00  0.00     0.038 A 
HETATM    5  C10 UNK     1      19.652  -0.332  30.963  1.00  0.00     0.001 A 
HETATM    6  C11 UNK     1      19.780  -0.687  29.623  1.00  0.00     0.089 A 
HETATM    7  C12 UNK     1      18.758   1.414  28.895  1.00  0.00     0.304 A 
HETATM    8  C13 UNK     1      20.104  -1.221  31.942  1.00  0.00     0.050 A 
HETATM    9  C14 UNK     1      20.347  -1.900  29.236  1.00  0.00     0.041 A 
HETATM   10  C15 UNK     1      20.674  -2.441  31.569  1.00  0.00     0.103 A 
HETATM   11  C16 UNK     1      20.795  -2.780  30.220  1.00  0.00     0.039 A 
ENDROOT
BRANCH   3  12
HETATM   12  C7  UNK     1      18.040   3.038  30.762  1.00  0.00     0.299 C 
HETATM   13  O3  UNK     1      16.837   3.243  30.805  1.00  0.00    -0.259 OA
BRANCH  12  14
HETATM   14  O1  UNK     1      19.038   3.902  31.095  1.00  0.00    -0.312 OA
BRANCH  14  15
HETATM   15  C1  UNK     1      18.640   5.045  31.842  1.00  0.00     0.135 C 
HETATM   16  C2  UNK     1      19.790   6.046  31.867  1.00  0.00     0.062 C 
HETATM   17  C4  UNK     1      19.482   7.225  32.790  1.00  0.00     0.274 C 
HETATM   18  N1  UNK     1      19.162   6.762  34.148  1.00  0.00     0.084 N 
HETATM   19  C5  UNK     1      18.005   5.855  34.144  1.00  0.00     0.274 C 
HETATM   20  C6  UNK     1      18.917   7.901  35.032  1.00  0.00     0.309 C 
HETATM   21  C3  UNK     1      18.267   4.634  33.264  1.00  0.00     0.062 C 
ENDBRANCH  14  15
ENDBRANCH  12  14
ENDBRANCH   3  12
BRANCH  10  22
HETATM   22  N2  UNK     1      21.132  -3.342  32.567  1.00  0.00    -0.116 N 
HETATM   23  O5  UNK     1      20.978  -3.040  33.775  1.00  0.00    -0.532 OA
HETATM   24  O6  UNK     1      21.677  -4.415  32.213  1.00  0.00    -0.532 OA
ENDBRANCH  10  22
TORSDOF 4
ENDMDL
MODEL 3
REMARK VINA RESULT:      -8.4      3.317      4.639
REMARK  4 active torsions:
REMARK  status: ('A' for Active; 'I' for Inactive)
REMARK    1  A    between atoms: C1_9  and  O1_1 
REMARK    2  A    between atoms: C7_15  and  O1_1 
REMARK    3  A    between atoms: C15_23  and  N2_8 
REMARK    4  A    between atoms: C7_15  and  C8_16 
ROOT
HETATM    1  O2  UNK     1      20.198  -1.623  29.471  1.00  0.00    -0.274 OA
HETATM    2  O4  UNK     1      19.578  -0.244  27.759  1.00  0.00    -0.259 OA
HETATM    3  C8  UNK     1      19.083   0.499  29.953  1.00  0.00     0.115 A 
HETATM    4  C9  UNK     1      19.138   0.261  31.268  1.00  0.00     0.038 A 
HETATM    5  C10 UNK     1      19.742  -0.965  31.767  1.00  0.00     0.001 A 
HETATM    6  C11 UNK     1      20.258  -1.880  30.855  1.00  0.00     0.089 A 
HETATM    7  C12 UNK     1      19.627  -0.459  28.964  1.00  0.00     0.304 A 
HETATM    8  C13 UNK     1      19.820  -1.256  33.131  1.00  0.00     0.050 A 
HETATM    9  C14 UNK     1      20.850  -3.073  31.266  1.00  0.00     0.041 A 
HETATM   10  C15 UNK     1      20.410  -2.448  33.559  1.00  0.00     0.103 A 
HETATM   11  C16 UNK     1      20.924  -3.354  32.629  1.00  0.00     0.039 A 
ENDROOT
BRANCH   3  12
HETATM   12  C7  UNK     1      18.456   1.760  29.549  1.00  0.00     0.299 C 
HETATM   13  O3  UNK     1      17.404   1.824  28.932  1.00  0.00    -0.259 OA
BRANCH  12  14
HETATM   14  O1  UNK     1      19.230   2.797  29.973  1.00  0.00    -0.312 OA
BRANCH  14  15
HETATM   15  C1  UNK     1      18.526   3.947  30.425  1.00  0.00     0.135 C 
HETATM   16  C2  UNK     1      19.344   5.190  30.094  1.00  0.00     0.062 C 
HETATM   17  C4  UNK     1      18.716   6.446  30.698  1.00  0.00     0.274 C 
HETATM   18  N1  UNK     1      18.545   6.304  32.151  1.00  0.00     0.084 N 
HETATM   19  C5  UNK     1      17.693   5.151  32.477  1.00  0.00     0.274 C 
HETATM   20  C6  UNK     1      17.988   7.530  32.723  1.00  0.00     0.309 C 
HETATM   21  C3  UNK     1      18.290   3.855  31.930  1.00  0.00     0.062 C 
ENDBRANCH  14  15
ENDBRANCH  12  14
ENDBRANCH   3  12
BRANCH  10  22
HETATM   22  N2  UNK     1      20.489  -2.741  34.947  1.00  0.00    -0.116 N 
HETATM   23  O5  UNK     1      20.272  -3.915  35.334  1.00  0.00    -0.532 OA
HETATM   24  O6  UNK     1      20.774  -1.817  35.747  1.00  0.00    -0.532 OA
ENDBRANCH  10  22
TORSDOF 4
ENDMDL
MODEL 4
REMARK VINA RESULT:      -8.2     17.357     20.511
REMARK  4 active torsions:
REMARK  status: ('A' for Active; 'I' for Inactive)
REMARK    1  A    between atoms: C1_9  and  O1_1 
REMARK    2  A    between atoms: C7_15  and  O1_1 
REMARK    3  A    between atoms: C15_23  and  N2_8 
REMARK    4  A    between atoms: C7_15  and  C8_16 
ROOT
HETATM    1  O2  UNK     1      19.295   0.762  14.985  1.00  0.00    -0.274 OA
HETATM    2  O4  UNK     1      19.215  -0.797  13.316  1.00  0.00    -0.259 OA
HETATM    3  C8  UNK     1      18.821  -1.577  15.519  1.00  0.00     0.115 A 
HETATM    4  C9  UNK     1      18.720  -1.288  16.821  1.00  0.00     0.038 A 
HETATM    5  C10 UNK     1      18.906   0.079  17.285  1.00  0.00     0.001 A 
HETATM    6  C11 UNK     1      19.190   1.073  16.354  1.00  0.00     0.089 A 
HETATM    7  C12 UNK     1      19.121  -0.535  14.510  1.00  0.00     0.304 A 
HETATM    8  C13 UNK     1      18.811   0.426  18.635  1.00  0.00     0.050 A 
HETATM    9  C14 UNK     1      19.379   2.401  16.733  1.00  0.00     0.041 A 
HETATM   10  C15 UNK     1      18.999   1.754  19.030  1.00  0.00     0.103 A 
HETATM   11  C16 UNK     1      19.282   2.739  18.081  1.00  0.00     0.039 A 
ENDROOT
BRANCH   3  12
HETATM   12  C7  UNK     1      18.617  -2.980  15.150  1.00  0.00     0.299 C 
HETATM   13  O3  UNK     1      17.524  -3.525  15.142  1.00  0.00    -0.259 OA
BRANCH  12  14
HETATM   14  O1  UNK     1      19.819  -3.534  14.831  1.00  0.00    -0.312 OA
BRANCH  14  15
HETATM   15  C1  UNK     1      19.763  -4.712  14.035  1.00  0.00     0.135 C 
HETATM   16  C2  UNK     1      20.675  -5.768  14.649  1.00  0.00     0.062 C 
HETATM   17  C4  UNK     1      20.782  -7.001  13.751  1.00  0.00     0.274 C 
HETATM   18  N1  UNK     1      21.239  -6.634  12.403  1.00  0.00     0.084 N 
HETATM   19  C5  UNK     1      20.322  -5.673  11.773  1.00  0.00     0.274 C 
HETATM   20  C6  UNK     1      21.383  -7.827  11.569  1.00  0.00     0.309 C 
HETATM   21  C3  UNK     1      20.203  -4.399  12.608  1.00  0.00     0.062 C 
ENDBRANCH  14  15
ENDBRANCH  12  14
ENDBRANCH   3  12
BRANCH  10  22
HETATM   22  N2  UNK     1      18.901   2.104  20.403  1.00  0.00    -0.116 N 
HETATM   23  O5  UNK     1      19.930   2.492  21.006  1.00  0.00    -0.532 OA
HETATM   24  O6  UNK     1      17.787   2.018  20.974  1.00  0.00    -0.532 OA
ENDBRANCH  10  22
TORSDOF 4
ENDMDL
MODEL 5
REMARK VINA RESULT:      -8.2     16.235     19.467
REMARK  4 active torsions:
REMARK  status: ('A' for Active; 'I' for Inactive)
REMARK    1  A    between atoms: C1_9  and  O1_1 
REMARK    2  A    between atoms: C7_15  and  O1_1 
REMARK    3  A    between atoms: C15_23  and  N2_8 
REMARK    4  A    between atoms: C7_15  and  C8_16 
ROOT
HETATM    1  O2  UNK     1      19.314   0.739  14.941  1.00  0.00    -0.274 OA
HETATM    2  O4  UNK     1      19.356  -0.832  13.282  1.00  0.00    -0.259 OA
HETATM    3  C8  UNK     1      19.002  -1.624  15.487  1.00  0.00     0.115 A 
HETATM    4  C9  UNK     1      18.871  -1.335  16.786  1.00  0.00     0.038 A 
HETATM    5  C10 UNK     1      18.958   0.044  17.243  1.00  0.00     0.001 A 
HETATM    6  C11 UNK     1      19.178   1.050  16.308  1.00  0.00     0.089 A 
HETATM    7  C12 UNK     1      19.236  -0.570  14.474  1.00  0.00     0.304 A 
HETATM    8  C13 UNK     1      18.829   0.392  18.590  1.00  0.00     0.050 A 
HETATM    9  C14 UNK     1      19.272   2.390  16.679  1.00  0.00     0.041 A 
HETATM   10  C15 UNK     1      18.920   1.732  18.978  1.00  0.00     0.103 A 
HETATM   11  C16 UNK     1      19.141   2.728  18.025  1.00  0.00     0.039 A 
ENDROOT
BRANCH   3  12
HETATM   12  C7  UNK     1      18.899  -3.040  15.126  1.00  0.00     0.299 C 
HETATM   13  O3  UNK     1      17.861  -3.679  15.186  1.00  0.00    -0.259 OA
BRANCH  12  14
HETATM   14  O1  UNK     1      20.122  -3.487  14.728  1.00  0.00    -0.312 OA
BRANCH  14  15
HETATM   15  C1  UNK     1      21.060  -3.725  15.769  1.00  0.00     0.135 C 
HETATM   16  C2  UNK     1      22.307  -2.885  15.516  1.00  0.00     0.062 C 
HETATM   17  C4  UNK     1      23.416  -3.218  16.514  1.00  0.00     0.274 C 
HETATM   18  N1  UNK     1      23.737  -4.652  16.486  1.00  0.00     0.084 N 
HETATM   19  C5  UNK     1      22.557  -5.469  16.806  1.00  0.00     0.274 C 
HETATM   20  C6  UNK     1      24.831  -4.949  17.410  1.00  0.00     0.309 C 
HETATM   21  C3  UNK     1      21.423  -5.207  15.816  1.00  0.00     0.062 C 
ENDBRANCH  14  15
ENDBRANCH  12  14
ENDBRANCH   3  12
BRANCH  10  22
HETATM   22  N2  UNK     1      18.788   2.083  20.347  1.00  0.00    -0.116 N 
HETATM   23  O5  UNK     1      19.800   2.481  20.974  1.00  0.00    -0.532 OA
HETATM   24  O6  UNK     1      17.662   1.986  20.893  1.00  0.00    -0.532 OA
ENDBRANCH  10  22
TORSDOF 4
ENDMDL
MODEL 6
REMARK VINA RESULT:      -8.1      1.401      1.662
REMARK  4 active torsions:
REMARK  status: ('A' for Active; 'I' for Inactive)
REMARK    1  A    between atoms: C1_9  and  O1_1 
REMARK    2  A    between atoms: C7_15  and  O1_1 
REMARK    3  A    between atoms: C15_23  and  N2_8 
REMARK    4  A    between atoms: C7_15  and  C8_16 
ROOT
HETATM    1  O2  UNK     1      18.849   0.201  32.022  1.00  0.00    -0.274 OA
HETATM    2  O4  UNK     1      18.983   1.424  30.097  1.00  0.00    -0.259 OA
HETATM    3  C8  UNK     1      18.434   2.611  32.072  1.00  0.00     0.115 A 
HETATM    4  C9  UNK     1      18.208   2.572  33.390  1.00  0.00     0.038 A 
HETATM    5  C10 UNK     1      18.292   1.312  34.112  1.00  0.00     0.001 A 
HETATM    6  C11 UNK     1      18.611   0.154  33.410  1.00  0.00     0.089 A 
HETATM    7  C12 UNK     1      18.775   1.392  31.304  1.00  0.00     0.304 A 
HETATM    8  C13 UNK     1      18.063   1.225  35.488  1.00  0.00     0.050 A 
HETATM    9  C14 UNK     1      18.708  -1.084  34.041  1.00  0.00     0.041 A 
HETATM   10  C15 UNK     1      18.157  -0.011  36.135  1.00  0.00     0.103 A 
HETATM   11  C16 UNK     1      18.479  -1.162  35.413  1.00  0.00     0.039 A 
ENDROOT
BRANCH   3  12
HETATM   12  C7  UNK     1      18.325   3.926  31.435  1.00  0.00     0.299 C 
HETATM   13  O3  UNK     1      19.002   4.271  30.479  1.00  0.00    -0.259 OA
BRANCH  12  14
HETATM   14  O1  UNK     1      17.371   4.654  32.078  1.00  0.00    -0.312 OA
BRANCH  14  15
HETATM   15  C1  UNK     1      17.598   6.056  32.131  1.00  0.00     0.135 C 
HETATM   16  C2  UNK     1      18.558   6.360  33.276  1.00  0.00     0.062 C 
HETATM   17  C4  UNK     1      18.715   7.866  33.486  1.00  0.00     0.274 C 
HETATM   18  N1  UNK     1      17.411   8.505  33.714  1.00  0.00     0.084 N 
HETATM   19  C5  UNK     1      16.503   8.283  32.580  1.00  0.00     0.274 C 
HETATM   20  C6  UNK     1      17.580   9.937  33.961  1.00  0.00     0.309 C 
HETATM   21  C3  UNK     1      16.276   6.791  32.342  1.00  0.00     0.062 C 
ENDBRANCH  14  15
ENDBRANCH  12  14
ENDBRANCH   3  12
BRANCH  10  22
HETATM   22  N2  UNK     1      17.924  -0.096  37.533  1.00  0.00    -0.116 N 
HETATM   23  O5  UNK     1      17.477   0.909  38.137  1.00  0.00    -0.532 OA
HETATM   24  O6  UNK     1      18.170  -1.175  38.125  1.00  0.00    -0.532 OA
ENDBRANCH  10  22
TORSDOF 4
ENDMDL
MODEL 7
REMARK VINA RESULT:      -7.9     13.610     16.179
REMARK  4 active torsions:
REMARK  status: ('A' for Active; 'I' for Inactive)
REMARK    1  A    between atoms: C1_9  and  O1_1 
REMARK    2  A    between atoms: C7_15  and  O1_1 
REMARK    3  A    between atoms: C15_23  and  N2_8 
REMARK    4  A    between atoms: C7_15  and  C8_16 
ROOT
HETATM    1  O2  UNK     1      27.920  -4.735  38.683  1.00  0.00    -0.274 OA
HETATM    2  O4  UNK     1      25.686  -5.104  38.986  1.00  0.00    -0.259 OA
HETATM    3  C8  UNK     1      27.054  -7.021  38.731  1.00  0.00     0.115 A 
HETATM    4  C9  UNK     1      28.281  -7.519  38.541  1.00  0.00     0.038 A 
HETATM    5  C10 UNK     1      29.422  -6.627  38.409  1.00  0.00     0.001 A 
HETATM    6  C11 UNK     1      29.214  -5.253  38.483  1.00  0.00     0.089 A 
HETATM    7  C12 UNK     1      26.809  -5.563  38.813  1.00  0.00     0.304 A 
HETATM    8  C13 UNK     1      30.721  -7.102  38.210  1.00  0.00     0.050 A 
HETATM    9  C14 UNK     1      30.264  -4.344  38.365  1.00  0.00     0.041 A 
HETATM   10  C15 UNK     1      31.784  -6.203  38.089  1.00  0.00     0.103 A 
HETATM   11  C16 UNK     1      31.556  -4.827  38.166  1.00  0.00     0.039 A 
ENDROOT
BRANCH   3  12
HETATM   12  C7  UNK     1      25.970  -8.000  38.852  1.00  0.00     0.299 C 
HETATM   13  O3  UNK     1      26.047  -9.014  39.527  1.00  0.00    -0.259 OA
BRANCH  12  14
HETATM   14  O1  UNK     1      24.910  -7.583  38.105  1.00  0.00    -0.312 OA
BRANCH  14  15
HETATM   15  C1  UNK     1      23.640  -8.080  38.507  1.00  0.00     0.135 C 
HETATM   16  C2  UNK     1      22.922  -8.649  37.288  1.00  0.00     0.062 C 
HETATM   17  C4  UNK     1      21.487  -9.053  37.626  1.00  0.00     0.274 C 
HETATM   18  N1  UNK     1      20.739  -7.920  38.190  1.00  0.00     0.084 N 
HETATM   19  C5  UNK     1      21.383  -7.413  39.411  1.00  0.00     0.274 C 
HETATM   20  C6  UNK     1      19.355  -8.306  38.463  1.00  0.00     0.309 C 
HETATM   21  C3  UNK     1      22.813  -6.957  39.129  1.00  0.00     0.062 C 
ENDBRANCH  14  15
ENDBRANCH  12  14
ENDBRANCH   3  12
BRANCH  10  22
HETATM   22  N2  UNK     1      33.102  -6.689  37.886  1.00  0.00    -0.116 N 
HETATM   23  O5  UNK     1      34.064  -5.885  37.950  1.00  0.00    -0.532 OA
HETATM   24  O6  UNK     1      33.270  -7.910  37.651  1.00  0.00    -0.532 OA
ENDBRANCH  10  22
TORSDOF 4
ENDMDL
MODEL 8
REMARK VINA RESULT:      -7.9     16.889     20.005
REMARK  4 active torsions:
REMARK  status: ('A' for Active; 'I' for Inactive)
REMARK    1  A    between atoms: C1_9  and  O1_1 
REMARK    2  A    between atoms: C7_15  and  O1_1 
REMARK    3  A    between atoms: C15_23  and  N2_8 
REMARK    4  A    between atoms: C7_15  and  C8_16 
ROOT
HETATM    1  O2  UNK     1      19.252   0.756  15.016  1.00  0.00    -0.274 OA
HETATM    2  O4  UNK     1      19.447  -0.815  13.369  1.00  0.00    -0.259 OA
HETATM    3  C8  UNK     1      19.335  -1.618  15.595  1.00  0.00     0.115 A 
HETATM    4  C9  UNK     1      19.230  -1.333  16.897  1.00  0.00     0.038 A 
HETATM    5  C10 UNK     1      19.128   0.050  17.339  1.00  0.00     0.001 A 
HETATM    6  C11 UNK     1      19.142   1.063  16.386  1.00  0.00     0.089 A 
HETATM    7  C12 UNK     1      19.351  -0.557  14.563  1.00  0.00     0.304 A 
HETATM    8  C13 UNK     1      19.018   0.395  18.689  1.00  0.00     0.050 A 
HETATM    9  C14 UNK     1      19.047   2.407  16.742  1.00  0.00     0.041 A 
HETATM   10  C15 UNK     1      18.923   1.739  19.061  1.00  0.00     0.103 A 
HETATM   11  C16 UNK     1      18.937   2.742  18.090  1.00  0.00     0.039 A 
ENDROOT
BRANCH   3  12
HETATM   12  C7  UNK     1      19.433  -3.039  15.249  1.00  0.00     0.299 C 
HETATM   13  O3  UNK     1      20.475  -3.585  14.923  1.00  0.00    -0.259 OA
BRANCH  12  14
HETATM   14  O1  UNK     1      18.201  -3.608  15.358  1.00  0.00    -0.312 OA
BRANCH  14  15
HETATM   15  C1  UNK     1      18.146  -5.009  15.122  1.00  0.00     0.135 C 
HETATM   16  C2  UNK     1      18.044  -5.256  13.621  1.00  0.00     0.062 C 
HETATM   17  C4  UNK     1      17.820  -6.737  13.314  1.00  0.00     0.274 C 
HETATM   18  N1  UNK     1      16.629  -7.245  14.009  1.00  0.00     0.084 N 
HETATM   19  C5  UNK     1      16.752  -7.082  15.465  1.00  0.00     0.274 C 
HETATM   20  C6  UNK     1      16.399  -8.649  13.669  1.00  0.00     0.309 C 
HETATM   21  C3  UNK     1      16.941  -5.613  15.839  1.00  0.00     0.062 C 
ENDBRANCH  14  15
ENDBRANCH  12  14
ENDBRANCH   3  12
BRANCH  10  22
HETATM   22  N2  UNK     1      18.810   2.086  20.433  1.00  0.00    -0.116 N 
HETATM   23  O5  UNK     1      19.841   2.432  21.059  1.00  0.00    -0.532 OA
HETATM   24  O6  UNK     1      17.683   2.038  20.982  1.00  0.00    -0.532 OA
ENDBRANCH  10  22
TORSDOF 4
ENDMDL
MODEL 9
REMARK VINA RESULT:      -7.9      4.771      7.728
REMARK  4 active torsions:
REMARK  status: ('A' for Active; 'I' for Inactive)
REMARK    1  A    between atoms: C1_9  and  O1_1 
REMARK    2  A    between atoms: C7_15  and  O1_1 
REMARK    3  A    between atoms: C15_23  and  N2_8 
REMARK    4  A    between atoms: C7_15  and  C8_16 
ROOT
HETATM    1  O2  UNK     1      20.867  -2.735  30.792  1.00  0.00    -0.274 OA
HETATM    2  O4  UNK     1      21.413  -4.218  32.443  1.00  0.00    -0.259 OA
HETATM    3  C8  UNK     1      20.278  -2.250  33.115  1.00  0.00     0.115 A 
HETATM    4  C9  UNK     1      19.716  -1.089  32.759  1.00  0.00     0.038 A 
HETATM    5  C10 UNK     1      19.701  -0.680  31.363  1.00  0.00     0.001 A 
HETATM    6  C11 UNK     1      20.278  -1.514  30.411  1.00  0.00     0.089 A 
HETATM    7  C12 UNK     1      20.897  -3.154  32.119  1.00  0.00     0.304 A 
HETATM    8  C13 UNK     1      19.126   0.523  30.945  1.00  0.00     0.050 A 
HETATM    9  C14 UNK     1      20.297  -1.182  29.057  1.00  0.00     0.041 A 
HETATM   10  C15 UNK     1      19.138   0.871  29.591  1.00  0.00     0.103 A 
HETATM   11  C16 UNK     1      19.722   0.020  28.650  1.00  0.00     0.039 A 
ENDROOT
BRANCH   3  12
HETATM   12  C7  UNK     1      20.243  -2.574  34.544  1.00  0.00     0.299 C 
HETATM   13  O3  UNK     1      20.206  -3.715  34.977  1.00  0.00    -0.259 OA
BRANCH  12  14
HETATM   14  O1  UNK     1      20.263  -1.418  35.262  1.00  0.00    -0.312 OA
BRANCH  14  15
HETATM   15  C1  UNK     1      18.993  -0.835  35.526  1.00  0.00     0.135 C 
HETATM   16  C2  UNK     1      19.122   0.683  35.464  1.00  0.00     0.062 C 
HETATM   17  C4  UNK     1      17.826   1.369  35.897  1.00  0.00     0.274 C 
HETATM   18  N1  UNK     1      17.423   0.934  37.242  1.00  0.00     0.084 N 
HETATM   19  C5  UNK     1      17.221  -0.522  37.292  1.00  0.00     0.274 C 
HETATM   20  C6  UNK     1      16.210   1.634  37.664  1.00  0.00     0.309 C 
HETATM   21  C3  UNK     1      18.497  -1.267  36.904  1.00  0.00     0.062 C 
ENDBRANCH  14  15
ENDBRANCH  12  14
ENDBRANCH   3  12
BRANCH  10  22
HETATM   22  N2  UNK     1      18.553   2.094  29.170  1.00  0.00    -0.116 N 
HETATM   23  O5  UNK     1      17.966   2.138  28.062  1.00  0.00    -0.532 OA
HETATM   24  O6  UNK     1      18.638   3.098  29.919  1.00  0.00    -0.532 OA
ENDBRANCH  10  22
TORSDOF 4
ENDMDL
MODEL 10
REMARK VINA RESULT:      -7.9      5.627     10.214
REMARK  4 active torsions:
REMARK  status: ('A' for Active; 'I' for Inactive)
REMARK    1  A    between atoms: C1_9  and  O1_1 
REMARK    2  A    between atoms: C7_15  and  O1_1 
REMARK    3  A    between atoms: C15_23  and  N2_8 
REMARK    4  A    between atoms: C7_15  and  C8_16 
ROOT
HETATM    1  O2  UNK     1      20.825  -2.545  31.025  1.00  0.00    -0.274 OA
HETATM    2  O4  UNK     1      21.255  -4.023  32.714  1.00  0.00    -0.259 OA
HETATM    3  C8  UNK     1      20.018  -2.084  33.287  1.00  0.00     0.115 A 
HETATM    4  C9  UNK     1      19.464  -0.935  32.885  1.00  0.00     0.038 A 
HETATM    5  C10 UNK     1      19.564  -0.520  31.494  1.00  0.00     0.001 A 
HETATM    6  C11 UNK     1      20.244  -1.336  30.596  1.00  0.00     0.089 A 
HETATM    7  C12 UNK     1      20.746  -2.969  32.349  1.00  0.00     0.304 A 
HETATM    8  C13 UNK     1      19.002   0.672  31.030  1.00  0.00     0.050 A 
HETATM    9  C14 UNK     1      20.376  -0.997  29.250  1.00  0.00     0.041 A 
HETATM   10  C15 UNK     1      19.126   1.026  29.684  1.00  0.00     0.103 A 
HETATM   11  C16 UNK     1      19.811   0.194  28.796  1.00  0.00     0.039 A 
ENDROOT
BRANCH   3  12
HETATM   12  C7  UNK     1      19.864  -2.416  34.706  1.00  0.00     0.299 C 
HETATM   13  O3  UNK     1      19.228  -1.734  35.494  1.00  0.00    -0.259 OA
BRANCH  12  14
HETATM   14  O1  UNK     1      20.532  -3.573  34.967  1.00  0.00    -0.312 OA
BRANCH  14  15
HETATM   15  C1  UNK     1      19.953  -4.408  35.961  1.00  0.00     0.135 C 
HETATM   16  C2  UNK     1      20.870  -4.438  37.179  1.00  0.00     0.062 C 
HETATM   17  C4  UNK     1      20.381  -5.446  38.219  1.00  0.00     0.274 C 
HETATM   18  N1  UNK     1      20.247  -6.787  37.633  1.00  0.00     0.084 N 
HETATM   19  C5  UNK     1      19.304  -6.783  36.505  1.00  0.00     0.274 C 
HETATM   20  C6  UNK     1      19.826  -7.750  38.650  1.00  0.00     0.309 C 
HETATM   21  C3  UNK     1      19.760  -5.819  35.411  1.00  0.00     0.062 C 
ENDBRANCH  14  15
ENDBRANCH  12  14
ENDBRANCH   3  12
BRANCH  10  22
HETATM   22  N2  UNK     1      18.553   2.238  29.216  1.00  0.00    -0.116 N 
HETATM   23  O5  UNK     1      18.694   3.281  29.898  1.00  0.00    -0.532 OA
HETATM   24  O6  UNK     1      17.923   2.232  28.131  1.00  0.00    -0.532 OA
ENDBRANCH  10  22
TORSDOF 4
ENDMDL
