MODEL 1
REMARK VINA RESULT:      -8.5      0.000      0.000
REMARK  1 active torsions:
REMARK  status: ('A' for Active; 'I' for Inactive)
REMARK    1  A    between atoms: C1_3  and  C3_5 
ROOT
HETATM    1  O1  UNK     1      18.755   0.283  32.654  1.00  0.00    -0.340 OA
HETATM    2  O2  UNK     1      20.903  -3.212  32.700  1.00  0.00    -0.292 OA
HETATM    3  C1  UNK     1      18.415  -0.775  33.564  1.00  0.00     0.169 C 
HETATM    4  C2  UNK     1      19.651  -1.588  33.946  1.00  0.00     0.121 C 
HETATM    5  C4  UNK     1      20.264  -2.166  32.697  1.00  0.00     0.165 C 
HETATM    6  C5  UNK     1      20.112  -1.359  31.468  1.00  0.00     0.043 A 
HETATM    7  C6  UNK     1      19.384  -0.168  31.522  1.00  0.00     0.083 A 
HETATM    8  C9  UNK     1      20.724  -1.759  30.278  1.00  0.00     0.018 A 
HETATM    9  C10 UNK     1      19.295   0.643  30.391  1.00  0.00     0.038 A 
HETATM   10  C11 UNK     1      20.615  -0.954  29.144  1.00  0.00     0.001 A 
HETATM   11  C12 UNK     1      19.907   0.247  29.201  1.00  0.00     0.003 A 
ENDROOT
BRANCH   3  12
HETATM   12  C3  UNK     1      17.765  -0.165  34.787  1.00  0.00    -0.029 A 
HETATM   13  C7  UNK     1      18.555   0.407  35.785  1.00  0.00     0.010 A 
HETATM   14  C13 UNK     1      17.957   0.969  36.912  1.00  0.00     0.001 A 
HETATM   15  C15 UNK     1      16.568   0.959  37.043  1.00  0.00     0.000 A 
HETATM   16  C14 UNK     1      15.777   0.387  36.046  1.00  0.00     0.001 A 
HETATM   17  C8  UNK     1      16.376  -0.175  34.919  1.00  0.00     0.010 A 
ENDBRANCH   3  12
TORSDOF 1
ENDMDL
MODEL 2
REMARK VINA RESULT:      -8.2     24.494     26.513
REMARK  1 active torsions:
REMARK  status: ('A' for Active; 'I' for Inactive)
REMARK    1  A    between atoms: C1_3  and  C3_5 
ROOT
HETATM    1  O1  UNK     1      13.298   7.532   8.640  1.00  0.00    -0.340 OA
HETATM    2  O2  UNK     1      15.485   4.228   9.701  1.00  0.00    -0.292 OA
HETATM    3  C1  UNK     1      13.089   6.272   7.983  1.00  0.00     0.169 C 
HETATM    4  C2  UNK     1      13.393   5.107   8.923  1.00  0.00     0.121 C 
HETATM    5  C4  UNK     1      14.823   5.210   9.387  1.00  0.00     0.165 C 
HETATM    6  C5  UNK     1      15.366   6.578   9.511  1.00  0.00     0.043 A 
HETATM    7  C6  UNK     1      14.563   7.664   9.151  1.00  0.00     0.083 A 
HETATM    8  C9  UNK     1      16.648   6.788  10.022  1.00  0.00     0.018 A 
HETATM    9  C10 UNK     1      15.033   8.965   9.334  1.00  0.00     0.038 A 
HETATM   10  C11 UNK     1      17.121   8.090  10.185  1.00  0.00     0.001 A 
HETATM   11  C12 UNK     1      16.313   9.177   9.846  1.00  0.00     0.003 A 
ENDROOT
BRANCH   3  12
HETATM   12  C3  UNK     1      11.657   6.219   7.494  1.00  0.00    -0.029 A 
HETATM   13  C7  UNK     1      11.387   6.227   6.125  1.00  0.00     0.010 A 
HETATM   14  C13 UNK     1      10.068   6.178   5.675  1.00  0.00     0.001 A 
HETATM   15  C15 UNK     1       9.018   6.123   6.593  1.00  0.00     0.000 A 
HETATM   16  C14 UNK     1       9.289   6.115   7.962  1.00  0.00     0.001 A 
HETATM   17  C8  UNK     1      10.608   6.163   8.412  1.00  0.00     0.010 A 
ENDBRANCH   3  12
TORSDOF 1
ENDMDL
MODEL 3
REMARK VINA RESULT:      -8.1      1.371      2.880
REMARK  1 active torsions:
REMARK  status: ('A' for Active; 'I' for Inactive)
REMARK    1  A    between atoms: C1_3  and  C3_5 
ROOT
HETATM    1  O1  UNK     1      18.702  -0.301  32.797  1.00  0.00    -0.340 OA
HETATM    2  O2  UNK     1      18.875   2.909  30.248  1.00  0.00    -0.292 OA
HETATM    3  C1  UNK     1      18.721   1.042  33.308  1.00  0.00     0.169 C 
HETATM    4  C2  UNK     1      18.070   2.012  32.323  1.00  0.00     0.121 C 
HETATM    5  C4  UNK     1      18.813   1.954  31.013  1.00  0.00     0.165 C 
HETATM    6  C5  UNK     1      19.411   0.648  30.666  1.00  0.00     0.043 A 
HETATM    7  C6  UNK     1      19.301  -0.413  31.569  1.00  0.00     0.083 A 
HETATM    8  C9  UNK     1      20.038   0.462  29.432  1.00  0.00     0.018 A 
HETATM    9  C10 UNK     1      19.792  -1.672  31.224  1.00  0.00     0.038 A 
HETATM   10  C11 UNK     1      20.545  -0.795  29.100  1.00  0.00     0.001 A 
HETATM   11  C12 UNK     1      20.418  -1.861  29.991  1.00  0.00     0.003 A 
ENDROOT
BRANCH   3  12
HETATM   12  C3  UNK     1      18.003   1.057  34.642  1.00  0.00    -0.029 A 
HETATM   13  C7  UNK     1      16.761   0.436  34.771  1.00  0.00     0.010 A 
HETATM   14  C13 UNK     1      16.100   0.451  35.999  1.00  0.00     0.001 A 
HETATM   15  C15 UNK     1      16.680   1.086  37.097  1.00  0.00     0.000 A 
HETATM   16  C14 UNK     1      17.923   1.706  36.967  1.00  0.00     0.001 A 
HETATM   17  C8  UNK     1      18.584   1.692  35.739  1.00  0.00     0.010 A 
ENDBRANCH   3  12
TORSDOF 1
ENDMDL
MODEL 4
REMARK VINA RESULT:      -8.0      1.772      6.110
REMARK  1 active torsions:
REMARK  status: ('A' for Active; 'I' for Inactive)
REMARK    1  A    between atoms: C1_3  and  C3_5 
ROOT
HETATM    1  O1  UNK     1      19.858  -1.552  33.819  1.00  0.00    -0.340 OA
HETATM    2  O2  UNK     1      16.945   0.971  35.225  1.00  0.00    -0.292 OA
HETATM    3  C1  UNK     1      18.873  -1.002  32.930  1.00  0.00     0.169 C 
HETATM    4  C2  UNK     1      18.401   0.368  33.416  1.00  0.00     0.121 C 
HETATM    5  C4  UNK     1      17.819   0.225  34.799  1.00  0.00     0.165 C 
HETATM    6  C5  UNK     1      18.415  -0.829  35.646  1.00  0.00     0.043 A 
HETATM    7  C6  UNK     1      19.418  -1.643  35.114  1.00  0.00     0.083 A 
HETATM    8  C9  UNK     1      18.013  -0.980  36.975  1.00  0.00     0.018 A 
HETATM    9  C10 UNK     1      20.044  -2.591  35.924  1.00  0.00     0.038 A 
HETATM   10  C11 UNK     1      18.628  -1.944  37.775  1.00  0.00     0.001 A 
HETATM   11  C12 UNK     1      19.646  -2.744  37.252  1.00  0.00     0.003 A 
ENDROOT
BRANCH   3  12
HETATM   12  C3  UNK     1      19.475  -0.911  31.544  1.00  0.00    -0.029 A 
HETATM   13  C7  UNK     1      20.036  -2.043  30.953  1.00  0.00     0.010 A 
HETATM   14  C13 UNK     1      20.592  -1.958  29.676  1.00  0.00     0.001 A 
HETATM   15  C15 UNK     1      20.587  -0.743  28.992  1.00  0.00     0.000 A 
HETATM   16  C14 UNK     1      20.025   0.389  29.583  1.00  0.00     0.001 A 
HETATM   17  C8  UNK     1      19.470   0.305  30.860  1.00  0.00     0.010 A 
ENDBRANCH   3  12
TORSDOF 1
ENDMDL
MODEL 5
REMARK VINA RESULT:      -7.8      3.210      4.780
REMARK  1 active torsions:
REMARK  status: ('A' for Active; 'I' for Inactive)
REMARK    1  A    between atoms: C1_3  and  C3_5 
ROOT
HETATM    1  O1  UNK     1      19.577   1.925  30.547  1.00  0.00    -0.340 OA
HETATM    2  O2  UNK     1      18.136  -0.239  33.721  1.00  0.00    -0.292 OA
HETATM    3  C1  UNK     1      18.443   2.390  31.297  1.00  0.00     0.169 C 
HETATM    4  C2  UNK     1      18.518   1.922  32.750  1.00  0.00     0.121 C 
HETATM    5  C4  UNK     1      18.568   0.416  32.780  1.00  0.00     0.165 C 
HETATM    6  C5  UNK     1      19.237  -0.231  31.632  1.00  0.00     0.043 A 
HETATM    7  C6  UNK     1      19.725   0.563  30.591  1.00  0.00     0.083 A 
HETATM    8  C9  UNK     1      19.421  -1.616  31.609  1.00  0.00     0.018 A 
HETATM    9  C10 UNK     1      20.426  -0.026  29.539  1.00  0.00     0.038 A 
HETATM   10  C11 UNK     1      20.106  -2.202  30.544  1.00  0.00     0.001 A 
HETATM   11  C12 UNK     1      20.612  -1.408  29.513  1.00  0.00     0.003 A 
ENDROOT
BRANCH   3  12
HETATM   12  C3  UNK     1      18.399   3.901  31.213  1.00  0.00    -0.029 A 
HETATM   13  C7  UNK     1      19.000   4.556  30.139  1.00  0.00     0.010 A 
HETATM   14  C13 UNK     1      18.960   5.948  30.061  1.00  0.00     0.001 A 
HETATM   15  C15 UNK     1      18.320   6.685  31.058  1.00  0.00     0.000 A 
HETATM   16  C14 UNK     1      17.719   6.029  32.133  1.00  0.00     0.001 A 
HETATM   17  C8  UNK     1      17.759   4.637  32.210  1.00  0.00     0.010 A 
ENDBRANCH   3  12
TORSDOF 1
ENDMDL
MODEL 6
REMARK VINA RESULT:      -7.8      1.275      5.730
REMARK  1 active torsions:
REMARK  status: ('A' for Active; 'I' for Inactive)
REMARK    1  A    between atoms: C1_3  and  C3_5 
ROOT
HETATM    1  O1  UNK     1      18.229  -0.511  33.174  1.00  0.00    -0.340 OA
HETATM    2  O2  UNK     1      20.541  -2.835  35.641  1.00  0.00    -0.292 OA
HETATM    3  C1  UNK     1      19.599  -0.792  32.846  1.00  0.00     0.169 C 
HETATM    4  C2  UNK     1      20.028  -2.149  33.399  1.00  0.00     0.121 C 
HETATM    5  C4  UNK     1      19.851  -2.148  34.896  1.00  0.00     0.165 C 
HETATM    6  C5  UNK     1      18.745  -1.319  35.416  1.00  0.00     0.043 A 
HETATM    7  C6  UNK     1      17.981  -0.565  34.521  1.00  0.00     0.083 A 
HETATM    8  C9  UNK     1      18.436  -1.323  36.778  1.00  0.00     0.018 A 
HETATM    9  C10 UNK     1      16.885   0.163  34.987  1.00  0.00     0.038 A 
HETATM   10  C11 UNK     1      17.352  -0.577  37.241  1.00  0.00     0.001 A 
HETATM   11  C12 UNK     1      16.574   0.160  36.347  1.00  0.00     0.003 A 
ENDROOT
BRANCH   3  12
HETATM   12  C3  UNK     1      19.750  -0.745  31.340  1.00  0.00    -0.029 A 
HETATM   13  C7  UNK     1      19.466   0.432  30.648  1.00  0.00     0.010 A 
HETATM   14  C13 UNK     1      19.604   0.476  29.261  1.00  0.00     0.001 A 
HETATM   15  C15 UNK     1      20.026  -0.658  28.566  1.00  0.00     0.000 A 
HETATM   16  C14 UNK     1      20.311  -1.835  29.258  1.00  0.00     0.001 A 
HETATM   17  C8  UNK     1      20.172  -1.878  30.645  1.00  0.00     0.010 A 
ENDBRANCH   3  12
TORSDOF 1
ENDMDL
MODEL 7
REMARK VINA RESULT:      -7.8      3.474      5.117
REMARK  1 active torsions:
REMARK  status: ('A' for Active; 'I' for Inactive)
REMARK    1  A    between atoms: C1_3  and  C3_5 
ROOT
HETATM    1  O1  UNK     1      19.298   1.423  31.294  1.00  0.00    -0.340 OA
HETATM    2  O2  UNK     1      18.817   0.070  27.451  1.00  0.00    -0.292 OA
HETATM    3  C1  UNK     1      19.319   2.337  30.187  1.00  0.00     0.169 C 
HETATM    4  C2  UNK     1      18.447   1.830  29.040  1.00  0.00     0.121 C 
HETATM    5  C4  UNK     1      18.951   0.480  28.598  1.00  0.00     0.165 C 
HETATM    6  C5  UNK     1      19.561  -0.359  29.651  1.00  0.00     0.043 A 
HETATM    7  C6  UNK     1      19.679   0.153  30.946  1.00  0.00     0.083 A 
HETATM    8  C9  UNK     1      19.974  -1.662  29.367  1.00  0.00     0.018 A 
HETATM    9  C10 UNK     1      20.181  -0.654  31.967  1.00  0.00     0.038 A 
HETATM   10  C11 UNK     1      20.495  -2.458  30.388  1.00  0.00     0.001 A 
HETATM   11  C12 UNK     1      20.593  -1.956  31.687  1.00  0.00     0.003 A 
ENDROOT
BRANCH   3  12
HETATM   12  C3  UNK     1      18.847   3.691  30.673  1.00  0.00    -0.029 A 
HETATM   13  C7  UNK     1      18.126   3.791  31.864  1.00  0.00     0.010 A 
HETATM   14  C13 UNK     1      17.690   5.037  32.312  1.00  0.00     0.001 A 
HETATM   15  C15 UNK     1      17.973   6.184  31.569  1.00  0.00     0.000 A 
HETATM   16  C14 UNK     1      18.694   6.084  30.379  1.00  0.00     0.001 A 
HETATM   17  C8  UNK     1      19.130   4.837  29.931  1.00  0.00     0.010 A 
ENDBRANCH   3  12
TORSDOF 1
ENDMDL
MODEL 8
REMARK VINA RESULT:      -7.6      7.921     10.208
REMARK  1 active torsions:
REMARK  status: ('A' for Active; 'I' for Inactive)
REMARK    1  A    between atoms: C1_3  and  C3_5 
ROOT
HETATM    1  O1  UNK     1      17.628   8.610  32.937  1.00  0.00    -0.340 OA
HETATM    2  O2  UNK     1      14.070   6.856  31.893  1.00  0.00    -0.292 OA
HETATM    3  C1  UNK     1      17.553   7.198  32.682  1.00  0.00     0.169 C 
HETATM    4  C2  UNK     1      16.458   6.883  31.664  1.00  0.00     0.121 C 
HETATM    5  C4  UNK     1      15.137   7.377  32.195  1.00  0.00     0.165 C 
HETATM    6  C5  UNK     1      15.193   8.578  33.053  1.00  0.00     0.043 A 
HETATM    7  C6  UNK     1      16.436   9.141  33.357  1.00  0.00     0.083 A 
HETATM    8  C9  UNK     1      14.017   9.171  33.518  1.00  0.00     0.018 A 
HETATM    9  C10 UNK     1      16.501  10.318  34.102  1.00  0.00     0.038 A 
HETATM   10  C11 UNK     1      14.089  10.338  34.280  1.00  0.00     0.001 A 
HETATM   11  C12 UNK     1      15.328  10.914  34.566  1.00  0.00     0.003 A 
ENDROOT
BRANCH   3  12
HETATM   12  C3  UNK     1      18.906   6.728  32.190  1.00  0.00    -0.029 A 
HETATM   13  C7  UNK     1      19.036   6.203  30.904  1.00  0.00     0.010 A 
HETATM   14  C13 UNK     1      20.281   5.770  30.451  1.00  0.00     0.001 A 
HETATM   15  C15 UNK     1      21.397   5.859  31.284  1.00  0.00     0.000 A 
HETATM   16  C14 UNK     1      21.267   6.384  32.570  1.00  0.00     0.001 A 
HETATM   17  C8  UNK     1      20.021   6.818  33.023  1.00  0.00     0.010 A 
ENDBRANCH   3  12
TORSDOF 1
ENDMDL
MODEL 9
REMARK VINA RESULT:      -7.5     13.666     17.650
REMARK  1 active torsions:
REMARK  status: ('A' for Active; 'I' for Inactive)
REMARK    1  A    between atoms: C1_3  and  C3_5 
ROOT
HETATM    1  O1  UNK     1      19.215  -1.017  17.251  1.00  0.00    -0.340 OA
HETATM    2  O2  UNK     1      19.285   2.709  15.535  1.00  0.00    -0.292 OA
HETATM    3  C1  UNK     1      18.724  -0.815  15.917  1.00  0.00     0.169 C 
HETATM    4  C2  UNK     1      19.459   0.335  15.230  1.00  0.00     0.121 C 
HETATM    5  C4  UNK     1      19.271   1.592  16.040  1.00  0.00     0.165 C 
HETATM    6  C5  UNK     1      19.137   1.407  17.499  1.00  0.00     0.043 A 
HETATM    7  C6  UNK     1      19.139   0.112  18.025  1.00  0.00     0.083 A 
HETATM    8  C9  UNK     1      19.053   2.513  18.349  1.00  0.00     0.018 A 
HETATM    9  C10 UNK     1      19.091  -0.076  19.406  1.00  0.00     0.038 A 
HETATM   10  C11 UNK     1      18.984   2.318  19.728  1.00  0.00     0.001 A 
HETATM   11  C12 UNK     1      19.008   1.027  20.257  1.00  0.00     0.003 A 
ENDROOT
BRANCH   3  12
HETATM   12  C3  UNK     1      18.890  -2.106  15.144  1.00  0.00    -0.029 A 
HETATM   13  C7  UNK     1      17.982  -3.150  15.328  1.00  0.00     0.010 A 
HETATM   14  C13 UNK     1      18.136  -4.340  14.617  1.00  0.00     0.001 A 
HETATM   15  C15 UNK     1      19.197  -4.487  13.723  1.00  0.00     0.000 A 
HETATM   16  C14 UNK     1      20.104  -3.443  13.539  1.00  0.00     0.001 A 
HETATM   17  C8  UNK     1      19.950  -2.253  14.250  1.00  0.00     0.010 A 
ENDBRANCH   3  12
TORSDOF 1
ENDMDL
MODEL 10
REMARK VINA RESULT:      -7.5     23.993     26.724
REMARK  1 active torsions:
REMARK  status: ('A' for Active; 'I' for Inactive)
REMARK    1  A    between atoms: C1_3  and  C3_5 
ROOT
HETATM    1  O1  UNK     1      11.467   7.627   9.407  1.00  0.00    -0.340 OA
HETATM    2  O2  UNK     1      12.029   6.233   5.589  1.00  0.00    -0.292 OA
HETATM    3  C1  UNK     1      12.669   6.926   9.051  1.00  0.00     0.169 C 
HETATM    4  C2  UNK     1      13.015   7.142   7.579  1.00  0.00     0.121 C 
HETATM    5  C4  UNK     1      11.870   6.656   6.728  1.00  0.00     0.165 C 
HETATM    6  C5  UNK     1      10.523   6.783   7.323  1.00  0.00     0.043 A 
HETATM    7  C6  UNK     1      10.397   7.284   8.622  1.00  0.00     0.083 A 
HETATM    8  C9  UNK     1       9.387   6.450   6.582  1.00  0.00     0.018 A 
HETATM    9  C10 UNK     1       9.129   7.482   9.169  1.00  0.00     0.038 A 
HETATM   10  C11 UNK     1       8.122   6.631   7.141  1.00  0.00     0.001 A 
HETATM   11  C12 UNK     1       7.993   7.151   8.430  1.00  0.00     0.003 A 
ENDROOT
BRANCH   3  12
HETATM   12  C3  UNK     1      13.788   7.408   9.950  1.00  0.00    -0.029 A 
HETATM   13  C7  UNK     1      13.574   8.480  10.816  1.00  0.00     0.010 A 
HETATM   14  C13 UNK     1      14.605   8.925  11.643  1.00  0.00     0.001 A 
HETATM   15  C15 UNK     1      15.851   8.297  11.604  1.00  0.00     0.000 A 
HETATM   16  C14 UNK     1      16.065   7.225  10.739  1.00  0.00     0.001 A 
HETATM   17  C8  UNK     1      15.034   6.780   9.912  1.00  0.00     0.010 A 
ENDBRANCH   3  12
TORSDOF 1
ENDMDL
