MODEL 1
REMARK VINA RESULT:      -7.3      0.000      0.000
REMARK  9 active torsions:
REMARK  status: ('A' for Active; 'I' for Inactive)
REMARK    1  A    between atoms: C14_19  and  O3_3 
REMARK    2  A    between atoms: C16_21  and  O3_3 
REMARK    3  A    between atoms: C17_22  and  O4_4 
REMARK    4  A    between atoms: C18_23  and  O4_4 
REMARK    5  A    between atoms: C1_6  and  C2_7 
REMARK    6  A    between atoms: C1_6  and  C3_8 
REMARK    7  A    between atoms: C2_7  and  C4_9 
REMARK    8  A    between atoms: C4_9  and  C7_12 
REMARK    9  A    between atoms: C16_21  and  C17_22 
ROOT
HETATM    1  O1  UNK     1      18.021   3.181  33.528  1.00  0.00    -0.274 OA
HETATM    2  O2  UNK     1      18.100   0.926  33.286  1.00  0.00    -0.259 OA
HETATM    3  C3  UNK     1      18.523   2.213  31.326  1.00  0.00     0.024 A 
HETATM    4  C5  UNK     1      18.596   3.440  30.768  1.00  0.00    -0.037 A 
HETATM    5  C6  UNK     1      18.413   4.636  31.617  1.00  0.00     0.005 A 
HETATM    6  C8  UNK     1      18.129   4.464  32.969  1.00  0.00     0.092 A 
HETATM    7  C9  UNK     1      18.205   2.036  32.773  1.00  0.00     0.295 A 
HETATM    8  C10 UNK     1      18.845   3.678  29.300  1.00  0.00     0.050 C 
HETATM    9  C11 UNK     1      18.517   5.954  31.147  1.00  0.00     0.017 A 
HETATM   10  C13 UNK     1      17.942   5.540  33.839  1.00  0.00     0.075 A 
HETATM   11  C14 UNK     1      18.044   6.837  33.351  1.00  0.00     0.072 A 
HETATM   12  C15 UNK     1      18.333   7.045  32.006  1.00  0.00     0.038 A 
ENDROOT
BRANCH  11  13
HETATM   13  O3  UNK     1      17.864   7.897  34.184  1.00  0.00    -0.341 OA
BRANCH  13  14
HETATM   14  C16 UNK     1      16.694   7.893  35.001  1.00  0.00     0.286 C 
BRANCH  14  15
HETATM   15  C17 UNK     1      15.857   9.098  34.660  1.00  0.00     0.283 C 
HETATM   16  O5  UNK     1      15.812  10.129  35.316  1.00  0.00    -0.263 OA
BRANCH  15  17
HETATM   17  O4  UNK     1      15.167   8.846  33.509  1.00  0.00    -0.320 OA
BRANCH  17  18
HETATM   18  C18 UNK     1      14.414   7.629  33.496  1.00  0.00     0.174 C 
HETATM   19  C19 UNK     1      14.407   7.068  32.090  1.00  0.00     0.034 C 
ENDBRANCH  17  18
ENDBRANCH  15  17
ENDBRANCH  14  15
ENDBRANCH  13  14
ENDBRANCH  11  13
BRANCH   3  20
HETATM   20  C1  UNK     1      18.753   0.916  30.591  1.00  0.00     0.045 C 
BRANCH  20  21
HETATM   21  C2  UNK     1      20.207   0.460  30.629  1.00  0.00     0.005 C 
BRANCH  21  22
HETATM   22  C4  UNK     1      20.637  -0.298  29.369  1.00  0.00    -0.000 C 
BRANCH  22  23
HETATM   23  C7  UNK     1      20.281  -1.782  29.467  1.00  0.00    -0.005 C 
HETATM   24  C12 UNK     1      20.532  -2.325  30.865  1.00  0.00     0.005 C 
ENDBRANCH  22  23
ENDBRANCH  21  22
ENDBRANCH  20  21
ENDBRANCH   3  20
TORSDOF 9
ENDMDL
MODEL 2
REMARK VINA RESULT:      -7.1      2.398      8.704
REMARK  9 active torsions:
REMARK  status: ('A' for Active; 'I' for Inactive)
REMARK    1  A    between atoms: C14_19  and  O3_3 
REMARK    2  A    between atoms: C16_21  and  O3_3 
REMARK    3  A    between atoms: C17_22  and  O4_4 
REMARK    4  A    between atoms: C18_23  and  O4_4 
REMARK    5  A    between atoms: C1_6  and  C2_7 
REMARK    6  A    between atoms: C1_6  and  C3_8 
REMARK    7  A    between atoms: C2_7  and  C4_9 
REMARK    8  A    between atoms: C4_9  and  C7_12 
REMARK    9  A    between atoms: C16_21  and  C17_22 
ROOT
HETATM    1  O1  UNK     1      15.919   6.486  32.925  1.00  0.00    -0.274 OA
HETATM    2  O2  UNK     1      14.313   7.742  33.923  1.00  0.00    -0.259 OA
HETATM    3  C3  UNK     1      16.531   8.611  33.998  1.00  0.00     0.024 A 
HETATM    4  C5  UNK     1      17.833   8.425  33.695  1.00  0.00    -0.037 A 
HETATM    5  C6  UNK     1      18.237   7.227  32.929  1.00  0.00     0.005 A 
HETATM    6  C8  UNK     1      17.264   6.297  32.571  1.00  0.00     0.092 A 
HETATM    7  C9  UNK     1      15.495   7.604  33.623  1.00  0.00     0.295 A 
HETATM    8  C10 UNK     1      18.932   9.372  34.107  1.00  0.00     0.050 C 
HETATM    9  C11 UNK     1      19.554   6.963  32.522  1.00  0.00     0.017 A 
HETATM   10  C13 UNK     1      17.560   5.139  31.849  1.00  0.00     0.075 A 
HETATM   11  C14 UNK     1      18.872   4.896  31.461  1.00  0.00     0.072 A 
HETATM   12  C15 UNK     1      19.869   5.807  31.796  1.00  0.00     0.038 A 
ENDROOT
BRANCH  11  13
HETATM   13  O3  UNK     1      19.181   3.774  30.757  1.00  0.00    -0.341 OA
BRANCH  13  14
HETATM   14  C16 UNK     1      18.112   2.874  30.465  1.00  0.00     0.286 C 
BRANCH  14  15
HETATM   15  C17 UNK     1      18.418   2.156  29.177  1.00  0.00     0.283 C 
HETATM   16  O5  UNK     1      17.819   2.320  28.123  1.00  0.00    -0.263 OA
BRANCH  15  17
HETATM   17  O4  UNK     1      19.464   1.303  29.383  1.00  0.00    -0.320 OA
BRANCH  17  18
HETATM   18  C18 UNK     1      19.428   0.091  28.622  1.00  0.00     0.174 C 
HETATM   19  C19 UNK     1      20.610  -0.772  29.012  1.00  0.00     0.034 C 
ENDBRANCH  17  18
ENDBRANCH  15  17
ENDBRANCH  14  15
ENDBRANCH  13  14
ENDBRANCH  11  13
BRANCH   3  20
HETATM   20  C1  UNK     1      15.976   9.815  34.715  1.00  0.00     0.045 C 
BRANCH  20  21
HETATM   21  C2  UNK     1      15.407  10.864  33.766  1.00  0.00     0.005 C 
BRANCH  21  22
HETATM   22  C4  UNK     1      15.713  12.301  34.198  1.00  0.00    -0.000 C 
BRANCH  22  23
HETATM   23  C7  UNK     1      17.099  12.404  34.836  1.00  0.00    -0.005 C 
HETATM   24  C12 UNK     1      18.121  12.972  33.863  1.00  0.00     0.005 C 
ENDBRANCH  22  23
ENDBRANCH  21  22
ENDBRANCH  20  21
ENDBRANCH   3  20
TORSDOF 9
ENDMDL
MODEL 3
REMARK VINA RESULT:      -7.0      4.106      8.466
REMARK  9 active torsions:
REMARK  status: ('A' for Active; 'I' for Inactive)
REMARK    1  A    between atoms: C14_19  and  O3_3 
REMARK    2  A    between atoms: C16_21  and  O3_3 
REMARK    3  A    between atoms: C17_22  and  O4_4 
REMARK    4  A    between atoms: C18_23  and  O4_4 
REMARK    5  A    between atoms: C1_6  and  C2_7 
REMARK    6  A    between atoms: C1_6  and  C3_8 
REMARK    7  A    between atoms: C2_7  and  C4_9 
REMARK    8  A    between atoms: C4_9  and  C7_12 
REMARK    9  A    between atoms: C16_21  and  C17_22 
ROOT
HETATM    1  O1  UNK     1      18.625   0.597  31.754  1.00  0.00    -0.274 OA
HETATM    2  O2  UNK     1      18.769   1.716  29.784  1.00  0.00    -0.259 OA
HETATM    3  C3  UNK     1      18.416   3.045  31.730  1.00  0.00     0.024 A 
HETATM    4  C5  UNK     1      18.214   3.072  33.065  1.00  0.00    -0.037 A 
HETATM    5  C6  UNK     1      18.250   1.808  33.830  1.00  0.00     0.005 A 
HETATM    6  C8  UNK     1      18.453   0.613  33.146  1.00  0.00     0.092 A 
HETATM    7  C9  UNK     1      18.620   1.759  31.002  1.00  0.00     0.295 A 
HETATM    8  C10 UNK     1      17.935   4.333  33.844  1.00  0.00     0.050 C 
HETATM    9  C11 UNK     1      18.100   1.731  35.224  1.00  0.00     0.017 A 
HETATM   10  C13 UNK     1      18.499  -0.624  33.793  1.00  0.00     0.075 A 
HETATM   11  C14 UNK     1      18.343  -0.678  35.173  1.00  0.00     0.072 A 
HETATM   12  C15 UNK     1      18.145   0.499  35.888  1.00  0.00     0.038 A 
ENDROOT
BRANCH  11  13
HETATM   13  O3  UNK     1      18.386  -1.873  35.820  1.00  0.00    -0.341 OA
BRANCH  13  14
HETATM   14  C16 UNK     1      19.458  -2.078  36.740  1.00  0.00     0.286 C 
BRANCH  14  15
HETATM   15  C17 UNK     1      20.636  -2.649  35.994  1.00  0.00     0.283 C 
HETATM   16  O5  UNK     1      21.490  -1.987  35.421  1.00  0.00    -0.263 OA
BRANCH  15  17
HETATM   17  O4  UNK     1      20.589  -4.011  36.067  1.00  0.00    -0.320 OA
BRANCH  17  18
HETATM   18  C18 UNK     1      20.304  -4.548  37.363  1.00  0.00     0.174 C 
HETATM   19  C19 UNK     1      21.574  -5.132  37.945  1.00  0.00     0.034 C 
ENDBRANCH  17  18
ENDBRANCH  15  17
ENDBRANCH  14  15
ENDBRANCH  13  14
ENDBRANCH  11  13
BRANCH   3  20
HETATM   20  C1  UNK     1      18.469   4.262  30.842  1.00  0.00     0.045 C 
BRANCH  20  21
HETATM   21  C2  UNK     1      19.838   4.936  30.836  1.00  0.00     0.005 C 
BRANCH  21  22
HETATM   22  C4  UNK     1      19.810   6.367  31.379  1.00  0.00    -0.000 C 
BRANCH  22  23
HETATM   23  C7  UNK     1      20.607   6.483  32.679  1.00  0.00    -0.005 C 
HETATM   24  C12 UNK     1      19.924   7.410  33.672  1.00  0.00     0.005 C 
ENDBRANCH  22  23
ENDBRANCH  21  22
ENDBRANCH  20  21
ENDBRANCH   3  20
TORSDOF 9
ENDMDL
MODEL 4
REMARK VINA RESULT:      -6.9     22.358     24.667
REMARK  9 active torsions:
REMARK  status: ('A' for Active; 'I' for Inactive)
REMARK    1  A    between atoms: C14_19  and  O3_3 
REMARK    2  A    between atoms: C16_21  and  O3_3 
REMARK    3  A    between atoms: C17_22  and  O4_4 
REMARK    4  A    between atoms: C18_23  and  O4_4 
REMARK    5  A    between atoms: C1_6  and  C2_7 
REMARK    6  A    between atoms: C1_6  and  C3_8 
REMARK    7  A    between atoms: C2_7  and  C4_9 
REMARK    8  A    between atoms: C4_9  and  C7_12 
REMARK    9  A    between atoms: C16_21  and  C17_22 
ROOT
HETATM    1  O1  UNK     1      12.205   8.295  10.261  1.00  0.00    -0.274 OA
HETATM    2  O2  UNK     1      13.211   9.689  11.742  1.00  0.00    -0.259 OA
HETATM    3  C3  UNK     1      14.592   8.009  10.769  1.00  0.00     0.024 A 
HETATM    4  C5  UNK     1      14.671   6.940   9.949  1.00  0.00    -0.037 A 
HETATM    5  C6  UNK     1      13.474   6.515   9.193  1.00  0.00     0.005 A 
HETATM    6  C8  UNK     1      12.281   7.207   9.377  1.00  0.00     0.092 A 
HETATM    7  C9  UNK     1      13.307   8.738  10.973  1.00  0.00     0.295 A 
HETATM    8  C10 UNK     1      15.924   6.123   9.757  1.00  0.00     0.050 C 
HETATM    9  C11 UNK     1      13.461   5.449   8.279  1.00  0.00     0.017 A 
HETATM   10  C13 UNK     1      11.105   6.871   8.704  1.00  0.00     0.075 A 
HETATM   11  C14 UNK     1      11.113   5.808   7.807  1.00  0.00     0.072 A 
HETATM   12  C15 UNK     1      12.291   5.099   7.594  1.00  0.00     0.038 A 
ENDROOT
BRANCH  11  13
HETATM   13  O3  UNK     1       9.978   5.466   7.142  1.00  0.00    -0.341 OA
BRANCH  13  14
HETATM   14  C16 UNK     1       9.014   6.496   6.925  1.00  0.00     0.286 C 
BRANCH  14  15
HETATM   15  C17 UNK     1       7.856   6.284   7.864  1.00  0.00     0.283 C 
HETATM   16  O5  UNK     1       7.208   7.179   8.390  1.00  0.00    -0.263 OA
BRANCH  15  17
HETATM   17  O4  UNK     1       7.656   4.944   8.026  1.00  0.00    -0.320 OA
BRANCH  17  18
HETATM   18  C18 UNK     1       7.281   4.533   9.345  1.00  0.00     0.174 C 
HETATM   19  C19 UNK     1       8.531   4.364  10.183  1.00  0.00     0.034 C 
ENDBRANCH  17  18
ENDBRANCH  15  17
ENDBRANCH  14  15
ENDBRANCH  13  14
ENDBRANCH  11  13
BRANCH   3  20
HETATM   20  C1  UNK     1      15.748   8.586  11.547  1.00  0.00     0.045 C 
BRANCH  20  21
HETATM   21  C2  UNK     1      16.278   9.885  10.950  1.00  0.00     0.005 C 
BRANCH  21  22
HETATM   22  C4  UNK     1      17.090   9.676   9.669  1.00  0.00    -0.000 C 
BRANCH  22  23
HETATM   23  C7  UNK     1      16.726  10.713   8.606  1.00  0.00    -0.005 C 
HETATM   24  C12 UNK     1      15.279  10.569   8.159  1.00  0.00     0.005 C 
ENDBRANCH  22  23
ENDBRANCH  21  22
ENDBRANCH  20  21
ENDBRANCH   3  20
TORSDOF 9
ENDMDL
MODEL 5
REMARK VINA RESULT:      -6.7     22.500     24.563
REMARK  9 active torsions:
REMARK  status: ('A' for Active; 'I' for Inactive)
REMARK    1  A    between atoms: C14_19  and  O3_3 
REMARK    2  A    between atoms: C16_21  and  O3_3 
REMARK    3  A    between atoms: C17_22  and  O4_4 
REMARK    4  A    between atoms: C18_23  and  O4_4 
REMARK    5  A    between atoms: C1_6  and  C2_7 
REMARK    6  A    between atoms: C1_6  and  C3_8 
REMARK    7  A    between atoms: C2_7  and  C4_9 
REMARK    8  A    between atoms: C4_9  and  C7_12 
REMARK    9  A    between atoms: C16_21  and  C17_22 
ROOT
HETATM    1  O1  UNK     1      13.939   5.223   8.781  1.00  0.00    -0.274 OA
HETATM    2  O2  UNK     1      16.101   4.980   9.429  1.00  0.00    -0.259 OA
HETATM    3  C3  UNK     1      15.028   7.008  10.072  1.00  0.00     0.024 A 
HETATM    4  C5  UNK     1      13.914   7.770  10.018  1.00  0.00    -0.037 A 
HETATM    5  C6  UNK     1      12.708   7.244   9.345  1.00  0.00     0.005 A 
HETATM    6  C8  UNK     1      12.763   5.988   8.747  1.00  0.00     0.092 A 
HETATM    7  C9  UNK     1      15.085   5.668   9.418  1.00  0.00     0.295 A 
HETATM    8  C10 UNK     1      13.820   9.158  10.599  1.00  0.00     0.050 C 
HETATM    9  C11 UNK     1      11.487   7.933   9.274  1.00  0.00     0.017 A 
HETATM   10  C13 UNK     1      11.670   5.419   8.091  1.00  0.00     0.075 A 
HETATM   11  C14 UNK     1      10.472   6.122   8.028  1.00  0.00     0.072 A 
HETATM   12  C15 UNK     1      10.380   7.377   8.621  1.00  0.00     0.038 A 
ENDROOT
BRANCH  11  13
HETATM   13  O3  UNK     1       9.396   5.584   7.394  1.00  0.00    -0.341 OA
BRANCH  13  14
HETATM   14  C16 UNK     1       8.104   5.971   7.861  1.00  0.00     0.286 C 
BRANCH  14  15
HETATM   15  C17 UNK     1       7.655   4.993   8.916  1.00  0.00     0.283 C 
HETATM   16  O5  UNK     1       7.343   3.829   8.706  1.00  0.00    -0.263 OA
BRANCH  15  17
HETATM   17  O4  UNK     1       7.657   5.619  10.130  1.00  0.00    -0.320 OA
BRANCH  17  18
HETATM   18  C18 UNK     1       7.009   6.895  10.164  1.00  0.00     0.174 C 
HETATM   19  C19 UNK     1       5.632   6.732  10.774  1.00  0.00     0.034 C 
ENDBRANCH  17  18
ENDBRANCH  15  17
ENDBRANCH  14  15
ENDBRANCH  13  14
ENDBRANCH  11  13
BRANCH   3  20
HETATM   20  C1  UNK     1      16.302   7.394  10.780  1.00  0.00     0.045 C 
BRANCH  20  21
HETATM   21  C2  UNK     1      17.265   8.173   9.890  1.00  0.00     0.005 C 
BRANCH  21  22
HETATM   22  C4  UNK     1      17.225   9.685  10.135  1.00  0.00    -0.000 C 
BRANCH  22  23
HETATM   23  C7  UNK     1      17.390  10.462   8.828  1.00  0.00    -0.005 C 
HETATM   24  C12 UNK     1      16.068  11.046   8.356  1.00  0.00     0.005 C 
ENDBRANCH  22  23
ENDBRANCH  21  22
ENDBRANCH  20  21
ENDBRANCH   3  20
TORSDOF 9
ENDMDL
MODEL 6
REMARK VINA RESULT:      -6.7      7.490     11.612
REMARK  9 active torsions:
REMARK  status: ('A' for Active; 'I' for Inactive)
REMARK    1  A    between atoms: C14_19  and  O3_3 
REMARK    2  A    between atoms: C16_21  and  O3_3 
REMARK    3  A    between atoms: C17_22  and  O4_4 
REMARK    4  A    between atoms: C18_23  and  O4_4 
REMARK    5  A    between atoms: C1_6  and  C2_7 
REMARK    6  A    between atoms: C1_6  and  C3_8 
REMARK    7  A    between atoms: C2_7  and  C4_9 
REMARK    8  A    between atoms: C4_9  and  C7_12 
REMARK    9  A    between atoms: C16_21  and  C17_22 
ROOT
HETATM    1  O1  UNK     1      18.685  -6.874  35.898  1.00  0.00    -0.274 OA
HETATM    2  O2  UNK     1      17.852  -8.981  36.021  1.00  0.00    -0.259 OA
HETATM    3  C3  UNK     1      19.332  -8.328  37.770  1.00  0.00     0.024 A 
HETATM    4  C5  UNK     1      20.141  -7.371  38.275  1.00  0.00    -0.037 A 
HETATM    5  C6  UNK     1      20.224  -6.060  37.599  1.00  0.00     0.005 A 
HETATM    6  C8  UNK     1      19.493  -5.857  36.431  1.00  0.00     0.092 A 
HETATM    7  C9  UNK     1      18.562  -8.109  36.511  1.00  0.00     0.295 A 
HETATM    8  C10 UNK     1      20.994  -7.560  39.503  1.00  0.00     0.050 C 
HETATM    9  C11 UNK     1      20.994  -4.984  38.066  1.00  0.00     0.017 A 
HETATM   10  C13 UNK     1      19.516  -4.650  35.730  1.00  0.00     0.075 A 
HETATM   11  C14 UNK     1      20.290  -3.599  36.208  1.00  0.00     0.072 A 
HETATM   12  C15 UNK     1      21.028  -3.765  37.376  1.00  0.00     0.038 A 
ENDROOT
BRANCH  11  13
HETATM   13  O3  UNK     1      20.325  -2.415  35.540  1.00  0.00    -0.341 OA
BRANCH  13  14
HETATM   14  C16 UNK     1      19.150  -1.606  35.588  1.00  0.00     0.286 C 
BRANCH  14  15
HETATM   15  C17 UNK     1      18.760  -1.231  34.182  1.00  0.00     0.283 C 
HETATM   16  O5  UNK     1      17.686  -0.742  33.860  1.00  0.00    -0.263 OA
BRANCH  15  17
HETATM   17  O4  UNK     1      19.793  -1.527  33.341  1.00  0.00    -0.320 OA
BRANCH  17  18
HETATM   18  C18 UNK     1      19.514  -1.373  31.945  1.00  0.00     0.174 C 
HETATM   19  C19 UNK     1      20.462  -2.249  31.153  1.00  0.00     0.034 C 
ENDBRANCH  17  18
ENDBRANCH  15  17
ENDBRANCH  14  15
ENDBRANCH  13  14
ENDBRANCH  11  13
BRANCH   3  20
HETATM   20  C1  UNK     1      19.106  -9.682  38.394  1.00  0.00     0.045 C 
BRANCH  20  21
HETATM   21  C2  UNK     1      19.848 -10.802  37.671  1.00  0.00     0.005 C 
BRANCH  21  22
HETATM   22  C4  UNK     1      21.254 -10.400  37.216  1.00  0.00    -0.000 C 
BRANCH  22  23
HETATM   23  C7  UNK     1      21.417 -10.571  35.705  1.00  0.00    -0.005 C 
HETATM   24  C12 UNK     1      21.572  -9.229  35.006  1.00  0.00     0.005 C 
ENDBRANCH  22  23
ENDBRANCH  21  22
ENDBRANCH  20  21
ENDBRANCH   3  20
TORSDOF 9
ENDMDL
MODEL 7
REMARK VINA RESULT:      -6.7     23.047     24.733
REMARK  9 active torsions:
REMARK  status: ('A' for Active; 'I' for Inactive)
REMARK    1  A    between atoms: C14_19  and  O3_3 
REMARK    2  A    between atoms: C16_21  and  O3_3 
REMARK    3  A    between atoms: C17_22  and  O4_4 
REMARK    4  A    between atoms: C18_23  and  O4_4 
REMARK    5  A    between atoms: C1_6  and  C2_7 
REMARK    6  A    between atoms: C1_6  and  C3_8 
REMARK    7  A    between atoms: C2_7  and  C4_9 
REMARK    8  A    between atoms: C4_9  and  C7_12 
REMARK    9  A    between atoms: C16_21  and  C17_22 
ROOT
HETATM    1  O1  UNK     1      16.414   6.427   9.781  1.00  0.00    -0.274 OA
HETATM    2  O2  UNK     1      15.486   4.357   9.721  1.00  0.00    -0.259 OA
HETATM    3  C3  UNK     1      13.972   6.195   9.629  1.00  0.00     0.024 A 
HETATM    4  C5  UNK     1      13.812   7.536   9.657  1.00  0.00    -0.037 A 
HETATM    5  C6  UNK     1      15.003   8.409   9.712  1.00  0.00     0.005 A 
HETATM    6  C8  UNK     1      16.265   7.823   9.775  1.00  0.00     0.092 A 
HETATM    7  C9  UNK     1      15.326   5.574   9.709  1.00  0.00     0.295 A 
HETATM    8  C10 UNK     1      12.467   8.218   9.648  1.00  0.00     0.050 C 
HETATM    9  C11 UNK     1      14.949   9.811   9.697  1.00  0.00     0.017 A 
HETATM   10  C13 UNK     1      17.440   8.574   9.830  1.00  0.00     0.075 A 
HETATM   11  C14 UNK     1      17.363   9.962   9.819  1.00  0.00     0.072 A 
HETATM   12  C15 UNK     1      16.118  10.580   9.751  1.00  0.00     0.038 A 
ENDROOT
BRANCH  11  13
HETATM   13  O3  UNK     1      18.497  10.711   9.873  1.00  0.00    -0.341 OA
BRANCH  13  14
HETATM   14  C16 UNK     1      18.550  11.872   9.044  1.00  0.00     0.286 C 
BRANCH  14  15
HETATM   15  C17 UNK     1      19.533  11.629   7.929  1.00  0.00     0.283 C 
HETATM   16  O5  UNK     1      20.711  11.337   8.084  1.00  0.00    -0.263 OA
BRANCH  15  17
HETATM   17  O4  UNK     1      18.894  11.788   6.733  1.00  0.00    -0.320 OA
BRANCH  17  18
HETATM   18  C18 UNK     1      18.887  13.122   6.212  1.00  0.00     0.174 C 
HETATM   19  C19 UNK     1      19.397  13.097   4.786  1.00  0.00     0.034 C 
ENDBRANCH  17  18
ENDBRANCH  15  17
ENDBRANCH  14  15
ENDBRANCH  13  14
ENDBRANCH  11  13
BRANCH   3  20
HETATM   20  C1  UNK     1      12.850   5.195   9.508  1.00  0.00     0.045 C 
BRANCH  20  21
HETATM   21  C2  UNK     1      12.443   4.929   8.063  1.00  0.00     0.005 C 
BRANCH  21  22
HETATM   22  C4  UNK     1      11.127   5.607   7.671  1.00  0.00    -0.000 C 
BRANCH  22  23
HETATM   23  C7  UNK     1      11.192   6.164   6.249  1.00  0.00    -0.005 C 
HETATM   24  C12 UNK     1       9.804   6.331   5.651  1.00  0.00     0.005 C 
ENDBRANCH  22  23
ENDBRANCH  21  22
ENDBRANCH  20  21
ENDBRANCH   3  20
TORSDOF 9
ENDMDL
MODEL 8
REMARK VINA RESULT:      -6.7      2.030      7.598
REMARK  9 active torsions:
REMARK  status: ('A' for Active; 'I' for Inactive)
REMARK    1  A    between atoms: C14_19  and  O3_3 
REMARK    2  A    between atoms: C16_21  and  O3_3 
REMARK    3  A    between atoms: C17_22  and  O4_4 
REMARK    4  A    between atoms: C18_23  and  O4_4 
REMARK    5  A    between atoms: C1_6  and  C2_7 
REMARK    6  A    between atoms: C1_6  and  C3_8 
REMARK    7  A    between atoms: C2_7  and  C4_9 
REMARK    8  A    between atoms: C4_9  and  C7_12 
REMARK    9  A    between atoms: C16_21  and  C17_22 
ROOT
HETATM    1  O1  UNK     1      17.869   3.983  33.483  1.00  0.00    -0.274 OA
HETATM    2  O2  UNK     1      17.406   6.064  34.262  1.00  0.00    -0.259 OA
HETATM    3  C3  UNK     1      18.146   5.924  32.001  1.00  0.00     0.024 A 
HETATM    4  C5  UNK     1      18.587   5.135  30.998  1.00  0.00    -0.037 A 
HETATM    5  C6  UNK     1      18.651   3.672  31.200  1.00  0.00     0.005 A 
HETATM    6  C8  UNK     1      18.291   3.147  32.438  1.00  0.00     0.092 A 
HETATM    7  C9  UNK     1      17.775   5.356  33.330  1.00  0.00     0.295 A 
HETATM    8  C10 UNK     1      19.042   5.659  29.659  1.00  0.00     0.050 C 
HETATM    9  C11 UNK     1      19.048   2.761  30.209  1.00  0.00     0.017 A 
HETATM   10  C13 UNK     1      18.324   1.778  32.712  1.00  0.00     0.075 A 
HETATM   11  C14 UNK     1      18.725   0.894  31.717  1.00  0.00     0.072 A 
HETATM   12  C15 UNK     1      19.086   1.384  30.466  1.00  0.00     0.038 A 
ENDROOT
BRANCH  11  13
HETATM   13  O3  UNK     1      18.764  -0.443  31.965  1.00  0.00    -0.341 OA
BRANCH  13  14
HETATM   14  C16 UNK     1      18.301  -0.882  33.242  1.00  0.00     0.286 C 
BRANCH  14  15
HETATM   15  C17 UNK     1      19.469  -1.427  34.021  1.00  0.00     0.283 C 
HETATM   16  O5  UNK     1      20.318  -2.186  33.573  1.00  0.00    -0.263 OA
BRANCH  15  17
HETATM   17  O4  UNK     1      19.421  -0.936  35.294  1.00  0.00    -0.320 OA
BRANCH  17  18
HETATM   18  C18 UNK     1      18.169  -0.360  35.683  1.00  0.00     0.174 C 
HETATM   19  C19 UNK     1      18.430   0.961  36.378  1.00  0.00     0.034 C 
ENDBRANCH  17  18
ENDBRANCH  15  17
ENDBRANCH  14  15
ENDBRANCH  13  14
ENDBRANCH  11  13
BRANCH   3  20
HETATM   20  C1  UNK     1      17.971   7.419  31.908  1.00  0.00     0.045 C 
BRANCH  20  21
HETATM   21  C2  UNK     1      16.685   7.824  31.196  1.00  0.00     0.005 C 
BRANCH  21  22
HETATM   22  C4  UNK     1      15.647   8.450  32.132  1.00  0.00    -0.000 C 
BRANCH  22  23
HETATM   23  C7  UNK     1      14.486   7.490  32.392  1.00  0.00    -0.005 C 
HETATM   24  C12 UNK     1      14.196   7.355  33.879  1.00  0.00     0.005 C 
ENDBRANCH  22  23
ENDBRANCH  21  22
ENDBRANCH  20  21
ENDBRANCH   3  20
TORSDOF 9
ENDMDL
MODEL 9
REMARK VINA RESULT:      -6.6     23.057     24.564
REMARK  9 active torsions:
REMARK  status: ('A' for Active; 'I' for Inactive)
REMARK    1  A    between atoms: C14_19  and  O3_3 
REMARK    2  A    between atoms: C16_21  and  O3_3 
REMARK    3  A    between atoms: C17_22  and  O4_4 
REMARK    4  A    between atoms: C18_23  and  O4_4 
REMARK    5  A    between atoms: C1_6  and  C2_7 
REMARK    6  A    between atoms: C1_6  and  C3_8 
REMARK    7  A    between atoms: C2_7  and  C4_9 
REMARK    8  A    between atoms: C4_9  and  C7_12 
REMARK    9  A    between atoms: C16_21  and  C17_22 
ROOT
HETATM    1  O1  UNK     1      16.404   6.412   9.771  1.00  0.00    -0.274 OA
HETATM    2  O2  UNK     1      15.476   4.343   9.707  1.00  0.00    -0.259 OA
HETATM    3  C3  UNK     1      13.963   6.181   9.605  1.00  0.00     0.024 A 
HETATM    4  C5  UNK     1      13.803   7.522   9.631  1.00  0.00    -0.037 A 
HETATM    5  C6  UNK     1      14.994   8.394   9.693  1.00  0.00     0.005 A 
HETATM    6  C8  UNK     1      16.255   7.808   9.763  1.00  0.00     0.092 A 
HETATM    7  C9  UNK     1      15.317   5.559   9.694  1.00  0.00     0.295 A 
HETATM    8  C10 UNK     1      12.459   8.204   9.614  1.00  0.00     0.050 C 
HETATM    9  C11 UNK     1      14.941   9.797   9.676  1.00  0.00     0.017 A 
HETATM   10  C13 UNK     1      17.431   8.559   9.825  1.00  0.00     0.075 A 
HETATM   11  C14 UNK     1      17.354   9.947   9.812  1.00  0.00     0.072 A 
HETATM   12  C15 UNK     1      16.110  10.566   9.737  1.00  0.00     0.038 A 
ENDROOT
BRANCH  11  13
HETATM   13  O3  UNK     1      18.488  10.696   9.872  1.00  0.00    -0.341 OA
BRANCH  13  14
HETATM   14  C16 UNK     1      18.499  11.919   9.137  1.00  0.00     0.286 C 
BRANCH  14  15
HETATM   15  C17 UNK     1      19.174  11.684   7.811  1.00  0.00     0.283 C 
HETATM   16  O5  UNK     1      18.658  11.876   6.718  1.00  0.00    -0.263 OA
BRANCH  15  17
HETATM   17  O4  UNK     1      20.442  11.229   8.033  1.00  0.00    -0.320 OA
BRANCH  17  18
HETATM   18  C18 UNK     1      21.348  12.182   8.598  1.00  0.00     0.174 C 
HETATM   19  C19 UNK     1      21.864  13.084   7.496  1.00  0.00     0.034 C 
ENDBRANCH  17  18
ENDBRANCH  15  17
ENDBRANCH  14  15
ENDBRANCH  13  14
ENDBRANCH  11  13
BRANCH   3  20
HETATM   20  C1  UNK     1      12.842   5.181   9.478  1.00  0.00     0.045 C 
BRANCH  20  21
HETATM   21  C2  UNK     1      12.436   4.922   8.032  1.00  0.00     0.005 C 
BRANCH  21  22
HETATM   22  C4  UNK     1      11.094   5.559   7.657  1.00  0.00    -0.000 C 
BRANCH  22  23
HETATM   23  C7  UNK     1      11.190   6.315   6.332  1.00  0.00    -0.005 C 
HETATM   24  C12 UNK     1       9.892   6.226   5.543  1.00  0.00     0.005 C 
ENDBRANCH  22  23
ENDBRANCH  21  22
ENDBRANCH  20  21
ENDBRANCH   3  20
TORSDOF 9
ENDMDL
MODEL 10
REMARK VINA RESULT:      -6.6      3.745      9.266
REMARK  9 active torsions:
REMARK  status: ('A' for Active; 'I' for Inactive)
REMARK    1  A    between atoms: C14_19  and  O3_3 
REMARK    2  A    between atoms: C16_21  and  O3_3 
REMARK    3  A    between atoms: C17_22  and  O4_4 
REMARK    4  A    between atoms: C18_23  and  O4_4 
REMARK    5  A    between atoms: C1_6  and  C2_7 
REMARK    6  A    between atoms: C1_6  and  C3_8 
REMARK    7  A    between atoms: C2_7  and  C4_9 
REMARK    8  A    between atoms: C4_9  and  C7_12 
REMARK    9  A    between atoms: C16_21  and  C17_22 
ROOT
HETATM    1  O1  UNK     1      18.573   0.621  33.331  1.00  0.00    -0.274 OA
HETATM    2  O2  UNK     1      17.618   2.620  32.837  1.00  0.00    -0.259 OA
HETATM    3  C3  UNK     1      18.725   1.507  31.044  1.00  0.00     0.024 A 
HETATM    4  C5  UNK     1      19.458   0.445  30.648  1.00  0.00    -0.037 A 
HETATM    5  C6  UNK     1      19.756  -0.633  31.614  1.00  0.00     0.005 A 
HETATM    6  C8  UNK     1      19.304  -0.506  32.925  1.00  0.00     0.092 A 
HETATM    7  C9  UNK     1      18.254   1.644  32.454  1.00  0.00     0.295 A 
HETATM    8  C10 UNK     1      20.018   0.287  29.257  1.00  0.00     0.050 C 
HETATM    9  C11 UNK     1      20.467  -1.799  31.293  1.00  0.00     0.017 A 
HETATM   10  C13 UNK     1      19.542  -1.477  33.899  1.00  0.00     0.075 A 
HETATM   11  C14 UNK     1      20.253  -2.622  33.560  1.00  0.00     0.072 A 
HETATM   12  C15 UNK     1      20.714  -2.784  32.257  1.00  0.00     0.038 A 
ENDROOT
BRANCH  11  13
HETATM   13  O3  UNK     1      20.495  -3.579  34.495  1.00  0.00    -0.341 OA
BRANCH  13  14
HETATM   14  C16 UNK     1      20.088  -3.299  35.834  1.00  0.00     0.286 C 
BRANCH  14  15
HETATM   15  C17 UNK     1      20.245  -4.548  36.662  1.00  0.00     0.283 C 
HETATM   16  O5  UNK     1      21.024  -4.676  37.597  1.00  0.00    -0.263 OA
BRANCH  15  17
HETATM   17  O4  UNK     1      19.382  -5.498  36.199  1.00  0.00    -0.320 OA
BRANCH  17  18
HETATM   18  C18 UNK     1      19.835  -6.851  36.317  1.00  0.00     0.174 C 
HETATM   19  C19 UNK     1      20.484  -7.270  35.014  1.00  0.00     0.034 C 
ENDBRANCH  17  18
ENDBRANCH  15  17
ENDBRANCH  14  15
ENDBRANCH  13  14
ENDBRANCH  11  13
BRANCH   3  20
HETATM   20  C1  UNK     1      18.296   2.642  30.148  1.00  0.00     0.045 C 
BRANCH  20  21
HETATM   21  C2  UNK     1      19.268   3.817  30.169  1.00  0.00     0.005 C 
BRANCH  21  22
HETATM   22  C4  UNK     1      18.669   5.087  30.780  1.00  0.00    -0.000 C 
BRANCH  22  23
HETATM   23  C7  UNK     1      19.739   6.158  30.991  1.00  0.00    -0.005 C 
HETATM   24  C12 UNK     1      20.145   6.260  32.453  1.00  0.00     0.005 C 
ENDBRANCH  22  23
ENDBRANCH  21  22
ENDBRANCH  20  21
ENDBRANCH   3  20
TORSDOF 9
ENDMDL
