MODEL 1
REMARK VINA RESULT:      -9.1      0.000      0.000
REMARK  6 active torsions:
REMARK  status: ('A' for Active; 'I' for Inactive)
REMARK    1  A    between atoms: C1_8  and  O1_5 
REMARK    2  A    between atoms: C4_11  and  O1_5 
REMARK    3  A    between atoms: C3_10  and  O2_6 
REMARK    4  A    between atoms: C2_9  and  C9_16 
REMARK    5  A    between atoms: C4_11  and  C6_13 
REMARK    6  A    between atoms: C10_17  and  C11_18 
ROOT
HETATM    1  N1  UNK     1      17.899   2.606  33.797  1.00  0.00    -0.191 NA
HETATM    2  C9  UNK     1      18.452   4.540  30.996  1.00  0.00     0.036 C 
HETATM    3  C10 UNK     1      18.412   3.220  31.323  1.00  0.00     0.055 C 
HETATM    4  C23 UNK     1      18.127   2.890  32.695  1.00  0.00     0.100 C 
ENDROOT
BRANCH   3   5
HETATM    5  C11 UNK     1      18.630   2.144  30.371  1.00  0.00    -0.014 A 
HETATM    6  C16 UNK     1      19.425   1.052  30.720  1.00  0.00     0.032 A 
HETATM    7  C19 UNK     1      19.634   0.020  29.806  1.00  0.00     0.011 A 
HETATM    8 Br2  UNK     1      20.710  -1.460  30.279  1.00  0.00    -0.051 Br
HETATM    9  C21 UNK     1      19.049   0.079  28.541  1.00  0.00     0.019 A 
HETATM   10  C20 UNK     1      18.254   1.171  28.191  1.00  0.00     0.002 A 
HETATM   11  C17 UNK     1      18.046   2.203  29.106  1.00  0.00     0.013 A 
ENDBRANCH   3   5
BRANCH   2  12
HETATM   12  C2  UNK     1      18.230   5.660  31.923  1.00  0.00    -0.015 A 
HETATM   13  C5  UNK     1      16.913   5.953  32.257  1.00  0.00     0.052 A 
HETATM   14  C3  UNK     1      16.643   7.005  33.131  1.00  0.00     0.102 A 
HETATM   15  C1  UNK     1      17.691   7.754  33.667  1.00  0.00     0.103 A 
HETATM   16  C7  UNK     1      19.010   7.451  33.326  1.00  0.00     0.059 A 
HETATM   17  C8  UNK     1      19.279   6.399  32.451  1.00  0.00     0.024 A 
HETATM   18 Br1  UNK     1      21.097   6.040  32.028  1.00  0.00    -0.050 Br
BRANCH  14  19
HETATM   19  O2  UNK     1      15.351   7.292  33.457  1.00  0.00    -0.353 OA
HETATM   20  C22 UNK     1      14.407   7.328  32.390  1.00  0.00     0.210 C 
ENDBRANCH  14  19
BRANCH  15  21
HETATM   21  O1  UNK     1      17.440   8.783  34.522  1.00  0.00    -0.344 OA
BRANCH  21  22
HETATM   22  C4  UNK     1      17.380  10.093  33.960  1.00  0.00     0.216 C 
BRANCH  22  23
HETATM   23  C6  UNK     1      16.336  10.889  34.688  1.00  0.00    -0.012 A 
HETATM   24  C12 UNK     1      16.557  12.213  35.055  1.00  0.00     0.044 A 
HETATM   25 Cl1  UNK     1      18.045  13.011  34.695  1.00  0.00    -0.084 Cl
HETATM   26  C14 UNK     1      15.564  12.920  35.731  1.00  0.00     0.048 A 
HETATM   27  C18 UNK     1      14.352  12.301  36.036  1.00  0.00     0.035 A 
HETATM   28  C15 UNK     1      14.134  10.974  35.666  1.00  0.00     0.024 A 
HETATM   29 Cl2  UNK     1      13.125  13.174  36.869  1.00  0.00    -0.084 Cl
HETATM   30  C13 UNK     1      15.128  10.266  34.990  1.00  0.00     0.013 A 
ENDBRANCH  22  23
ENDBRANCH  21  22
ENDBRANCH  15  21
ENDBRANCH   2  12
TORSDOF 6
ENDMDL
MODEL 2
REMARK VINA RESULT:      -8.8      6.268      8.182
REMARK  6 active torsions:
REMARK  status: ('A' for Active; 'I' for Inactive)
REMARK    1  A    between atoms: C1_8  and  O1_5 
REMARK    2  A    between atoms: C4_11  and  O1_5 
REMARK    3  A    between atoms: C3_10  and  O2_6 
REMARK    4  A    between atoms: C2_9  and  C9_16 
REMARK    5  A    between atoms: C4_11  and  C6_13 
REMARK    6  A    between atoms: C10_17  and  C11_18 
ROOT
HETATM    1  N1  UNK     1      21.958  -1.727  35.360  1.00  0.00    -0.191 NA
HETATM    2  C9  UNK     1      18.620  -2.353  35.960  1.00  0.00     0.036 C 
HETATM    3  C10 UNK     1      19.818  -2.964  36.168  1.00  0.00     0.055 C 
HETATM    4  C23 UNK     1      20.997  -2.271  35.718  1.00  0.00     0.100 C 
ENDROOT
BRANCH   3   5
HETATM    5  C11 UNK     1      19.966  -4.255  36.819  1.00  0.00    -0.014 A 
HETATM    6  C16 UNK     1      21.123  -4.545  37.542  1.00  0.00     0.032 A 
HETATM    7  C19 UNK     1      21.263  -5.785  38.166  1.00  0.00     0.011 A 
HETATM    8 Br2  UNK     1      22.830  -6.179  39.146  1.00  0.00    -0.051 Br
HETATM    9  C21 UNK     1      20.247  -6.735  38.067  1.00  0.00     0.019 A 
HETATM   10  C20 UNK     1      19.090  -6.445  37.344  1.00  0.00     0.002 A 
HETATM   11  C17 UNK     1      18.950  -5.205  36.720  1.00  0.00     0.013 A 
ENDBRANCH   3   5
BRANCH   2  12
HETATM   12  C2  UNK     1      18.425  -1.047  35.315  1.00  0.00    -0.015 A 
HETATM   13  C5  UNK     1      18.627  -0.983  33.941  1.00  0.00     0.052 A 
HETATM   14  C3  UNK     1      18.457   0.231  33.277  1.00  0.00     0.102 A 
HETATM   15  C1  UNK     1      18.084   1.371  33.990  1.00  0.00     0.103 A 
HETATM   16  C7  UNK     1      17.884   1.296  35.369  1.00  0.00     0.059 A 
HETATM   17  C8  UNK     1      18.055   0.082  36.033  1.00  0.00     0.024 A 
HETATM   18 Br1  UNK     1      17.766   0.050  37.911  1.00  0.00    -0.050 Br
BRANCH  14  19
HETATM   19  O2  UNK     1      18.656   0.292  31.930  1.00  0.00    -0.353 OA
HETATM   20  C22 UNK     1      19.637  -0.583  31.380  1.00  0.00     0.210 C 
ENDBRANCH  14  19
BRANCH  15  21
HETATM   21  O1  UNK     1      17.914   2.562  33.352  1.00  0.00    -0.344 OA
BRANCH  21  22
HETATM   22  C4  UNK     1      18.636   3.681  33.864  1.00  0.00     0.216 C 
BRANCH  22  23
HETATM   23  C6  UNK     1      18.021   4.943  33.334  1.00  0.00    -0.012 A 
HETATM   24  C12 UNK     1      18.156   5.312  32.000  1.00  0.00     0.044 A 
HETATM   25 Cl1  UNK     1      19.038   4.338  30.880  1.00  0.00    -0.084 Cl
HETATM   26  C14 UNK     1      17.572   6.493  31.544  1.00  0.00     0.048 A 
HETATM   27  C18 UNK     1      16.854   7.301  32.426  1.00  0.00     0.035 A 
HETATM   28  C15 UNK     1      16.721   6.928  33.763  1.00  0.00     0.024 A 
HETATM   29 Cl2  UNK     1      16.131   8.759  31.865  1.00  0.00    -0.084 Cl
HETATM   30  C13 UNK     1      17.306   5.746  34.219  1.00  0.00     0.013 A 
ENDBRANCH  22  23
ENDBRANCH  21  22
ENDBRANCH  15  21
ENDBRANCH   2  12
TORSDOF 6
ENDMDL
MODEL 3
REMARK VINA RESULT:      -8.8     18.709     20.535
REMARK  6 active torsions:
REMARK  status: ('A' for Active; 'I' for Inactive)
REMARK    1  A    between atoms: C1_8  and  O1_5 
REMARK    2  A    between atoms: C4_11  and  O1_5 
REMARK    3  A    between atoms: C3_10  and  O2_6 
REMARK    4  A    between atoms: C2_9  and  C9_16 
REMARK    5  A    between atoms: C4_11  and  C6_13 
REMARK    6  A    between atoms: C10_17  and  C11_18 
ROOT
HETATM    1  N1  UNK     1      27.343 -10.351  39.691  1.00  0.00    -0.191 NA
HETATM    2  C9  UNK     1      27.437  -8.858  36.583  1.00  0.00     0.036 C 
HETATM    3  C10 UNK     1      26.636  -9.717  37.270  1.00  0.00     0.055 C 
HETATM    4  C23 UNK     1      27.036 -10.062  38.609  1.00  0.00     0.100 C 
ENDROOT
BRANCH   3   5
HETATM    5  C11 UNK     1      25.414 -10.289  36.731  1.00  0.00    -0.014 A 
HETATM    6  C16 UNK     1      24.253  -9.519  36.661  1.00  0.00     0.032 A 
HETATM    7  C19 UNK     1      23.080 -10.070  36.144  1.00  0.00     0.011 A 
HETATM    8 Br2  UNK     1      21.507  -9.026  36.049  1.00  0.00    -0.051 Br
HETATM    9  C21 UNK     1      23.068 -11.390  35.695  1.00  0.00     0.019 A 
HETATM   10  C20 UNK     1      24.229 -12.161  35.765  1.00  0.00     0.002 A 
HETATM   11  C17 UNK     1      25.401 -11.610  36.282  1.00  0.00     0.013 A 
ENDBRANCH   3   5
BRANCH   2  12
HETATM   12  C2  UNK     1      28.675  -8.250  37.091  1.00  0.00    -0.015 A 
HETATM   13  C5  UNK     1      29.872  -8.861  36.735  1.00  0.00     0.052 A 
HETATM   14  C3  UNK     1      31.078  -8.328  37.188  1.00  0.00     0.102 A 
HETATM   15  C1  UNK     1      31.079  -7.187  37.992  1.00  0.00     0.103 A 
HETATM   16  C7  UNK     1      29.872  -6.581  38.343  1.00  0.00     0.059 A 
HETATM   17  C8  UNK     1      28.666  -7.115  37.889  1.00  0.00     0.024 A 
HETATM   18 Br1  UNK     1      27.059  -6.241  38.404  1.00  0.00    -0.050 Br
BRANCH  14  19
HETATM   19  O2  UNK     1      32.251  -8.929  36.840  1.00  0.00    -0.353 OA
HETATM   20  C22 UNK     1      32.412  -9.288  35.470  1.00  0.00     0.210 C 
ENDBRANCH  14  19
BRANCH  15  21
HETATM   21  O1  UNK     1      32.250  -6.657  38.440  1.00  0.00    -0.344 OA
BRANCH  21  22
HETATM   22  C4  UNK     1      32.660  -5.415  37.871  1.00  0.00     0.216 C 
BRANCH  22  23
HETATM   23  C6  UNK     1      33.489  -5.687  36.650  1.00  0.00    -0.012 A 
HETATM   24  C12 UNK     1      32.944  -5.617  35.371  1.00  0.00     0.044 A 
HETATM   25 Cl1  UNK     1      31.285  -5.213  35.120  1.00  0.00    -0.084 Cl
HETATM   26  C14 UNK     1      33.746  -5.877  34.261  1.00  0.00     0.048 A 
HETATM   27  C18 UNK     1      35.090  -6.206  34.433  1.00  0.00     0.035 A 
HETATM   28  C15 UNK     1      35.632  -6.276  35.716  1.00  0.00     0.024 A 
HETATM   29 Cl2  UNK     1      36.081  -6.527  33.063  1.00  0.00    -0.084 Cl
HETATM   30  C13 UNK     1      34.831  -6.015  36.827  1.00  0.00     0.013 A 
ENDBRANCH  22  23
ENDBRANCH  21  22
ENDBRANCH  15  21
ENDBRANCH   2  12
TORSDOF 6
ENDMDL
MODEL 4
REMARK VINA RESULT:      -8.5     17.885     20.319
REMARK  6 active torsions:
REMARK  status: ('A' for Active; 'I' for Inactive)
REMARK    1  A    between atoms: C1_8  and  O1_5 
REMARK    2  A    between atoms: C4_11  and  O1_5 
REMARK    3  A    between atoms: C3_10  and  O2_6 
REMARK    4  A    between atoms: C2_9  and  C9_16 
REMARK    5  A    between atoms: C4_11  and  C6_13 
REMARK    6  A    between atoms: C10_17  and  C11_18 
ROOT
HETATM    1  N1  UNK     1      27.517 -10.325  39.507  1.00  0.00    -0.191 NA
HETATM    2  C9  UNK     1      27.427  -8.832  36.400  1.00  0.00     0.036 C 
HETATM    3  C10 UNK     1      26.676  -9.702  37.127  1.00  0.00     0.055 C 
HETATM    4  C23 UNK     1      27.149 -10.040  38.444  1.00  0.00     0.100 C 
ENDROOT
BRANCH   3   5
HETATM    5  C11 UNK     1      25.435 -10.291  36.653  1.00  0.00    -0.014 A 
HETATM    6  C16 UNK     1      24.271  -9.523  36.599  1.00  0.00     0.032 A 
HETATM    7  C19 UNK     1      23.081 -10.090  36.143  1.00  0.00     0.011 A 
HETATM    8 Br2  UNK     1      21.505  -9.049  36.071  1.00  0.00    -0.051 Br
HETATM    9  C21 UNK     1      23.053 -11.425  35.741  1.00  0.00     0.019 A 
HETATM   10  C20 UNK     1      24.216 -12.194  35.795  1.00  0.00     0.002 A 
HETATM   11  C17 UNK     1      25.406 -11.627  36.250  1.00  0.00     0.013 A 
ENDBRANCH   3   5
BRANCH   2  12
HETATM   12  C2  UNK     1      28.682  -8.207  36.842  1.00  0.00    -0.015 A 
HETATM   13  C5  UNK     1      28.583  -7.173  37.766  1.00  0.00     0.052 A 
HETATM   14  C3  UNK     1      29.741  -6.543  38.220  1.00  0.00     0.102 A 
HETATM   15  C1  UNK     1      30.989  -6.952  37.749  1.00  0.00     0.103 A 
HETATM   16  C7  UNK     1      31.078  -7.992  36.822  1.00  0.00     0.059 A 
HETATM   17  C8  UNK     1      29.919  -8.621  36.367  1.00  0.00     0.024 A 
HETATM   18 Br1  UNK     1      30.111 -10.029  35.105  1.00  0.00    -0.050 Br
BRANCH  14  19
HETATM   19  O2  UNK     1      29.642  -5.529  39.125  1.00  0.00    -0.353 OA
HETATM   20  C22 UNK     1      29.138  -4.284  38.650  1.00  0.00     0.210 C 
ENDBRANCH  14  19
BRANCH  15  21
HETATM   21  O1  UNK     1      32.127  -6.345  38.185  1.00  0.00    -0.344 OA
BRANCH  21  22
HETATM   22  C4  UNK     1      32.553  -5.182  37.478  1.00  0.00     0.216 C 
BRANCH  22  23
HETATM   23  C6  UNK     1      33.515  -5.589  36.401  1.00  0.00    -0.012 A 
HETATM   24  C12 UNK     1      33.139  -5.612  35.061  1.00  0.00     0.044 A 
HETATM   25 Cl1  UNK     1      31.545  -5.172  34.566  1.00  0.00    -0.084 Cl
HETATM   26  C14 UNK     1      34.061  -5.997  34.089  1.00  0.00     0.048 A 
HETATM   27  C18 UNK     1      35.356  -6.358  34.460  1.00  0.00     0.035 A 
HETATM   28  C15 UNK     1      35.729  -6.335  35.803  1.00  0.00     0.024 A 
HETATM   29 Cl2  UNK     1      36.495  -6.834  33.260  1.00  0.00    -0.084 Cl
HETATM   30  C13 UNK     1      34.807  -5.949  36.777  1.00  0.00     0.013 A 
ENDBRANCH  22  23
ENDBRANCH  21  22
ENDBRANCH  15  21
ENDBRANCH   2  12
TORSDOF 6
ENDMDL
MODEL 5
REMARK VINA RESULT:      -8.4      1.198      2.135
REMARK  6 active torsions:
REMARK  status: ('A' for Active; 'I' for Inactive)
REMARK    1  A    between atoms: C1_8  and  O1_5 
REMARK    2  A    between atoms: C4_11  and  O1_5 
REMARK    3  A    between atoms: C3_10  and  O2_6 
REMARK    4  A    between atoms: C2_9  and  C9_16 
REMARK    5  A    between atoms: C4_11  and  C6_13 
REMARK    6  A    between atoms: C10_17  and  C11_18 
ROOT
HETATM    1  N1  UNK     1      18.207   3.002  34.299  1.00  0.00    -0.191 NA
HETATM    2  C9  UNK     1      17.985   4.897  31.426  1.00  0.00     0.036 C 
HETATM    3  C10 UNK     1      18.241   3.605  31.770  1.00  0.00     0.055 C 
HETATM    4  C23 UNK     1      18.220   3.281  33.172  1.00  0.00     0.100 C 
ENDROOT
BRANCH   3   5
HETATM    5  C11 UNK     1      18.522   2.553  30.808  1.00  0.00    -0.014 A 
HETATM    6  C16 UNK     1      19.257   1.432  31.194  1.00  0.00     0.032 A 
HETATM    7  C19 UNK     1      19.526   0.422  30.270  1.00  0.00     0.011 A 
HETATM    8 Br2  UNK     1      20.523  -1.097  30.792  1.00  0.00    -0.051 Br
HETATM    9  C21 UNK     1      19.061   0.532  28.960  1.00  0.00     0.019 A 
HETATM   10  C20 UNK     1      18.325   1.653  28.574  1.00  0.00     0.002 A 
HETATM   11  C17 UNK     1      18.056   2.663  29.498  1.00  0.00     0.013 A 
ENDBRANCH   3   5
BRANCH   2  12
HETATM   12  C2  UNK     1      17.689   5.990  32.362  1.00  0.00    -0.015 A 
HETATM   13  C5  UNK     1      16.349   6.268  32.608  1.00  0.00     0.052 A 
HETATM   14  C3  UNK     1      16.009   7.295  33.487  1.00  0.00     0.102 A 
HETATM   15  C1  UNK     1      17.011   8.035  34.116  1.00  0.00     0.103 A 
HETATM   16  C7  UNK     1      18.353   7.748  33.864  1.00  0.00     0.059 A 
HETATM   17  C8  UNK     1      18.692   6.721  32.984  1.00  0.00     0.024 A 
HETATM   18 Br1  UNK     1      20.538   6.382  32.684  1.00  0.00    -0.050 Br
BRANCH  14  19
HETATM   19  O2  UNK     1      14.696   7.567  33.726  1.00  0.00    -0.353 OA
HETATM   20  C22 UNK     1      13.793   7.412  32.634  1.00  0.00     0.210 C 
ENDBRANCH  14  19
BRANCH  15  21
HETATM   21  O1  UNK     1      16.691   9.040  34.977  1.00  0.00    -0.344 OA
BRANCH  21  22
HETATM   22  C4  UNK     1      15.759  10.017  34.516  1.00  0.00     0.216 C 
BRANCH  22  23
HETATM   23  C6  UNK     1      16.484  11.310  34.278  1.00  0.00    -0.012 A 
HETATM   24  C12 UNK     1      15.803  12.521  34.197  1.00  0.00     0.044 A 
HETATM   25 Cl1  UNK     1      14.087  12.602  34.368  1.00  0.00    -0.084 Cl
HETATM   26  C14 UNK     1      16.511  13.701  33.974  1.00  0.00     0.048 A 
HETATM   27  C18 UNK     1      17.898  13.665  33.831  1.00  0.00     0.035 A 
HETATM   28  C15 UNK     1      18.577  12.450  33.911  1.00  0.00     0.024 A 
HETATM   29 Cl2  UNK     1      18.773  15.122  33.555  1.00  0.00    -0.084 Cl
HETATM   30  C13 UNK     1      17.869  11.269  34.136  1.00  0.00     0.013 A 
ENDBRANCH  22  23
ENDBRANCH  21  22
ENDBRANCH  15  21
ENDBRANCH   2  12
TORSDOF 6
ENDMDL
MODEL 6
REMARK VINA RESULT:      -8.2      8.462     12.697
REMARK  6 active torsions:
REMARK  status: ('A' for Active; 'I' for Inactive)
REMARK    1  A    between atoms: C1_8  and  O1_5 
REMARK    2  A    between atoms: C4_11  and  O1_5 
REMARK    3  A    between atoms: C3_10  and  O2_6 
REMARK    4  A    between atoms: C2_9  and  C9_16 
REMARK    5  A    between atoms: C4_11  and  C6_13 
REMARK    6  A    between atoms: C10_17  and  C11_18 
ROOT
HETATM    1  N1  UNK     1      20.175   2.598  36.506  1.00  0.00    -0.191 NA
HETATM    2  C9  UNK     1      18.113   1.080  34.195  1.00  0.00     0.036 C 
HETATM    3  C10 UNK     1      18.564   2.331  34.481  1.00  0.00     0.055 C 
HETATM    4  C23 UNK     1      19.456   2.468  35.604  1.00  0.00     0.100 C 
ENDROOT
BRANCH   3   5
HETATM    5  C11 UNK     1      18.205   3.515  33.719  1.00  0.00    -0.014 A 
HETATM    6  C16 UNK     1      17.947   4.717  34.377  1.00  0.00     0.032 A 
HETATM    7  C19 UNK     1      17.601   5.853  33.644  1.00  0.00     0.011 A 
HETATM    8 Br2  UNK     1      17.252   7.483  34.535  1.00  0.00    -0.051 Br
HETATM    9  C21 UNK     1      17.514   5.787  32.253  1.00  0.00     0.019 A 
HETATM   10  C20 UNK     1      17.772   4.584  31.596  1.00  0.00     0.002 A 
HETATM   11  C17 UNK     1      18.117   3.448  32.329  1.00  0.00     0.013 A 
ENDBRANCH   3   5
BRANCH   2  12
HETATM   12  C2  UNK     1      18.456  -0.145  34.933  1.00  0.00    -0.015 A 
HETATM   13  C5  UNK     1      19.413  -0.978  34.366  1.00  0.00     0.052 A 
HETATM   14  C3  UNK     1      19.778  -2.153  35.022  1.00  0.00     0.102 A 
HETATM   15  C1  UNK     1      19.184  -2.486  36.240  1.00  0.00     0.103 A 
HETATM   16  C7  UNK     1      18.224  -1.642  36.801  1.00  0.00     0.059 A 
HETATM   17  C8  UNK     1      17.860  -0.467  36.144  1.00  0.00     0.024 A 
HETATM   18 Br1  UNK     1      16.547   0.636  36.963  1.00  0.00    -0.050 Br
BRANCH  14  19
HETATM   19  O2  UNK     1      20.716  -2.969  34.464  1.00  0.00    -0.353 OA
HETATM   20  C22 UNK     1      20.950  -2.826  33.065  1.00  0.00     0.210 C 
ENDBRANCH  14  19
BRANCH  15  21
HETATM   21  O1  UNK     1      19.532  -3.631  36.889  1.00  0.00    -0.344 OA
BRANCH  21  22
HETATM   22  C4  UNK     1      18.677  -4.760  36.717  1.00  0.00     0.216 C 
BRANCH  22  23
HETATM   23  C6  UNK     1      19.516  -5.967  36.415  1.00  0.00    -0.012 A 
HETATM   24  C12 UNK     1      20.090  -6.725  37.431  1.00  0.00     0.044 A 
HETATM   25 Cl1  UNK     1      19.870  -6.316  39.094  1.00  0.00    -0.084 Cl
HETATM   26  C14 UNK     1      20.865  -7.839  37.112  1.00  0.00     0.048 A 
HETATM   27  C18 UNK     1      21.060  -8.193  35.777  1.00  0.00     0.035 A 
HETATM   28  C15 UNK     1      20.483  -7.431  34.762  1.00  0.00     0.024 A 
HETATM   29 Cl2  UNK     1      22.016  -9.568  35.381  1.00  0.00    -0.084 Cl
HETATM   30  C13 UNK     1      19.709  -6.315  35.081  1.00  0.00     0.013 A 
ENDBRANCH  22  23
ENDBRANCH  21  22
ENDBRANCH  15  21
ENDBRANCH   2  12
TORSDOF 6
ENDMDL
MODEL 7
REMARK VINA RESULT:      -8.1     17.329     19.929
REMARK  6 active torsions:
REMARK  status: ('A' for Active; 'I' for Inactive)
REMARK    1  A    between atoms: C1_8  and  O1_5 
REMARK    2  A    between atoms: C4_11  and  O1_5 
REMARK    3  A    between atoms: C3_10  and  O2_6 
REMARK    4  A    between atoms: C2_9  and  C9_16 
REMARK    5  A    between atoms: C4_11  and  C6_13 
REMARK    6  A    between atoms: C10_17  and  C11_18 
ROOT
HETATM    1  N1  UNK     1      26.688  -5.826  39.011  1.00  0.00    -0.191 NA
HETATM    2  C9  UNK     1      26.173  -9.007  37.782  1.00  0.00     0.036 C 
HETATM    3  C10 UNK     1      25.428  -7.974  38.260  1.00  0.00     0.055 C 
HETATM    4  C23 UNK     1      26.135  -6.789  38.673  1.00  0.00     0.100 C 
ENDROOT
BRANCH   3   5
HETATM    5  C11 UNK     1      23.979  -8.002  38.365  1.00  0.00    -0.014 A 
HETATM    6  C16 UNK     1      23.224  -8.710  37.431  1.00  0.00     0.032 A 
HETATM    7  C19 UNK     1      21.833  -8.737  37.534  1.00  0.00     0.011 A 
HETATM    8 Br2  UNK     1      20.809  -9.696  36.267  1.00  0.00    -0.051 Br
HETATM    9  C21 UNK     1      21.196  -8.055  38.571  1.00  0.00     0.019 A 
HETATM   10  C20 UNK     1      21.952  -7.346  39.505  1.00  0.00     0.002 A 
HETATM   11  C17 UNK     1      23.342  -7.320  39.402  1.00  0.00     0.013 A 
ENDBRANCH   3   5
BRANCH   2  12
HETATM   12  C2  UNK     1      27.637  -9.019  37.650  1.00  0.00    -0.015 A 
HETATM   13  C5  UNK     1      28.170  -8.527  36.464  1.00  0.00     0.052 A 
HETATM   14  C3  UNK     1      29.552  -8.514  36.284  1.00  0.00     0.102 A 
HETATM   15  C1  UNK     1      30.392  -8.992  37.291  1.00  0.00     0.103 A 
HETATM   16  C7  UNK     1      29.847  -9.484  38.478  1.00  0.00     0.059 A 
HETATM   17  C8  UNK     1      28.464  -9.497  38.657  1.00  0.00     0.024 A 
HETATM   18 Br1  UNK     1      27.788 -10.180  40.296  1.00  0.00    -0.050 Br
BRANCH  14  19
HETATM   19  O2  UNK     1      30.073  -8.031  35.121  1.00  0.00    -0.353 OA
HETATM   20  C22 UNK     1      29.772  -6.678  34.789  1.00  0.00     0.210 C 
ENDBRANCH  14  19
BRANCH  15  21
HETATM   21  O1  UNK     1      31.743  -8.985  37.127  1.00  0.00    -0.344 OA
BRANCH  21  22
HETATM   22  C4  UNK     1      32.493  -8.103  37.961  1.00  0.00     0.216 C 
BRANCH  22  23
HETATM   23  C6  UNK     1      32.968  -6.939  37.139  1.00  0.00    -0.012 A 
HETATM   24  C12 UNK     1      32.365  -5.689  37.234  1.00  0.00     0.044 A 
HETATM   25 Cl1  UNK     1      31.038  -5.407  38.302  1.00  0.00    -0.084 Cl
HETATM   26  C14 UNK     1      32.833  -4.633  36.454  1.00  0.00     0.048 A 
HETATM   27  C18 UNK     1      33.903  -4.831  35.582  1.00  0.00     0.035 A 
HETATM   28  C15 UNK     1      34.504  -6.085  35.490  1.00  0.00     0.024 A 
HETATM   29 Cl2  UNK     1      34.482  -3.527  34.619  1.00  0.00    -0.084 Cl
HETATM   30  C13 UNK     1      34.036  -7.143  36.270  1.00  0.00     0.013 A 
ENDBRANCH  22  23
ENDBRANCH  21  22
ENDBRANCH  15  21
ENDBRANCH   2  12
TORSDOF 6
ENDMDL
MODEL 8
REMARK VINA RESULT:      -8.0     23.746     25.169
REMARK  6 active torsions:
REMARK  status: ('A' for Active; 'I' for Inactive)
REMARK    1  A    between atoms: C1_8  and  O1_5 
REMARK    2  A    between atoms: C4_11  and  O1_5 
REMARK    3  A    between atoms: C3_10  and  O2_6 
REMARK    4  A    between atoms: C2_9  and  C9_16 
REMARK    5  A    between atoms: C4_11  and  C6_13 
REMARK    6  A    between atoms: C10_17  and  C11_18 
ROOT
HETATM    1  N1  UNK     1      13.011   5.924  10.281  1.00  0.00    -0.191 NA
HETATM    2  C9  UNK     1      12.263   9.018   8.954  1.00  0.00     0.036 C 
HETATM    3  C10 UNK     1      13.362   8.336   9.374  1.00  0.00     0.055 C 
HETATM    4  C23 UNK     1      13.158   7.001   9.874  1.00  0.00     0.100 C 
ENDROOT
BRANCH   3   5
HETATM    5  C11 UNK     1      14.712   8.874   9.338  1.00  0.00    -0.014 A 
HETATM    6  C16 UNK     1      14.979  10.040   8.620  1.00  0.00     0.032 A 
HETATM    7  C19 UNK     1      16.275  10.556   8.586  1.00  0.00     0.011 A 
HETATM    8 Br2  UNK     1      16.639  12.136   7.614  1.00  0.00    -0.051 Br
HETATM    9  C21 UNK     1      17.303   9.907   9.269  1.00  0.00     0.019 A 
HETATM   10  C20 UNK     1      17.036   8.741   9.986  1.00  0.00     0.002 A 
HETATM   11  C17 UNK     1      15.740   8.225  10.021  1.00  0.00     0.013 A 
ENDBRANCH   3   5
BRANCH   2  12
HETATM   12  C2  UNK     1      10.883   8.511   8.966  1.00  0.00    -0.015 A 
HETATM   13  C5  UNK     1      10.596   7.438   8.130  1.00  0.00     0.052 A 
HETATM   14  C3  UNK     1       9.304   6.915   8.100  1.00  0.00     0.102 A 
HETATM   15  C1  UNK     1       8.309   7.468   8.906  1.00  0.00     0.103 A 
HETATM   16  C7  UNK     1       8.607   8.545   9.743  1.00  0.00     0.059 A 
HETATM   17  C8  UNK     1       9.900   9.067   9.772  1.00  0.00     0.024 A 
HETATM   18 Br1  UNK     1      10.238  10.533  10.933  1.00  0.00    -0.050 Br
BRANCH  14  19
HETATM   19  O2  UNK     1       9.024   5.864   7.279  1.00  0.00    -0.353 OA
HETATM   20  C22 UNK     1       9.513   5.938   5.942  1.00  0.00     0.210 C 
ENDBRANCH  14  19
BRANCH  15  21
HETATM   21  O1  UNK     1       7.043   6.967   8.886  1.00  0.00    -0.344 OA
BRANCH  21  22
HETATM   22  C4  UNK     1       6.189   7.316   9.975  1.00  0.00     0.216 C 
BRANCH  22  23
HETATM   23  C6  UNK     1       5.868   6.078  10.760  1.00  0.00    -0.012 A 
HETATM   24  C12 UNK     1       5.093   6.130  11.914  1.00  0.00     0.044 A 
HETATM   25 Cl1  UNK     1       4.458   7.623  12.505  1.00  0.00    -0.084 Cl
HETATM   26  C14 UNK     1       4.816   4.959  12.617  1.00  0.00     0.048 A 
HETATM   27  C18 UNK     1       5.316   3.739  12.164  1.00  0.00     0.035 A 
HETATM   28  C15 UNK     1       6.093   3.690  11.007  1.00  0.00     0.024 A 
HETATM   29 Cl2  UNK     1       4.975   2.292  13.031  1.00  0.00    -0.084 Cl
HETATM   30  C13 UNK     1       6.370   4.862  10.303  1.00  0.00     0.013 A 
ENDBRANCH  22  23
ENDBRANCH  21  22
ENDBRANCH  15  21
ENDBRANCH   2  12
TORSDOF 6
ENDMDL
MODEL 9
REMARK VINA RESULT:      -8.0     18.081     20.248
REMARK  6 active torsions:
REMARK  status: ('A' for Active; 'I' for Inactive)
REMARK    1  A    between atoms: C1_8  and  O1_5 
REMARK    2  A    between atoms: C4_11  and  O1_5 
REMARK    3  A    between atoms: C3_10  and  O2_6 
REMARK    4  A    between atoms: C2_9  and  C9_16 
REMARK    5  A    between atoms: C4_11  and  C6_13 
REMARK    6  A    between atoms: C10_17  and  C11_18 
ROOT
HETATM    1  N1  UNK     1      24.684  -6.962  38.991  1.00  0.00    -0.191 NA
HETATM    2  C9  UNK     1      26.053  -9.274  36.829  1.00  0.00     0.036 C 
HETATM    3  C10 UNK     1      24.820  -8.907  37.270  1.00  0.00     0.055 C 
HETATM    4  C23 UNK     1      24.755  -7.829  38.222  1.00  0.00     0.100 C 
ENDROOT
BRANCH   3   5
HETATM    5  C11 UNK     1      23.584  -9.533  36.830  1.00  0.00    -0.014 A 
HETATM    6  C16 UNK     1      22.355  -8.975  37.181  1.00  0.00     0.032 A 
HETATM    7  C19 UNK     1      21.169  -9.576  36.758  1.00  0.00     0.011 A 
HETATM    8 Br2  UNK     1      19.503  -8.822  37.234  1.00  0.00    -0.051 Br
HETATM    9  C21 UNK     1      21.212 -10.735  35.983  1.00  0.00     0.019 A 
HETATM   10  C20 UNK     1      22.442 -11.293  35.631  1.00  0.00     0.002 A 
HETATM   11  C17 UNK     1      23.627 -10.691  36.055  1.00  0.00     0.013 A 
ENDBRANCH   3   5
BRANCH   2  12
HETATM   12  C2  UNK     1      27.326  -8.666  37.241  1.00  0.00    -0.015 A 
HETATM   13  C5  UNK     1      27.855  -7.683  36.413  1.00  0.00     0.052 A 
HETATM   14  C3  UNK     1      29.061  -7.071  36.754  1.00  0.00     0.102 A 
HETATM   15  C1  UNK     1      29.728  -7.445  37.921  1.00  0.00     0.103 A 
HETATM   16  C7  UNK     1      29.189  -8.433  38.746  1.00  0.00     0.059 A 
HETATM   17  C8  UNK     1      27.983  -9.045  38.404  1.00  0.00     0.024 A 
HETATM   18 Br1  UNK     1      27.304 -10.382  39.571  1.00  0.00    -0.050 Br
BRANCH  14  19
HETATM   19  O2  UNK     1      29.578  -6.108  35.941  1.00  0.00    -0.353 OA
HETATM   20  C22 UNK     1      30.100  -6.533  34.684  1.00  0.00     0.210 C 
ENDBRANCH  14  19
BRANCH  15  21
HETATM   21  O1  UNK     1      30.906  -6.855  38.264  1.00  0.00    -0.344 OA
BRANCH  21  22
HETATM   22  C4  UNK     1      32.032  -7.712  38.446  1.00  0.00     0.216 C 
BRANCH  22  23
HETATM   23  C6  UNK     1      33.026  -7.452  37.352  1.00  0.00    -0.012 A 
HETATM   24  C12 UNK     1      33.039  -8.211  36.186  1.00  0.00     0.044 A 
HETATM   25 Cl1  UNK     1      31.912  -9.494  35.934  1.00  0.00    -0.084 Cl
HETATM   26  C14 UNK     1      33.979  -7.940  35.193  1.00  0.00     0.048 A 
HETATM   27  C18 UNK     1      34.902  -6.909  35.370  1.00  0.00     0.035 A 
HETATM   28  C15 UNK     1      34.887  -6.151  36.540  1.00  0.00     0.024 A 
HETATM   29 Cl2  UNK     1      36.063  -6.573  34.144  1.00  0.00    -0.084 Cl
HETATM   30  C13 UNK     1      33.946  -6.422  37.534  1.00  0.00     0.013 A 
ENDBRANCH  22  23
ENDBRANCH  21  22
ENDBRANCH  15  21
ENDBRANCH   2  12
TORSDOF 6
ENDMDL
MODEL 10
REMARK VINA RESULT:      -7.9     22.218     24.449
REMARK  6 active torsions:
REMARK  status: ('A' for Active; 'I' for Inactive)
REMARK    1  A    between atoms: C1_8  and  O1_5 
REMARK    2  A    between atoms: C4_11  and  O1_5 
REMARK    3  A    between atoms: C3_10  and  O2_6 
REMARK    4  A    between atoms: C2_9  and  C9_16 
REMARK    5  A    between atoms: C4_11  and  C6_13 
REMARK    6  A    between atoms: C10_17  and  C11_18 
ROOT
HETATM    1  N1  UNK     1      12.659   8.731  11.353  1.00  0.00    -0.191 NA
HETATM    2  C9  UNK     1      14.003   8.599   8.180  1.00  0.00     0.036 C 
HETATM    3  C10 UNK     1      12.874   8.191   8.819  1.00  0.00     0.055 C 
HETATM    4  C23 UNK     1      12.764   8.495  10.222  1.00  0.00     0.100 C 
ENDROOT
BRANCH   3   5
HETATM    5  C11 UNK     1      11.787   7.482   8.165  1.00  0.00    -0.014 A 
HETATM    6  C16 UNK     1      10.511   7.485   8.730  1.00  0.00     0.032 A 
HETATM    7  C19 UNK     1       9.468   6.804   8.101  1.00  0.00     0.011 A 
HETATM    8 Br2  UNK     1       7.739   6.807   8.866  1.00  0.00    -0.051 Br
HETATM    9  C21 UNK     1       9.700   6.119   6.909  1.00  0.00     0.019 A 
HETATM   10  C20 UNK     1      10.976   6.116   6.344  1.00  0.00     0.002 A 
HETATM   11  C17 UNK     1      12.019   6.797   6.973  1.00  0.00     0.013 A 
ENDBRANCH   3   5
BRANCH   2  12
HETATM   12  C2  UNK     1      15.122   9.325   8.799  1.00  0.00    -0.015 A 
HETATM   13  C5  UNK     1      15.176  10.699   8.594  1.00  0.00     0.052 A 
HETATM   14  C3  UNK     1      16.216  11.438   9.157  1.00  0.00     0.102 A 
HETATM   15  C1  UNK     1      17.193  10.798   9.921  1.00  0.00     0.103 A 
HETATM   16  C7  UNK     1      17.130   9.419  10.121  1.00  0.00     0.059 A 
HETATM   17  C8  UNK     1      16.090   8.680   9.557  1.00  0.00     0.024 A 
HETATM   18 Br1  UNK     1      16.063   6.806   9.868  1.00  0.00    -0.050 Br
BRANCH  14  19
HETATM   19  O2  UNK     1      16.268  12.784   8.955  1.00  0.00    -0.353 OA
HETATM   20  C22 UNK     1      16.462  13.232   7.616  1.00  0.00     0.210 C 
ENDBRANCH  14  19
BRANCH  15  21
HETATM   21  O1  UNK     1      18.213  11.510  10.476  1.00  0.00    -0.344 OA
BRANCH  21  22
HETATM   22  C4  UNK     1      19.334  11.794   9.640  1.00  0.00     0.216 C 
BRANCH  22  23
HETATM   23  C6  UNK     1      20.522  12.101  10.505  1.00  0.00    -0.012 A 
HETATM   24  C12 UNK     1      21.810  12.145   9.980  1.00  0.00     0.044 A 
HETATM   25 Cl1  UNK     1      22.112  11.848   8.307  1.00  0.00    -0.084 Cl
HETATM   26  C14 UNK     1      22.889  12.432  10.815  1.00  0.00     0.048 A 
HETATM   27  C18 UNK     1      22.676  12.676  12.171  1.00  0.00     0.035 A 
HETATM   28  C15 UNK     1      21.384  12.631  12.693  1.00  0.00     0.024 A 
HETATM   29 Cl2  UNK     1      24.007  13.031  13.202  1.00  0.00    -0.084 Cl
HETATM   30  C13 UNK     1      20.304  12.343  11.858  1.00  0.00     0.013 A 
ENDBRANCH  22  23
ENDBRANCH  21  22
ENDBRANCH  15  21
ENDBRANCH   2  12
TORSDOF 6
ENDMDL
