MODEL 1
REMARK VINA RESULT:      -8.2      0.000      0.000
REMARK  5 active torsions:
REMARK  status: ('A' for Active; 'I' for Inactive)
REMARK    1  A    between atoms: C5_10  and  O2_2 
REMARK    2  A    between atoms: C14_19  and  O4_4 
REMARK    3  A    between atoms: C3_8  and  N1_5 
REMARK    4  A    between atoms: C1_6  and  C3_8 
REMARK    5  A    between atoms: C10_15  and  C6_11 
ROOT
HETATM    1  O1  UNK     1      10.774   4.578   9.564  1.00  0.00    -0.320 OA
HETATM    2  O3  UNK     1       7.319   6.226   8.149  1.00  0.00    -0.286 OA
HETATM    3  C1  UNK     1      12.026   5.550   7.814  1.00  0.00     0.038 A 
HETATM    4  C2  UNK     1      10.792   5.351   8.432  1.00  0.00     0.100 A 
HETATM    5  C4  UNK     1       9.642   5.930   7.897  1.00  0.00     0.050 A 
HETATM    6  C5  UNK     1      12.107   6.327   6.658  1.00  0.00     0.076 A 
HETATM    7  C6  UNK     1       8.370   4.850   9.784  1.00  0.00     0.050 A 
HETATM    8  C7  UNK     1       8.348   5.711   8.569  1.00  0.00     0.198 A 
HETATM    9  C8  UNK     1       9.719   6.711   6.739  1.00  0.00     0.021 A 
HETATM   10  C9  UNK     1      10.956   6.907   6.122  1.00  0.00     0.038 A 
HETATM   11  C11 UNK     1       9.560   4.364  10.170  1.00  0.00     0.159 A 
ENDROOT
BRANCH   7  12
HETATM   12  C10 UNK     1       7.144   4.520  10.527  1.00  0.00     0.013 A 
HETATM   13  C14 UNK     1       6.274   3.521  10.082  1.00  0.00     0.079 A 
HETATM   14  C16 UNK     1       5.117   3.225  10.803  1.00  0.00     0.037 A 
HETATM   15  C18 UNK     1       4.825   3.928  11.973  1.00  0.00     0.003 A 
HETATM   16  C17 UNK     1       5.691   4.926  12.421  1.00  0.00     0.001 A 
HETATM   17  C15 UNK     1       6.848   5.221  11.699  1.00  0.00     0.015 A 
BRANCH  13  18
HETATM   18  O4  UNK     1       6.534   2.819   8.942  1.00  0.00    -0.355 OA
HETATM   19  C19 UNK     1       5.787   1.622   8.735  1.00  0.00     0.210 C 
ENDBRANCH  13  18
ENDBRANCH   7  12
BRANCH   3  20
HETATM   20  C3  UNK     1      13.266   4.933   8.381  1.00  0.00     0.315 C 
BRANCH  20  21
HETATM   21  N1  UNK     1      13.671   5.562   9.637  1.00  0.00     0.084 N 
HETATM   22  C12 UNK     1      13.874   6.998   9.447  1.00  0.00     0.309 C 
HETATM   23  C13 UNK     1      14.888   4.939  10.153  1.00  0.00     0.309 C 
ENDBRANCH  20  21
ENDBRANCH   3  20
BRANCH   6  24
HETATM   24  O2  UNK     1      13.303   6.534   6.038  1.00  0.00    -0.360 OA
HETATM   25  H14 UNK     1      13.355   7.461   5.748  1.00  0.00     0.217 HD
ENDBRANCH   6  24
TORSDOF 5
ENDMDL
MODEL 2
REMARK VINA RESULT:      -8.1      2.574      7.325
REMARK  5 active torsions:
REMARK  status: ('A' for Active; 'I' for Inactive)
REMARK    1  A    between atoms: C5_10  and  O2_2 
REMARK    2  A    between atoms: C14_19  and  O4_4 
REMARK    3  A    between atoms: C3_8  and  N1_5 
REMARK    4  A    between atoms: C1_6  and  C3_8 
REMARK    5  A    between atoms: C10_15  and  C6_11 
ROOT
HETATM    1  O1  UNK     1      10.898   7.711   9.639  1.00  0.00    -0.320 OA
HETATM    2  O3  UNK     1      13.737   6.928   6.814  1.00  0.00    -0.286 OA
HETATM    3  C1  UNK     1       9.165   7.106   8.153  1.00  0.00     0.038 A 
HETATM    4  C2  UNK     1      10.529   7.276   8.392  1.00  0.00     0.100 A 
HETATM    5  C4  UNK     1      11.454   7.004   7.385  1.00  0.00     0.050 A 
HETATM    6  C5  UNK     1       8.729   6.665   6.903  1.00  0.00     0.076 A 
HETATM    7  C6  UNK     1      13.247   7.677   9.021  1.00  0.00     0.050 A 
HETATM    8  C7  UNK     1      12.891   7.185   7.661  1.00  0.00     0.198 A 
HETATM    9  C8  UNK     1      11.021   6.561   6.132  1.00  0.00     0.021 A 
HETATM   10  C9  UNK     1       9.655   6.393   5.894  1.00  0.00     0.038 A 
HETATM   11  C11 UNK     1      12.238   7.897   9.878  1.00  0.00     0.159 A 
ENDROOT
BRANCH   7  12
HETATM   12  C10 UNK     1      14.640   7.938   9.415  1.00  0.00     0.013 A 
HETATM   13  C14 UNK     1      15.374   7.001  10.148  1.00  0.00     0.079 A 
HETATM   14  C16 UNK     1      16.694   7.271  10.510  1.00  0.00     0.037 A 
HETATM   15  C18 UNK     1      17.285   8.480  10.141  1.00  0.00     0.003 A 
HETATM   16  C17 UNK     1      16.557   9.417   9.409  1.00  0.00     0.001 A 
HETATM   17  C15 UNK     1      15.238   9.147   9.047  1.00  0.00     0.015 A 
BRANCH  13  18
HETATM   18  O4  UNK     1      14.820   5.813  10.523  1.00  0.00    -0.355 OA
HETATM   19  C19 UNK     1      15.186   4.662   9.765  1.00  0.00     0.210 C 
ENDBRANCH  13  18
ENDBRANCH   7  12
BRANCH   3  20
HETATM   20  C3  UNK     1       8.166   7.395   9.227  1.00  0.00     0.315 C 
BRANCH  20  21
HETATM   21  N1  UNK     1       7.378   6.215   9.580  1.00  0.00     0.084 N 
HETATM   22  C12 UNK     1       6.308   6.575  10.510  1.00  0.00     0.309 C 
HETATM   23  C13 UNK     1       8.234   5.183  10.163  1.00  0.00     0.309 C 
ENDBRANCH  20  21
ENDBRANCH   3  20
BRANCH   6  24
HETATM   24  O2  UNK     1       7.402   6.494   6.647  1.00  0.00    -0.360 OA
HETATM   25  H14 UNK     1       7.049   5.810   7.243  1.00  0.00     0.217 HD
ENDBRANCH   6  24
TORSDOF 5
ENDMDL
MODEL 3
REMARK VINA RESULT:      -8.1      0.994      2.068
REMARK  5 active torsions:
REMARK  status: ('A' for Active; 'I' for Inactive)
REMARK    1  A    between atoms: C5_10  and  O2_2 
REMARK    2  A    between atoms: C14_19  and  O4_4 
REMARK    3  A    between atoms: C3_8  and  N1_5 
REMARK    4  A    between atoms: C1_6  and  C3_8 
REMARK    5  A    between atoms: C10_15  and  C6_11 
ROOT
HETATM    1  O1  UNK     1      10.786   4.736   9.643  1.00  0.00    -0.320 OA
HETATM    2  O3  UNK     1       7.374   6.225   7.971  1.00  0.00    -0.286 OA
HETATM    3  C1  UNK     1      12.104   5.633   7.902  1.00  0.00     0.038 A 
HETATM    4  C2  UNK     1      10.845   5.444   8.470  1.00  0.00     0.100 A 
HETATM    5  C4  UNK     1       9.712   5.966   7.848  1.00  0.00     0.050 A 
HETATM    6  C5  UNK     1      12.227   6.346   6.708  1.00  0.00     0.076 A 
HETATM    7  C6  UNK     1       8.370   4.967   9.731  1.00  0.00     0.050 A 
HETATM    8  C7  UNK     1       8.391   5.757   8.469  1.00  0.00     0.198 A 
HETATM    9  C8  UNK     1       9.831   6.681   6.652  1.00  0.00     0.021 A 
HETATM   10  C9  UNK     1      11.093   6.868   6.085  1.00  0.00     0.038 A 
HETATM   11  C11 UNK     1       9.548   4.530  10.202  1.00  0.00     0.159 A 
ENDROOT
BRANCH   7  12
HETATM   12  C10 UNK     1       7.115   4.653  10.433  1.00  0.00     0.013 A 
HETATM   13  C14 UNK     1       6.521   5.572  11.303  1.00  0.00     0.079 A 
HETATM   14  C16 UNK     1       5.331   5.251  11.957  1.00  0.00     0.037 A 
HETATM   15  C18 UNK     1       4.731   4.009  11.743  1.00  0.00     0.003 A 
HETATM   16  C17 UNK     1       5.320   3.090  10.876  1.00  0.00     0.001 A 
HETATM   17  C15 UNK     1       6.509   3.411  10.222  1.00  0.00     0.015 A 
BRANCH  13  18
HETATM   18  O4  UNK     1       7.087   6.791  11.530  1.00  0.00    -0.355 OA
HETATM   19  C19 UNK     1       6.406   7.928  11.004  1.00  0.00     0.210 C 
ENDBRANCH  13  18
ENDBRANCH   7  12
BRANCH   3  20
HETATM   20  C3  UNK     1      13.326   5.077   8.562  1.00  0.00     0.315 C 
BRANCH  20  21
HETATM   21  N1  UNK     1      14.234   6.129   9.019  1.00  0.00     0.084 N 
HETATM   22  C12 UNK     1      15.466   5.545   9.547  1.00  0.00     0.309 C 
HETATM   23  C13 UNK     1      13.587   6.959  10.034  1.00  0.00     0.309 C 
ENDBRANCH  20  21
ENDBRANCH   3  20
BRANCH   6  24
HETATM   24  O2  UNK     1      13.447   6.543   6.135  1.00  0.00    -0.360 OA
HETATM   25  H14 UNK     1      14.106   5.992   6.591  1.00  0.00     0.217 HD
ENDBRANCH   6  24
TORSDOF 5
ENDMDL
MODEL 4
REMARK VINA RESULT:      -8.0      3.654      5.900
REMARK  5 active torsions:
REMARK  status: ('A' for Active; 'I' for Inactive)
REMARK    1  A    between atoms: C5_10  and  O2_2 
REMARK    2  A    between atoms: C14_19  and  O4_4 
REMARK    3  A    between atoms: C3_8  and  N1_5 
REMARK    4  A    between atoms: C1_6  and  C3_8 
REMARK    5  A    between atoms: C10_15  and  C6_11 
ROOT
HETATM    1  O1  UNK     1      13.710   8.745   9.021  1.00  0.00    -0.320 OA
HETATM    2  O3  UNK     1      12.720   4.912   8.029  1.00  0.00    -0.286 OA
HETATM    3  C1  UNK     1      15.834   8.062   9.793  1.00  0.00     0.038 A 
HETATM    4  C2  UNK     1      14.599   7.725   9.240  1.00  0.00     0.100 A 
HETATM    5  C4  UNK     1      14.311   6.396   8.931  1.00  0.00     0.050 A 
HETATM    6  C5  UNK     1      16.780   7.066  10.039  1.00  0.00     0.076 A 
HETATM    7  C6  UNK     1      12.058   7.197   8.140  1.00  0.00     0.050 A 
HETATM    8  C7  UNK     1      13.001   6.062   8.342  1.00  0.00     0.198 A 
HETATM    9  C8  UNK     1      15.257   5.396   9.175  1.00  0.00     0.021 A 
HETATM   10  C9  UNK     1      16.492   5.736   9.731  1.00  0.00     0.038 A 
HETATM   11  C11 UNK     1      12.484   8.420   8.491  1.00  0.00     0.159 A 
ENDROOT
BRANCH   7  12
HETATM   12  C10 UNK     1      10.705   6.998   7.597  1.00  0.00     0.013 A 
HETATM   13  C14 UNK     1       9.570   7.220   8.382  1.00  0.00     0.079 A 
HETATM   14  C16 UNK     1       8.296   7.025   7.845  1.00  0.00     0.037 A 
HETATM   15  C18 UNK     1       8.154   6.605   6.522  1.00  0.00     0.003 A 
HETATM   16  C17 UNK     1       9.284   6.382   5.736  1.00  0.00     0.001 A 
HETATM   17  C15 UNK     1      10.556   6.578   6.272  1.00  0.00     0.015 A 
BRANCH  13  18
HETATM   18  O4  UNK     1       9.680   7.630   9.677  1.00  0.00    -0.355 OA
HETATM   19  C19 UNK     1       9.041   8.856  10.025  1.00  0.00     0.210 C 
ENDBRANCH  13  18
ENDBRANCH   7  12
BRANCH   3  20
HETATM   20  C3  UNK     1      16.151   9.485  10.127  1.00  0.00     0.315 C 
BRANCH  20  21
HETATM   21  N1  UNK     1      16.908  10.146   9.064  1.00  0.00     0.084 N 
HETATM   22  C12 UNK     1      18.060  10.853   9.622  1.00  0.00     0.309 C 
HETATM   23  C13 UNK     1      16.051  11.071   8.324  1.00  0.00     0.309 C 
ENDBRANCH  20  21
ENDBRANCH   3  20
BRANCH   6  24
HETATM   24  O2  UNK     1      17.992   7.373  10.579  1.00  0.00    -0.360 OA
HETATM   25  H14 UNK     1      18.518   6.559  10.664  1.00  0.00     0.217 HD
ENDBRANCH   6  24
TORSDOF 5
ENDMDL
MODEL 5
REMARK VINA RESULT:      -7.6     24.081     26.171
REMARK  5 active torsions:
REMARK  status: ('A' for Active; 'I' for Inactive)
REMARK    1  A    between atoms: C5_10  and  O2_2 
REMARK    2  A    between atoms: C14_19  and  O4_4 
REMARK    3  A    between atoms: C3_8  and  N1_5 
REMARK    4  A    between atoms: C1_6  and  C3_8 
REMARK    5  A    between atoms: C10_15  and  C6_11 
ROOT
HETATM    1  O1  UNK     1      18.281   3.707  33.831  1.00  0.00    -0.320 OA
HETATM    2  O3  UNK     1      18.517   0.035  32.066  1.00  0.00    -0.286 OA
HETATM    3  C1  UNK     1      18.512   4.791  31.746  1.00  0.00     0.038 A 
HETATM    4  C2  UNK     1      18.445   3.603  32.474  1.00  0.00     0.100 A 
HETATM    5  C4  UNK     1      18.543   2.376  31.818  1.00  0.00     0.050 A 
HETATM    6  C5  UNK     1      18.677   4.749  30.362  1.00  0.00     0.076 A 
HETATM    7  C6  UNK     1      18.307   1.290  34.078  1.00  0.00     0.050 A 
HETATM    8  C7  UNK     1      18.466   1.132  32.606  1.00  0.00     0.198 A 
HETATM    9  C8  UNK     1      18.709   2.331  30.431  1.00  0.00     0.021 A 
HETATM   10  C9  UNK     1      18.776   3.522  29.705  1.00  0.00     0.038 A 
HETATM   11  C11 UNK     1      18.231   2.542  34.557  1.00  0.00     0.159 A 
ENDROOT
BRANCH   7  12
HETATM   12  C10 UNK     1      18.255   0.132  34.985  1.00  0.00     0.013 A 
HETATM   13  C14 UNK     1      17.049  -0.294  35.548  1.00  0.00     0.079 A 
HETATM   14  C16 UNK     1      17.025  -1.395  36.405  1.00  0.00     0.037 A 
HETATM   15  C18 UNK     1      18.208  -2.073  36.702  1.00  0.00     0.003 A 
HETATM   16  C17 UNK     1      19.413  -1.651  36.143  1.00  0.00     0.001 A 
HETATM   17  C15 UNK     1      19.437  -0.551  35.286  1.00  0.00     0.015 A 
BRANCH  13  18
HETATM   18  O4  UNK     1      15.880   0.350  35.275  1.00  0.00    -0.355 OA
HETATM   19  C19 UNK     1      15.122   0.816  36.389  1.00  0.00     0.210 C 
ENDBRANCH  13  18
ENDBRANCH   7  12
BRANCH   3  20
HETATM   20  C3  UNK     1      18.407   6.112  32.441  1.00  0.00     0.315 C 
BRANCH  20  21
HETATM   21  N1  UNK     1      17.018   6.532  32.623  1.00  0.00     0.084 N 
HETATM   22  C12 UNK     1      16.707   7.662  31.750  1.00  0.00     0.309 C 
HETATM   23  C13 UNK     1      16.768   6.883  34.020  1.00  0.00     0.309 C 
ENDBRANCH  20  21
ENDBRANCH   3  20
BRANCH   6  24
HETATM   24  O2  UNK     1      18.746   5.898  29.631  1.00  0.00    -0.360 OA
HETATM   25  H14 UNK     1      17.845   6.174  29.387  1.00  0.00     0.217 HD
ENDBRANCH   6  24
TORSDOF 5
ENDMDL
MODEL 6
REMARK VINA RESULT:      -7.5      2.550      7.654
REMARK  5 active torsions:
REMARK  status: ('A' for Active; 'I' for Inactive)
REMARK    1  A    between atoms: C5_10  and  O2_2 
REMARK    2  A    between atoms: C14_19  and  O4_4 
REMARK    3  A    between atoms: C3_8  and  N1_5 
REMARK    4  A    between atoms: C1_6  and  C3_8 
REMARK    5  A    between atoms: C10_15  and  C6_11 
ROOT
HETATM    1  O1  UNK     1      10.839   7.750   9.554  1.00  0.00    -0.320 OA
HETATM    2  O3  UNK     1      13.662   6.812   6.760  1.00  0.00    -0.286 OA
HETATM    3  C1  UNK     1       9.093   7.203   8.061  1.00  0.00     0.038 A 
HETATM    4  C2  UNK     1      10.460   7.316   8.309  1.00  0.00     0.100 A 
HETATM    5  C4  UNK     1      11.380   6.993   7.312  1.00  0.00     0.050 A 
HETATM    6  C5  UNK     1       8.647   6.766   6.814  1.00  0.00     0.076 A 
HETATM    7  C6  UNK     1      13.189   7.608   8.954  1.00  0.00     0.050 A 
HETATM    8  C7  UNK     1      12.822   7.115   7.598  1.00  0.00     0.198 A 
HETATM    9  C8  UNK     1      10.937   6.554   6.061  1.00  0.00     0.021 A 
HETATM   10  C9  UNK     1       9.567   6.443   5.815  1.00  0.00     0.038 A 
HETATM   11  C11 UNK     1      12.184   7.881   9.801  1.00  0.00     0.159 A 
ENDROOT
BRANCH   7  12
HETATM   12  C10 UNK     1      14.590   7.813   9.355  1.00  0.00     0.013 A 
HETATM   13  C14 UNK     1      15.231   9.037   9.146  1.00  0.00     0.079 A 
HETATM   14  C16 UNK     1      16.560   9.208   9.535  1.00  0.00     0.037 A 
HETATM   15  C18 UNK     1      17.253   8.155  10.135  1.00  0.00     0.003 A 
HETATM   16  C17 UNK     1      16.616   6.932  10.345  1.00  0.00     0.001 A 
HETATM   17  C15 UNK     1      15.287   6.762   9.956  1.00  0.00     0.015 A 
BRANCH  13  18
HETATM   18  O4  UNK     1      14.579  10.082   8.562  1.00  0.00    -0.355 OA
HETATM   19  C19 UNK     1      15.351  11.244   8.270  1.00  0.00     0.210 C 
ENDBRANCH  13  18
ENDBRANCH   7  12
BRANCH   3  20
HETATM   20  C3  UNK     1       8.099   7.548   9.125  1.00  0.00     0.315 C 
BRANCH  20  21
HETATM   21  N1  UNK     1       7.957   6.480  10.115  1.00  0.00     0.084 N 
HETATM   22  C12 UNK     1       7.671   5.207   9.455  1.00  0.00     0.309 C 
HETATM   23  C13 UNK     1       6.900   6.807  11.072  1.00  0.00     0.309 C 
ENDBRANCH  20  21
ENDBRANCH   3  20
BRANCH   6  24
HETATM   24  O2  UNK     1       7.315   6.649   6.550  1.00  0.00    -0.360 OA
HETATM   25  H14 UNK     1       6.942   7.534   6.394  1.00  0.00     0.217 HD
ENDBRANCH   6  24
TORSDOF 5
ENDMDL
MODEL 7
REMARK VINA RESULT:      -7.5      2.769      7.268
REMARK  5 active torsions:
REMARK  status: ('A' for Active; 'I' for Inactive)
REMARK    1  A    between atoms: C5_10  and  O2_2 
REMARK    2  A    between atoms: C14_19  and  O4_4 
REMARK    3  A    between atoms: C3_8  and  N1_5 
REMARK    4  A    between atoms: C1_6  and  C3_8 
REMARK    5  A    between atoms: C10_15  and  C6_11 
ROOT
HETATM    1  O1  UNK     1       6.524   4.695   9.951  1.00  0.00    -0.320 OA
HETATM    2  O3  UNK     1       8.593   8.209   9.781  1.00  0.00    -0.286 OA
HETATM    3  C1  UNK     1       5.216   5.482  11.753  1.00  0.00     0.038 A 
HETATM    4  C2  UNK     1       6.237   5.708  10.830  1.00  0.00     0.100 A 
HETATM    5  C4  UNK     1       6.918   6.925  10.826  1.00  0.00     0.050 A 
HETATM    6  C5  UNK     1       4.880   6.475  12.673  1.00  0.00     0.076 A 
HETATM    7  C6  UNK     1       8.283   6.013   8.915  1.00  0.00     0.050 A 
HETATM    8  C7  UNK     1       7.991   7.144   9.838  1.00  0.00     0.198 A 
HETATM    9  C8  UNK     1       6.583   7.922  11.746  1.00  0.00     0.021 A 
HETATM   10  C9  UNK     1       5.561   7.693  12.670  1.00  0.00     0.038 A 
HETATM   11  C11 UNK     1       7.539   4.904   9.048  1.00  0.00     0.159 A 
ENDROOT
BRANCH   7  12
HETATM   12  C10 UNK     1       9.353   6.085   7.908  1.00  0.00     0.013 A 
HETATM   13  C14 UNK     1      10.689   5.864   8.254  1.00  0.00     0.079 A 
HETATM   14  C16 UNK     1      11.688   5.938   7.282  1.00  0.00     0.037 A 
HETATM   15  C18 UNK     1      11.353   6.235   5.960  1.00  0.00     0.003 A 
HETATM   16  C17 UNK     1      10.021   6.455   5.611  1.00  0.00     0.001 A 
HETATM   17  C15 UNK     1       9.024   6.381   6.583  1.00  0.00     0.015 A 
BRANCH  13  18
HETATM   18  O4  UNK     1      11.044   5.574   9.538  1.00  0.00    -0.355 OA
HETATM   19  C19 UNK     1      12.439   5.524   9.828  1.00  0.00     0.210 C 
ENDBRANCH  13  18
ENDBRANCH   7  12
BRANCH   3  20
HETATM   20  C3  UNK     1       4.480   4.180  11.765  1.00  0.00     0.315 C 
BRANCH  20  21
HETATM   21  N1  UNK     1       5.178   3.157  12.544  1.00  0.00     0.084 N 
HETATM   22  C12 UNK     1       5.563   2.037  11.686  1.00  0.00     0.309 C 
HETATM   23  C13 UNK     1       4.338   2.691  13.646  1.00  0.00     0.309 C 
ENDBRANCH  20  21
ENDBRANCH   3  20
BRANCH   6  24
HETATM   24  O2  UNK     1       3.886   6.275  13.584  1.00  0.00    -0.360 OA
HETATM   25  H14 UNK     1       4.112   6.741  14.408  1.00  0.00     0.217 HD
ENDBRANCH   6  24
TORSDOF 5
ENDMDL
MODEL 8
REMARK VINA RESULT:      -7.5     23.865     26.005
REMARK  5 active torsions:
REMARK  status: ('A' for Active; 'I' for Inactive)
REMARK    1  A    between atoms: C5_10  and  O2_2 
REMARK    2  A    between atoms: C14_19  and  O4_4 
REMARK    3  A    between atoms: C3_8  and  N1_5 
REMARK    4  A    between atoms: C1_6  and  C3_8 
REMARK    5  A    between atoms: C10_15  and  C6_11 
ROOT
HETATM    1  O1  UNK     1      18.311   3.539  34.194  1.00  0.00    -0.320 OA
HETATM    2  O3  UNK     1      18.463   5.925  30.887  1.00  0.00    -0.286 OA
HETATM    3  C1  UNK     1      18.491   1.591  32.872  1.00  0.00     0.038 A 
HETATM    4  C2  UNK     1      18.422   2.981  32.946  1.00  0.00     0.100 A 
HETATM    5  C4  UNK     1      18.467   3.746  31.781  1.00  0.00     0.050 A 
HETATM    6  C5  UNK     1      18.604   0.966  31.629  1.00  0.00     0.076 A 
HETATM    7  C6  UNK     1      18.258   5.778  33.254  1.00  0.00     0.050 A 
HETATM    8  C7  UNK     1      18.397   5.216  31.883  1.00  0.00     0.198 A 
HETATM    9  C8  UNK     1      18.581   3.124  30.534  1.00  0.00     0.021 A 
HETATM   10  C9  UNK     1      18.649   1.732  30.463  1.00  0.00     0.038 A 
HETATM   11  C11 UNK     1      18.226   4.908  34.275  1.00  0.00     0.159 A 
ENDROOT
BRANCH   7  12
HETATM   12  C10 UNK     1      18.138   7.225  33.494  1.00  0.00     0.013 A 
HETATM   13  C14 UNK     1      16.907   7.878  33.387  1.00  0.00     0.079 A 
HETATM   14  C16 UNK     1      16.818   9.251  33.620  1.00  0.00     0.037 A 
HETATM   15  C18 UNK     1      17.961   9.976  33.959  1.00  0.00     0.003 A 
HETATM   16  C17 UNK     1      19.191   9.329  34.067  1.00  0.00     0.001 A 
HETATM   17  C15 UNK     1      19.279   7.957  33.835  1.00  0.00     0.015 A 
BRANCH  13  18
HETATM   18  O4  UNK     1      15.775   7.194  33.056  1.00  0.00    -0.355 OA
HETATM   19  C19 UNK     1      14.599   7.487  33.807  1.00  0.00     0.210 C 
ENDBRANCH  13  18
ENDBRANCH   7  12
BRANCH   3  20
HETATM   20  C3  UNK     1      18.444   0.762  34.116  1.00  0.00     0.315 C 
BRANCH  20  21
HETATM   21  N1  UNK     1      17.083   0.616  34.631  1.00  0.00     0.084 N 
HETATM   22  C12 UNK     1      17.024   1.012  36.037  1.00  0.00     0.309 C 
HETATM   23  C13 UNK     1      16.619  -0.762  34.469  1.00  0.00     0.309 C 
ENDBRANCH  20  21
ENDBRANCH   3  20
BRANCH   6  24
HETATM   24  O2  UNK     1      18.673  -0.391  31.533  1.00  0.00    -0.360 OA
HETATM   25  H14 UNK     1      19.535  -0.691  31.870  1.00  0.00     0.217 HD
ENDBRANCH   6  24
TORSDOF 5
ENDMDL
MODEL 9
REMARK VINA RESULT:      -7.5     31.819     35.195
REMARK  5 active torsions:
REMARK  status: ('A' for Active; 'I' for Inactive)
REMARK    1  A    between atoms: C5_10  and  O2_2 
REMARK    2  A    between atoms: C14_19  and  O4_4 
REMARK    3  A    between atoms: C3_8  and  N1_5 
REMARK    4  A    between atoms: C1_6  and  C3_8 
REMARK    5  A    between atoms: C10_15  and  C6_11 
ROOT
HETATM    1  O1  UNK     1      31.341  -5.504  34.368  1.00  0.00    -0.320 OA
HETATM    2  O3  UNK     1      28.059  -7.758  35.267  1.00  0.00    -0.286 OA
HETATM    3  C1  UNK     1      31.898  -5.293  36.653  1.00  0.00     0.038 A 
HETATM    4  C2  UNK     1      31.038  -5.790  35.675  1.00  0.00     0.100 A 
HETATM    5  C4  UNK     1      29.924  -6.546  36.041  1.00  0.00     0.050 A 
HETATM    6  C5  UNK     1      31.641  -5.553  38.000  1.00  0.00     0.076 A 
HETATM    7  C6  UNK     1      29.385  -6.715  33.587  1.00  0.00     0.050 A 
HETATM    8  C7  UNK     1      29.030  -7.066  34.989  1.00  0.00     0.198 A 
HETATM    9  C8  UNK     1      29.664  -6.808  37.390  1.00  0.00     0.021 A 
HETATM   10  C9  UNK     1      30.527  -6.308  38.367  1.00  0.00     0.038 A 
HETATM   11  C11 UNK     1      30.489  -5.976  33.398  1.00  0.00     0.159 A 
ENDROOT
BRANCH   7  12
HETATM   12  C10 UNK     1      28.557  -7.136  32.445  1.00  0.00     0.013 A 
HETATM   13  C14 UNK     1      28.748  -8.376  31.830  1.00  0.00     0.079 A 
HETATM   14  C16 UNK     1      27.951  -8.754  30.749  1.00  0.00     0.037 A 
HETATM   15  C18 UNK     1      26.959  -7.892  30.280  1.00  0.00     0.003 A 
HETATM   16  C17 UNK     1      26.765  -6.654  30.891  1.00  0.00     0.001 A 
HETATM   17  C15 UNK     1      27.562  -6.277  31.971  1.00  0.00     0.015 A 
BRANCH  13  18
HETATM   18  O4  UNK     1      29.710  -9.237  32.268  1.00  0.00    -0.355 OA
HETATM   19  C19 UNK     1      29.268 -10.403  32.960  1.00  0.00     0.210 C 
ENDBRANCH  13  18
ENDBRANCH   7  12
BRANCH   3  20
HETATM   20  C3  UNK     1      33.095  -4.483  36.269  1.00  0.00     0.315 C 
BRANCH  20  21
HETATM   21  N1  UNK     1      34.128  -5.294  35.626  1.00  0.00     0.084 N 
HETATM   22  C12 UNK     1      35.139  -5.699  36.601  1.00  0.00     0.309 C 
HETATM   23  C13 UNK     1      34.747  -4.556  34.526  1.00  0.00     0.309 C 
ENDBRANCH  20  21
ENDBRANCH   3  20
BRANCH   6  24
HETATM   24  O2  UNK     1      32.468  -5.076  38.972  1.00  0.00    -0.360 OA
HETATM   25  H14 UNK     1      32.133  -5.359  39.841  1.00  0.00     0.217 HD
ENDBRANCH   6  24
TORSDOF 5
ENDMDL
MODEL 10
REMARK VINA RESULT:      -7.3      3.130      7.373
REMARK  5 active torsions:
REMARK  status: ('A' for Active; 'I' for Inactive)
REMARK    1  A    between atoms: C5_10  and  O2_2 
REMARK    2  A    between atoms: C14_19  and  O4_4 
REMARK    3  A    between atoms: C3_8  and  N1_5 
REMARK    4  A    between atoms: C1_6  and  C3_8 
REMARK    5  A    between atoms: C10_15  and  C6_11 
ROOT
HETATM    1  O1  UNK     1       7.445   7.608  10.855  1.00  0.00    -0.320 OA
HETATM    2  O3  UNK     1       7.631   4.057   8.854  1.00  0.00    -0.286 OA
HETATM    3  C1  UNK     1       5.709   6.807  12.240  1.00  0.00     0.038 A 
HETATM    4  C2  UNK     1       6.601   6.581  11.193  1.00  0.00     0.100 A 
HETATM    5  C4  UNK     1       6.613   5.351  10.537  1.00  0.00     0.050 A 
HETATM    6  C5  UNK     1       4.826   5.799  12.629  1.00  0.00     0.076 A 
HETATM    7  C6  UNK     1       8.452   6.280   9.089  1.00  0.00     0.050 A 
HETATM    8  C7  UNK     1       7.569   5.132   9.436  1.00  0.00     0.198 A 
HETATM    9  C8  UNK     1       5.730   4.338  10.925  1.00  0.00     0.021 A 
HETATM   10  C9  UNK     1       4.836   4.567  11.973  1.00  0.00     0.038 A 
HETATM   11  C11 UNK     1       8.317   7.401   9.814  1.00  0.00     0.159 A 
ENDROOT
BRANCH   7  12
HETATM   12  C10 UNK     1       9.424   6.209   7.986  1.00  0.00     0.013 A 
HETATM   13  C14 UNK     1      10.758   5.861   8.216  1.00  0.00     0.079 A 
HETATM   14  C16 UNK     1      11.661   5.800   7.154  1.00  0.00     0.037 A 
HETATM   15  C18 UNK     1      11.232   6.088   5.857  1.00  0.00     0.003 A 
HETATM   16  C17 UNK     1       9.902   6.435   5.623  1.00  0.00     0.001 A 
HETATM   17  C15 UNK     1       9.000   6.496   6.685  1.00  0.00     0.015 A 
BRANCH  13  18
HETATM   18  O4  UNK     1      11.203   5.576   9.473  1.00  0.00    -0.355 OA
HETATM   19  C19 UNK     1      12.613   5.608   9.682  1.00  0.00     0.210 C 
ENDBRANCH  13  18
ENDBRANCH   7  12
BRANCH   3  20
HETATM   20  C3  UNK     1       5.690   8.123  12.950  1.00  0.00     0.315 C 
BRANCH  20  21
HETATM   21  N1  UNK     1       4.830   9.099  12.281  1.00  0.00     0.084 N 
HETATM   22  C12 UNK     1       5.583  10.313  11.967  1.00  0.00     0.309 C 
HETATM   23  C13 UNK     1       3.672   9.418  13.114  1.00  0.00     0.309 C 
ENDBRANCH  20  21
ENDBRANCH   3  20
BRANCH   6  24
HETATM   24  O2  UNK     1       3.944   5.998  13.649  1.00  0.00    -0.360 OA
HETATM   25  H14 UNK     1       4.431   6.298  14.436  1.00  0.00     0.217 HD
ENDBRANCH   6  24
TORSDOF 5
ENDMDL
