MODEL 1
REMARK VINA RESULT:      -9.9      0.000      0.000
REMARK  4 active torsions:
REMARK  status: ('A' for Active; 'I' for Inactive)
REMARK    1  A    between atoms: C12_21  and  N2_7 
REMARK    2  A    between atoms: N2_7  and  N3_8 
REMARK    3  A    between atoms: C15_24  and  N4_9 
REMARK    4  A    between atoms: C13_22  and  C18_27 
ROOT
HETATM    1  S1  UNK     1      18.924  -2.342  37.057  1.00  0.00    -0.060 SA
HETATM    2  O1  UNK     1      20.769  -2.624  31.067  1.00  0.00    -0.274 OA
HETATM    3  O2  UNK     1      21.027  -4.002  32.864  1.00  0.00    -0.259 OA
HETATM    4  N1  UNK     1      20.712  -2.995  35.308  1.00  0.00    -0.222 NA
HETATM    5  C1  UNK     1      19.624  -0.501  31.314  1.00  0.00    -0.001 A 
HETATM    6  C2  UNK     1      19.922  -1.928  33.273  1.00  0.00     0.070 A 
HETATM    7  C3  UNK     1      20.280  -1.427  30.514  1.00  0.00     0.089 A 
HETATM    8  C4  UNK     1      19.461  -0.790  32.729  1.00  0.00     0.034 A 
HETATM    9  C5  UNK     1      19.767  -2.217  34.677  1.00  0.00     0.082 A 
HETATM   10  C6  UNK     1      19.149   0.677  30.732  1.00  0.00     0.014 A 
HETATM   11  C7  UNK     1      20.614  -2.937  32.416  1.00  0.00     0.301 A 
HETATM   12  C8  UNK     1      20.475  -1.213  29.151  1.00  0.00     0.038 A 
HETATM   13  C9  UNK     1      19.336   0.906  29.367  1.00  0.00     0.001 A 
HETATM   14  C10 UNK     1      19.998  -0.037  28.577  1.00  0.00     0.003 A 
HETATM   15  C11 UNK     1      18.724  -1.769  35.453  1.00  0.00     0.086 A 
HETATM   16  C12 UNK     1      20.370  -3.127  36.571  1.00  0.00     0.187 A 
ENDROOT
BRANCH  16  17
HETATM   17  N2  UNK     1      21.083  -3.835  37.487  1.00  0.00    -0.255 N 
HETATM   18  H9  UNK     1      21.508  -3.329  38.261  1.00  0.00     0.191 HD
BRANCH  17  19
HETATM   19  N3  UNK     1      21.266  -5.181  37.440  1.00  0.00    -0.184 NA
HETATM   20  C18 UNK     1      20.183  -5.857  37.231  1.00  0.00     0.150 C 
BRANCH  20  21
HETATM   21  C13 UNK     1      20.187  -7.329  37.148  1.00  0.00    -0.015 A 
HETATM   22  C14 UNK     1      21.113  -7.960  36.335  1.00  0.00     0.049 A 
HETATM   23  C15 UNK     1      21.117  -9.353  36.258  1.00  0.00     0.103 A 
HETATM   24  C17 UNK     1      20.195 -10.095  36.997  1.00  0.00     0.036 A 
HETATM   25  C19 UNK     1      19.269  -9.444  37.812  1.00  0.00     0.003 A 
HETATM   26  C16 UNK     1      19.265  -8.051  37.889  1.00  0.00     0.013 A 
BRANCH  23  27
HETATM   27  N4  UNK     1      22.059 -10.017  35.429  1.00  0.00    -0.116 N 
HETATM   28  O3  UNK     1      23.162 -10.363  35.917  1.00  0.00    -0.532 OA
HETATM   29  O4  UNK     1      21.764 -10.238  34.229  1.00  0.00    -0.532 OA
ENDBRANCH  23  27
ENDBRANCH  20  21
ENDBRANCH  17  19
ENDBRANCH  16  17
TORSDOF 4
ENDMDL
MODEL 2
REMARK VINA RESULT:      -9.7      3.516      4.419
REMARK  4 active torsions:
REMARK  status: ('A' for Active; 'I' for Inactive)
REMARK    1  A    between atoms: C12_21  and  N2_7 
REMARK    2  A    between atoms: N2_7  and  N3_8 
REMARK    3  A    between atoms: C15_24  and  N4_9 
REMARK    4  A    between atoms: C13_22  and  C18_27 
ROOT
HETATM    1  S1  UNK     1      18.068  -1.062  36.967  1.00  0.00    -0.060 SA
HETATM    2  O1  UNK     1      18.368   2.430  31.763  1.00  0.00    -0.274 OA
HETATM    3  O2  UNK     1      18.356   0.185  32.159  1.00  0.00    -0.259 OA
HETATM    4  N1  UNK     1      19.006  -0.693  34.587  1.00  0.00    -0.222 NA
HETATM    5  C1  UNK     1      18.334   3.993  33.616  1.00  0.00    -0.001 A 
HETATM    6  C2  UNK     1      18.368   1.596  34.082  1.00  0.00     0.070 A 
HETATM    7  C3  UNK     1      18.348   3.749  32.250  1.00  0.00     0.089 A 
HETATM    8  C4  UNK     1      18.348   2.863  34.529  1.00  0.00     0.034 A 
HETATM    9  C5  UNK     1      18.387   0.472  34.983  1.00  0.00     0.082 A 
HETATM   10  C6  UNK     1      18.312   5.316  34.065  1.00  0.00     0.014 A 
HETATM   11  C7  UNK     1      18.366   1.325  32.613  1.00  0.00     0.301 A 
HETATM   12  C8  UNK     1      18.339   4.785  31.318  1.00  0.00     0.038 A 
HETATM   13  C9  UNK     1      18.303   6.367  33.143  1.00  0.00     0.001 A 
HETATM   14  C10 UNK     1      18.317   6.102  31.772  1.00  0.00     0.003 A 
HETATM   15  C11 UNK     1      17.820   0.469  36.236  1.00  0.00     0.086 A 
HETATM   16  C12 UNK     1      18.900  -1.574  35.556  1.00  0.00     0.187 A 
ENDROOT
BRANCH  16  17
HETATM   17  N2  UNK     1      19.403  -2.836  35.502  1.00  0.00    -0.255 N 
HETATM   18  H9  UNK     1      19.396  -3.319  34.607  1.00  0.00     0.191 HD
BRANCH  17  19
HETATM   19  N3  UNK     1      19.917  -3.501  36.571  1.00  0.00    -0.184 NA
HETATM   20  C18 UNK     1      19.853  -4.789  36.477  1.00  0.00     0.150 C 
BRANCH  20  21
HETATM   21  C13 UNK     1      20.361  -5.675  37.539  1.00  0.00    -0.015 A 
HETATM   22  C14 UNK     1      21.722  -5.717  37.795  1.00  0.00     0.049 A 
HETATM   23  C15 UNK     1      22.202  -6.555  38.802  1.00  0.00     0.103 A 
HETATM   24  C17 UNK     1      21.314  -7.338  39.539  1.00  0.00     0.036 A 
HETATM   25  C19 UNK     1      19.947  -7.284  39.270  1.00  0.00     0.003 A 
HETATM   26  C16 UNK     1      19.467  -6.446  38.263  1.00  0.00     0.013 A 
BRANCH  23  27
HETATM   27  N4  UNK     1      23.593  -6.610  39.077  1.00  0.00    -0.116 N 
HETATM   28  O3  UNK     1      24.273  -5.559  38.990  1.00  0.00    -0.532 OA
HETATM   29  O4  UNK     1      24.106  -7.709  39.399  1.00  0.00    -0.532 OA
ENDBRANCH  23  27
ENDBRANCH  20  21
ENDBRANCH  17  19
ENDBRANCH  16  17
TORSDOF 4
ENDMDL
MODEL 3
REMARK VINA RESULT:      -9.7      2.876      3.570
REMARK  4 active torsions:
REMARK  status: ('A' for Active; 'I' for Inactive)
REMARK    1  A    between atoms: C12_21  and  N2_7 
REMARK    2  A    between atoms: N2_7  and  N3_8 
REMARK    3  A    between atoms: C15_24  and  N4_9 
REMARK    4  A    between atoms: C13_22  and  C18_27 
ROOT
HETATM    1  S1  UNK     1      18.260  -1.740  36.948  1.00  0.00    -0.060 SA
HETATM    2  O1  UNK     1      18.508   1.683  31.696  1.00  0.00    -0.274 OA
HETATM    3  O2  UNK     1      18.676  -0.547  32.135  1.00  0.00    -0.259 OA
HETATM    4  N1  UNK     1      19.279  -1.325  34.609  1.00  0.00    -0.222 NA
HETATM    5  C1  UNK     1      18.242   3.267  33.514  1.00  0.00    -0.001 A 
HETATM    6  C2  UNK     1      18.466   0.890  34.028  1.00  0.00     0.070 A 
HETATM    7  C3  UNK     1      18.345   3.003  32.154  1.00  0.00     0.089 A 
HETATM    8  C4  UNK     1      18.310   2.156  34.448  1.00  0.00     0.034 A 
HETATM    9  C5  UNK     1      18.540  -0.215  34.952  1.00  0.00     0.082 A 
HETATM   10  C6  UNK     1      18.079   4.589  33.934  1.00  0.00     0.014 A 
HETATM   11  C7  UNK     1      18.561   0.597  32.566  1.00  0.00     0.301 A 
HETATM   12  C8  UNK     1      18.291   4.020  31.203  1.00  0.00     0.038 A 
HETATM   13  C9  UNK     1      18.022   5.620  32.992  1.00  0.00     0.001 A 
HETATM   14  C10 UNK     1      18.129   5.336  31.629  1.00  0.00     0.003 A 
HETATM   15  C11 UNK     1      17.914  -0.248  36.175  1.00  0.00     0.086 A 
HETATM   16  C12 UNK     1      19.204  -2.197  35.590  1.00  0.00     0.187 A 
ENDROOT
BRANCH  16  17
HETATM   17  N2  UNK     1      19.819  -3.409  35.585  1.00  0.00    -0.255 N 
HETATM   18  H9  UNK     1      20.342  -3.681  34.756  1.00  0.00     0.191 HD
BRANCH  17  19
HETATM   19  N3  UNK     1      19.782  -4.288  36.621  1.00  0.00    -0.184 NA
HETATM   20  C18 UNK     1      20.016  -5.516  36.285  1.00  0.00     0.150 C 
BRANCH  20  21
HETATM   21  C13 UNK     1      20.017  -6.608  37.274  1.00  0.00    -0.015 A 
HETATM   22  C14 UNK     1      20.058  -7.921  36.835  1.00  0.00     0.049 A 
HETATM   23  C15 UNK     1      20.061  -8.955  37.772  1.00  0.00     0.103 A 
HETATM   24  C17 UNK     1      20.025  -8.660  39.135  1.00  0.00     0.036 A 
HETATM   25  C19 UNK     1      19.983  -7.333  39.561  1.00  0.00     0.003 A 
HETATM   26  C16 UNK     1      19.981  -6.300  38.624  1.00  0.00     0.013 A 
BRANCH  23  27
HETATM   27  N4  UNK     1      20.103 -10.306  37.339  1.00  0.00    -0.116 N 
HETATM   28  O3  UNK     1      20.931 -10.637  36.456  1.00  0.00    -0.532 OA
HETATM   29  O4  UNK     1      19.310 -11.133  37.851  1.00  0.00    -0.532 OA
ENDBRANCH  23  27
ENDBRANCH  20  21
ENDBRANCH  17  19
ENDBRANCH  16  17
TORSDOF 4
ENDMDL
MODEL 4
REMARK VINA RESULT:      -9.7      8.237     11.303
REMARK  4 active torsions:
REMARK  status: ('A' for Active; 'I' for Inactive)
REMARK    1  A    between atoms: C12_21  and  N2_7 
REMARK    2  A    between atoms: N2_7  and  N3_8 
REMARK    3  A    between atoms: C15_24  and  N4_9 
REMARK    4  A    between atoms: C13_22  and  C18_27 
ROOT
HETATM    1  S1  UNK     1      19.597   5.336  32.464  1.00  0.00    -0.060 SA
HETATM    2  O1  UNK     1      15.373   9.385  34.728  1.00  0.00    -0.274 OA
HETATM    3  O2  UNK     1      15.353   7.140  34.334  1.00  0.00    -0.259 OA
HETATM    4  N1  UNK     1      17.140   6.119  32.645  1.00  0.00    -0.222 NA
HETATM    5  C1  UNK     1      17.325  10.705  34.156  1.00  0.00    -0.001 A 
HETATM    6  C2  UNK     1      17.325   8.311  33.676  1.00  0.00     0.070 A 
HETATM    7  C3  UNK     1      16.044  10.620  34.685  1.00  0.00     0.089 A 
HETATM    8  C4  UNK     1      17.952   9.499  33.644  1.00  0.00     0.034 A 
HETATM    9  C5  UNK     1      17.940   7.112  33.164  1.00  0.00     0.082 A 
HETATM   10  C6  UNK     1      17.964  11.947  34.132  1.00  0.00     0.014 A 
HETATM   11  C7  UNK     1      15.953   8.208  34.259  1.00  0.00     0.301 A 
HETATM   12  C8  UNK     1      15.383  11.737  35.191  1.00  0.00     0.038 A 
HETATM   13  C9  UNK     1      17.314  13.077  34.636  1.00  0.00     0.001 A 
HETATM   14  C10 UNK     1      16.025  12.973  35.164  1.00  0.00     0.003 A 
HETATM   15  C11 UNK     1      19.295   6.876  33.156  1.00  0.00     0.086 A 
HETATM   16  C12 UNK     1      17.908   5.130  32.243  1.00  0.00     0.187 A 
ENDROOT
BRANCH  16  17
HETATM   17  N2  UNK     1      17.446   3.984  31.676  1.00  0.00    -0.255 N 
HETATM   18  H9  UNK     1      16.540   4.006  31.214  1.00  0.00     0.191 HD
BRANCH  17  19
HETATM   19  N3  UNK     1      18.119   2.802  31.686  1.00  0.00    -0.184 NA
HETATM   20  C18 UNK     1      18.351   2.314  30.510  1.00  0.00     0.150 C 
BRANCH  20  21
HETATM   21  C13 UNK     1      19.068   1.040  30.323  1.00  0.00    -0.015 A 
HETATM   22  C14 UNK     1      19.285   0.216  31.415  1.00  0.00     0.049 A 
HETATM   23  C15 UNK     1      19.962  -0.990  31.236  1.00  0.00     0.103 A 
HETATM   24  C17 UNK     1      20.413  -1.355  29.967  1.00  0.00     0.036 A 
HETATM   25  C19 UNK     1      20.187  -0.515  28.878  1.00  0.00     0.003 A 
HETATM   26  C16 UNK     1      19.509   0.692  29.057  1.00  0.00     0.013 A 
BRANCH  23  27
HETATM   27  N4  UNK     1      20.193  -1.846  32.345  1.00  0.00    -0.116 N 
HETATM   28  O3  UNK     1      20.975  -2.819  32.210  1.00  0.00    -0.532 OA
HETATM   29  O4  UNK     1      19.609  -1.608  33.429  1.00  0.00    -0.532 OA
ENDBRANCH  23  27
ENDBRANCH  20  21
ENDBRANCH  17  19
ENDBRANCH  16  17
TORSDOF 4
ENDMDL
MODEL 5
REMARK VINA RESULT:      -9.7      6.260     11.814
REMARK  4 active torsions:
REMARK  status: ('A' for Active; 'I' for Inactive)
REMARK    1  A    between atoms: C12_21  and  N2_7 
REMARK    2  A    between atoms: N2_7  and  N3_8 
REMARK    3  A    between atoms: C15_24  and  N4_9 
REMARK    4  A    between atoms: C13_22  and  C18_27 
ROOT
HETATM    1  S1  UNK     1      19.562   0.356  29.489  1.00  0.00    -0.060 SA
HETATM    2  O1  UNK     1      17.726  -0.162  35.466  1.00  0.00    -0.274 OA
HETATM    3  O2  UNK     1      17.145   1.222  33.751  1.00  0.00    -0.259 OA
HETATM    4  N1  UNK     1      18.811   1.482  31.691  1.00  0.00    -0.222 NA
HETATM    5  C1  UNK     1      19.463  -1.826  35.154  1.00  0.00    -0.001 A 
HETATM    6  C2  UNK     1      18.901  -0.331  33.307  1.00  0.00     0.070 A 
HETATM    7  C3  UNK     1      18.509  -1.221  35.961  1.00  0.00     0.089 A 
HETATM    8  C4  UNK     1      19.639  -1.341  33.796  1.00  0.00     0.034 A 
HETATM    9  C5  UNK     1      19.075   0.158  31.962  1.00  0.00     0.082 A 
HETATM   10  C6  UNK     1      20.221  -2.877  35.677  1.00  0.00     0.014 A 
HETATM   11  C7  UNK     1      17.861   0.314  34.164  1.00  0.00     0.301 A 
HETATM   12  C8  UNK     1      18.290  -1.633  37.274  1.00  0.00     0.038 A 
HETATM   13  C9  UNK     1      20.013  -3.302  36.992  1.00  0.00     0.001 A 
HETATM   14  C10 UNK     1      19.050  -2.681  37.789  1.00  0.00     0.003 A 
HETATM   15  C11 UNK     1      19.491  -0.613  30.903  1.00  0.00     0.086 A 
HETATM   16  C12 UNK     1      19.035   1.701  30.415  1.00  0.00     0.187 A 
ENDROOT
BRANCH  16  17
HETATM   17  N2  UNK     1      18.875   2.906  29.805  1.00  0.00    -0.255 N 
HETATM   18  H9  UNK     1      19.086   2.974  28.812  1.00  0.00     0.191 HD
BRANCH  17  19
HETATM   19  N3  UNK     1      18.450   4.032  30.437  1.00  0.00    -0.184 NA
HETATM   20  C18 UNK     1      19.358   4.614  31.152  1.00  0.00     0.150 C 
BRANCH  20  21
HETATM   21  C13 UNK     1      19.081   5.848  31.909  1.00  0.00    -0.015 A 
HETATM   22  C14 UNK     1      17.947   6.585  31.614  1.00  0.00     0.049 A 
HETATM   23  C15 UNK     1      17.685   7.752  32.332  1.00  0.00     0.103 A 
HETATM   24  C17 UNK     1      18.561   8.164  33.336  1.00  0.00     0.036 A 
HETATM   25  C19 UNK     1      19.699   7.411  33.621  1.00  0.00     0.003 A 
HETATM   26  C16 UNK     1      19.961   6.244  32.903  1.00  0.00     0.013 A 
BRANCH  23  27
HETATM   27  N4  UNK     1      16.526   8.520  32.042  1.00  0.00    -0.116 N 
HETATM   28  O3  UNK     1      15.997   8.419  30.909  1.00  0.00    -0.532 OA
HETATM   29  O4  UNK     1      16.063   9.280  32.927  1.00  0.00    -0.532 OA
ENDBRANCH  23  27
ENDBRANCH  20  21
ENDBRANCH  17  19
ENDBRANCH  16  17
TORSDOF 4
ENDMDL
MODEL 6
REMARK VINA RESULT:      -9.7      2.711      9.812
REMARK  4 active torsions:
REMARK  status: ('A' for Active; 'I' for Inactive)
REMARK    1  A    between atoms: C12_21  and  N2_7 
REMARK    2  A    between atoms: N2_7  and  N3_8 
REMARK    3  A    between atoms: C15_24  and  N4_9 
REMARK    4  A    between atoms: C13_22  and  C18_27 
ROOT
HETATM    1  S1  UNK     1      20.847  -2.606  36.899  1.00  0.00    -0.060 SA
HETATM    2  O1  UNK     1      19.363  -8.619  35.895  1.00  0.00    -0.274 OA
HETATM    3  O2  UNK     1      19.426  -6.767  34.568  1.00  0.00    -0.259 OA
HETATM    4  N1  UNK     1      19.368  -4.365  35.715  1.00  0.00    -0.222 NA
HETATM    5  C1  UNK     1      19.877  -8.443  38.258  1.00  0.00    -0.001 A 
HETATM    6  C2  UNK     1      19.909  -6.428  36.879  1.00  0.00     0.070 A 
HETATM    7  C3  UNK     1      19.527  -9.215  37.158  1.00  0.00     0.089 A 
HETATM    8  C4  UNK     1      20.062  -7.013  38.078  1.00  0.00     0.034 A 
HETATM    9  C5  UNK     1      20.087  -5.009  36.697  1.00  0.00     0.082 A 
HETATM   10  C6  UNK     1      20.033  -9.067  39.498  1.00  0.00     0.014 A 
HETATM   11  C7  UNK     1      19.550  -7.254  35.688  1.00  0.00     0.301 A 
HETATM   12  C8  UNK     1      19.330 -10.591  37.259  1.00  0.00     0.038 A 
HETATM   13  C9  UNK     1      19.840 -10.446  39.615  1.00  0.00     0.001 A 
HETATM   14  C10 UNK     1      19.488 -11.207  38.498  1.00  0.00     0.003 A 
HETATM   15  C11 UNK     1      20.940  -4.230  37.443  1.00  0.00     0.086 A 
HETATM   16  C12 UNK     1      19.688  -3.090  35.729  1.00  0.00     0.187 A 
ENDROOT
BRANCH  16  17
HETATM   17  N2  UNK     1      19.162  -2.159  34.889  1.00  0.00    -0.255 N 
HETATM   18  H9  UNK     1      18.287  -1.713  35.153  1.00  0.00     0.191 HD
BRANCH  17  19
HETATM   19  N3  UNK     1      19.732  -1.782  33.714  1.00  0.00    -0.184 NA
HETATM   20  C18 UNK     1      18.909  -1.242  32.874  1.00  0.00     0.150 C 
BRANCH  20  21
HETATM   21  C13 UNK     1      19.346  -0.771  31.548  1.00  0.00    -0.015 A 
HETATM   22  C14 UNK     1      18.858   0.429  31.059  1.00  0.00     0.049 A 
HETATM   23  C15 UNK     1      19.273   0.874  29.804  1.00  0.00     0.103 A 
HETATM   24  C17 UNK     1      20.173   0.114  29.056  1.00  0.00     0.036 A 
HETATM   25  C19 UNK     1      20.655  -1.092  29.563  1.00  0.00     0.003 A 
HETATM   26  C16 UNK     1      20.240  -1.538  30.818  1.00  0.00     0.013 A 
BRANCH  23  27
HETATM   27  N4  UNK     1      18.782   2.102  29.287  1.00  0.00    -0.116 N 
HETATM   28  O3  UNK     1      18.167   2.099  28.193  1.00  0.00    -0.532 OA
HETATM   29  O4  UNK     1      18.976   3.157  29.938  1.00  0.00    -0.532 OA
ENDBRANCH  23  27
ENDBRANCH  20  21
ENDBRANCH  17  19
ENDBRANCH  16  17
TORSDOF 4
ENDMDL
MODEL 7
REMARK VINA RESULT:      -9.5      2.545      3.290
REMARK  4 active torsions:
REMARK  status: ('A' for Active; 'I' for Inactive)
REMARK    1  A    between atoms: C12_21  and  N2_7 
REMARK    2  A    between atoms: N2_7  and  N3_8 
REMARK    3  A    between atoms: C15_24  and  N4_9 
REMARK    4  A    between atoms: C13_22  and  C18_27 
ROOT
HETATM    1  S1  UNK     1      17.531  -0.348  37.547  1.00  0.00    -0.060 SA
HETATM    2  O1  UNK     1      18.704   0.851  31.501  1.00  0.00    -0.274 OA
HETATM    3  O2  UNK     1      18.621  -1.058  32.744  1.00  0.00    -0.259 OA
HETATM    4  N1  UNK     1      18.854  -0.877  35.390  1.00  0.00    -0.222 NA
HETATM    5  C1  UNK     1      18.365   3.008  32.557  1.00  0.00    -0.001 A 
HETATM    6  C2  UNK     1      18.315   0.989  33.930  1.00  0.00     0.070 A 
HETATM    7  C3  UNK     1      18.606   2.251  31.417  1.00  0.00     0.089 A 
HETATM    8  C4  UNK     1      18.224   2.325  33.831  1.00  0.00     0.034 A 
HETATM    9  C5  UNK     1      18.181   0.308  35.193  1.00  0.00     0.082 A 
HETATM   10  C6  UNK     1      18.271   4.396  32.437  1.00  0.00     0.014 A 
HETATM   11  C7  UNK     1      18.557   0.167  32.706  1.00  0.00     0.301 A 
HETATM   12  C8  UNK     1      18.756   2.840  30.163  1.00  0.00     0.038 A 
HETATM   13  C9  UNK     1      18.419   5.001  31.186  1.00  0.00     0.001 A 
HETATM   14  C10 UNK     1      18.661   4.225  30.051  1.00  0.00     0.003 A 
HETATM   15  C11 UNK     1      17.413   0.758  36.241  1.00  0.00     0.086 A 
HETATM   16  C12 UNK     1      18.586  -1.316  36.599  1.00  0.00     0.187 A 
ENDROOT
BRANCH  16  17
HETATM   17  N2  UNK     1      19.087  -2.464  37.127  1.00  0.00    -0.255 N 
HETATM   18  H9  UNK     1      19.080  -2.573  38.138  1.00  0.00     0.191 HD
BRANCH  17  19
HETATM   19  N3  UNK     1      19.601  -3.484  36.388  1.00  0.00    -0.184 NA
HETATM   20  C18 UNK     1      19.610  -4.627  36.994  1.00  0.00     0.150 C 
BRANCH  20  21
HETATM   21  C13 UNK     1      20.130  -5.846  36.351  1.00  0.00    -0.015 A 
HETATM   22  C14 UNK     1      20.944  -6.701  37.075  1.00  0.00     0.049 A 
HETATM   23  C15 UNK     1      21.434  -7.856  36.465  1.00  0.00     0.103 A 
HETATM   24  C17 UNK     1      21.102  -8.140  35.140  1.00  0.00     0.036 A 
HETATM   25  C19 UNK     1      20.281  -7.269  34.425  1.00  0.00     0.003 A 
HETATM   26  C16 UNK     1      19.790  -6.114  35.035  1.00  0.00     0.013 A 
BRANCH  23  27
HETATM   27  N4  UNK     1      22.271  -8.743  37.192  1.00  0.00    -0.116 N 
HETATM   28  O3  UNK     1      23.488  -8.466  37.318  1.00  0.00    -0.532 OA
HETATM   29  O4  UNK     1      21.770  -9.781  37.689  1.00  0.00    -0.532 OA
ENDBRANCH  23  27
ENDBRANCH  20  21
ENDBRANCH  17  19
ENDBRANCH  16  17
TORSDOF 4
ENDMDL
MODEL 8
REMARK VINA RESULT:      -9.4      7.572      9.706
REMARK  4 active torsions:
REMARK  status: ('A' for Active; 'I' for Inactive)
REMARK    1  A    between atoms: C12_21  and  N2_7 
REMARK    2  A    between atoms: N2_7  and  N3_8 
REMARK    3  A    between atoms: C15_24  and  N4_9 
REMARK    4  A    between atoms: C13_22  and  C18_27 
ROOT
HETATM    1  S1  UNK     1      27.506  -9.836  39.171  1.00  0.00    -0.060 SA
HETATM    2  O1  UNK     1      29.798  -4.145  37.859  1.00  0.00    -0.274 OA
HETATM    3  O2  UNK     1      27.971  -4.885  39.004  1.00  0.00    -0.259 OA
HETATM    4  N1  UNK     1      27.094  -7.358  38.559  1.00  0.00    -0.222 NA
HETATM    5  C1  UNK     1      31.277  -5.728  36.771  1.00  0.00    -0.001 A 
HETATM    6  C2  UNK     1      29.305  -6.557  37.948  1.00  0.00     0.070 A 
HETATM    7  C3  UNK     1      30.949  -4.420  37.099  1.00  0.00     0.089 A 
HETATM    8  C4  UNK     1      30.408  -6.801  37.222  1.00  0.00     0.034 A 
HETATM    9  C5  UNK     1      28.436  -7.618  38.393  1.00  0.00     0.082 A 
HETATM   10  C6  UNK     1      32.429  -5.966  36.016  1.00  0.00     0.014 A 
HETATM   11  C7  UNK     1      28.954  -5.153  38.319  1.00  0.00     0.301 A 
HETATM   12  C8  UNK     1      31.735  -3.342  36.697  1.00  0.00     0.038 A 
HETATM   13  C9  UNK     1      33.228  -4.896  35.606  1.00  0.00     0.001 A 
HETATM   14  C10 UNK     1      32.882  -3.586  35.945  1.00  0.00     0.003 A 
HETATM   15  C11 UNK     1      28.853  -8.898  38.674  1.00  0.00     0.086 A 
HETATM   16  C12 UNK     1      26.502  -8.459  38.967  1.00  0.00     0.187 A 
ENDROOT
BRANCH  16  17
HETATM   17  N2  UNK     1      25.172  -8.561  39.230  1.00  0.00    -0.255 N 
HETATM   18  H9  UNK     1      24.883  -9.075  40.059  1.00  0.00     0.191 HD
BRANCH  17  19
HETATM   19  N3  UNK     1      24.196  -8.020  38.454  1.00  0.00    -0.184 NA
HETATM   20  C18 UNK     1      23.016  -8.056  38.982  1.00  0.00     0.150 C 
BRANCH  20  21
HETATM   21  C13 UNK     1      21.834  -7.516  38.288  1.00  0.00    -0.015 A 
HETATM   22  C14 UNK     1      21.674  -7.756  36.933  1.00  0.00     0.049 A 
HETATM   23  C15 UNK     1      20.554  -7.246  36.277  1.00  0.00     0.103 A 
HETATM   24  C17 UNK     1      19.609  -6.503  36.985  1.00  0.00     0.036 A 
HETATM   25  C19 UNK     1      19.785  -6.269  38.348  1.00  0.00     0.003 A 
HETATM   26  C16 UNK     1      20.905  -6.779  39.004  1.00  0.00     0.013 A 
BRANCH  23  27
HETATM   27  N4  UNK     1      20.374  -7.483  34.889  1.00  0.00    -0.116 N 
HETATM   28  O3  UNK     1      21.230  -8.162  34.271  1.00  0.00    -0.532 OA
HETATM   29  O4  UNK     1      19.364  -7.007  34.316  1.00  0.00    -0.532 OA
ENDBRANCH  23  27
ENDBRANCH  20  21
ENDBRANCH  17  19
ENDBRANCH  16  17
TORSDOF 4
ENDMDL
MODEL 9
REMARK VINA RESULT:      -9.4      7.294      9.479
REMARK  4 active torsions:
REMARK  status: ('A' for Active; 'I' for Inactive)
REMARK    1  A    between atoms: C12_21  and  N2_7 
REMARK    2  A    between atoms: N2_7  and  N3_8 
REMARK    3  A    between atoms: C15_24  and  N4_9 
REMARK    4  A    between atoms: C13_22  and  C18_27 
ROOT
HETATM    1  S1  UNK     1      26.922  -9.747  38.974  1.00  0.00    -0.060 SA
HETATM    2  O1  UNK     1      29.529  -4.131  37.964  1.00  0.00    -0.274 OA
HETATM    3  O2  UNK     1      27.656  -4.826  39.060  1.00  0.00    -0.259 OA
HETATM    4  N1  UNK     1      26.650  -7.223  38.486  1.00  0.00    -0.222 NA
HETATM    5  C1  UNK     1      30.929  -5.736  36.805  1.00  0.00    -0.001 A 
HETATM    6  C2  UNK     1      28.905  -6.514  37.928  1.00  0.00     0.070 A 
HETATM    7  C3  UNK     1      30.669  -4.429  37.197  1.00  0.00     0.089 A 
HETATM    8  C4  UNK     1      30.000  -6.781  37.196  1.00  0.00     0.034 A 
HETATM    9  C5  UNK     1      27.977  -7.547  38.314  1.00  0.00     0.082 A 
HETATM   10  C6  UNK     1      32.072  -5.997  36.045  1.00  0.00     0.014 A 
HETATM   11  C7  UNK     1      28.628  -5.113  38.368  1.00  0.00     0.301 A 
HETATM   12  C8  UNK     1      31.516  -3.377  36.854  1.00  0.00     0.038 A 
HETATM   13  C9  UNK     1      32.932  -4.953  35.694  1.00  0.00     0.001 A 
HETATM   14  C10 UNK     1      32.654  -3.645  36.097  1.00  0.00     0.003 A 
HETATM   15  C11 UNK     1      28.322  -8.860  38.532  1.00  0.00     0.086 A 
HETATM   16  C12 UNK     1      25.996  -8.309  38.835  1.00  0.00     0.187 A 
ENDROOT
BRANCH  16  17
HETATM   17  N2  UNK     1      24.660  -8.352  39.085  1.00  0.00    -0.255 N 
HETATM   18  H9  UNK     1      24.354  -8.495  40.045  1.00  0.00     0.191 HD
BRANCH  17  19
HETATM   19  N3  UNK     1      23.700  -8.216  38.133  1.00  0.00    -0.184 NA
HETATM   20  C18 UNK     1      22.494  -8.394  38.565  1.00  0.00     0.150 C 
BRANCH  20  21
HETATM   21  C13 UNK     1      21.323  -8.286  37.677  1.00  0.00    -0.015 A 
HETATM   22  C14 UNK     1      21.431  -7.571  36.496  1.00  0.00     0.049 A 
HETATM   23  C15 UNK     1      20.322  -7.470  35.655  1.00  0.00     0.103 A 
HETATM   24  C17 UNK     1      19.122  -8.089  36.006  1.00  0.00     0.036 A 
HETATM   25  C19 UNK     1      19.030  -8.805  37.199  1.00  0.00     0.003 A 
HETATM   26  C16 UNK     1      20.138  -8.905  38.040  1.00  0.00     0.013 A 
BRANCH  23  27
HETATM   27  N4  UNK     1      20.415  -6.741  34.440  1.00  0.00    -0.116 N 
HETATM   28  O3  UNK     1      20.220  -5.501  34.459  1.00  0.00    -0.532 OA
HETATM   29  O4  UNK     1      20.690  -7.355  33.381  1.00  0.00    -0.532 OA
ENDBRANCH  23  27
ENDBRANCH  20  21
ENDBRANCH  17  19
ENDBRANCH  16  17
TORSDOF 4
ENDMDL
MODEL 10
REMARK VINA RESULT:      -9.3      3.976      9.737
REMARK  4 active torsions:
REMARK  status: ('A' for Active; 'I' for Inactive)
REMARK    1  A    between atoms: C12_21  and  N2_7 
REMARK    2  A    between atoms: N2_7  and  N3_8 
REMARK    3  A    between atoms: C15_24  and  N4_9 
REMARK    4  A    between atoms: C13_22  and  C18_27 
ROOT
HETATM    1  S1  UNK     1      17.526   0.730  37.928  1.00  0.00    -0.060 SA
HETATM    2  O1  UNK     1      20.467  -4.076  35.166  1.00  0.00    -0.274 OA
HETATM    3  O2  UNK     1      20.727  -1.813  35.089  1.00  0.00    -0.259 OA
HETATM    4  N1  UNK     1      18.700  -0.263  35.849  1.00  0.00    -0.222 NA
HETATM    5  C1  UNK     1      18.683  -5.053  36.486  1.00  0.00    -0.001 A 
HETATM    6  C2  UNK     1      18.899  -2.623  36.391  1.00  0.00     0.070 A 
HETATM    7  C3  UNK     1      19.781  -5.204  35.650  1.00  0.00     0.089 A 
HETATM    8  C4  UNK     1      18.256  -3.712  36.844  1.00  0.00     0.034 A 
HETATM    9  C5  UNK     1      18.476  -1.289  36.739  1.00  0.00     0.082 A 
HETATM   10  C6  UNK     1      18.026  -6.196  36.949  1.00  0.00     0.014 A 
HETATM   11  C7  UNK     1      20.092  -2.777  35.505  1.00  0.00     0.301 A 
HETATM   12  C8  UNK     1      20.243  -6.461  35.263  1.00  0.00     0.038 A 
HETATM   13  C9  UNK     1      18.477  -7.463  36.571  1.00  0.00     0.001 A 
HETATM   14  C10 UNK     1      19.583  -7.596  35.729  1.00  0.00     0.003 A 
HETATM   15  C11 UNK     1      17.855  -0.954  37.919  1.00  0.00     0.086 A 
HETATM   16  C12 UNK     1      18.238   0.852  36.371  1.00  0.00     0.187 A 
ENDROOT
BRANCH  16  17
HETATM   17  N2  UNK     1      18.293   2.065  35.759  1.00  0.00    -0.255 N 
HETATM   18  H9  UNK     1      18.106   2.895  36.317  1.00  0.00     0.191 HD
BRANCH  17  19
HETATM   19  N3  UNK     1      18.582   2.244  34.443  1.00  0.00    -0.184 NA
HETATM   20  C18 UNK     1      18.171   3.371  33.957  1.00  0.00     0.150 C 
BRANCH  20  21
HETATM   21  C13 UNK     1      18.394   3.740  32.548  1.00  0.00    -0.015 A 
HETATM   22  C14 UNK     1      18.365   2.754  31.575  1.00  0.00     0.049 A 
HETATM   23  C15 UNK     1      18.575   3.105  30.242  1.00  0.00     0.103 A 
HETATM   24  C17 UNK     1      18.809   4.437  29.899  1.00  0.00     0.036 A 
HETATM   25  C19 UNK     1      18.835   5.418  30.891  1.00  0.00     0.003 A 
HETATM   26  C16 UNK     1      18.625   5.067  32.224  1.00  0.00     0.013 A 
BRANCH  23  27
HETATM   27  N4  UNK     1      18.549   2.108  29.232  1.00  0.00    -0.116 N 
HETATM   28  O3  UNK     1      17.984   2.361  28.140  1.00  0.00    -0.532 OA
HETATM   29  O4  UNK     1      19.091   0.999  29.459  1.00  0.00    -0.532 OA
ENDBRANCH  23  27
ENDBRANCH  20  21
ENDBRANCH  17  19
ENDBRANCH  16  17
TORSDOF 4
ENDMDL
