MODEL 1
REMARK VINA RESULT:      -8.6      0.000      0.000
REMARK  4 active torsions:
REMARK  status: ('A' for Active; 'I' for Inactive)
REMARK    1  A    between atoms: C14_20  and  O4_4 
REMARK    2  A    between atoms: C5_11  and  N1_6 
REMARK       I    between atoms: C6_12  and  N1_6 
REMARK    3  A    between atoms: C1_7  and  C5_11 
REMARK    4  A    between atoms: C6_12  and  C7_13 
ROOT
HETATM    1  O2  UNK     1      18.131   3.542  33.740  1.00  0.00    -0.274 OA
HETATM    2  O5  UNK     1      18.332   1.385  33.015  1.00  0.00    -0.259 OA
HETATM    3  C7  UNK     1      18.287   3.066  31.346  1.00  0.00     0.108 A 
HETATM    4  C8  UNK     1      18.075   5.352  32.118  1.00  0.00     0.002 A 
HETATM    5  C9  UNK     1      18.203   4.369  31.055  1.00  0.00     0.037 A 
HETATM    6  C10 UNK     1      18.042   4.915  33.438  1.00  0.00     0.089 A 
HETATM    7  C11 UNK     1      18.255   2.578  32.743  1.00  0.00     0.304 A 
HETATM    8  C12 UNK     1      17.985   6.723  31.860  1.00  0.00     0.051 A 
HETATM    9  C13 UNK     1      17.923   5.805  34.504  1.00  0.00     0.041 A 
HETATM   10  C14 UNK     1      17.863   7.628  32.918  1.00  0.00     0.069 A 
HETATM   11  C15 UNK     1      17.833   7.170  34.237  1.00  0.00     0.039 A 
ENDROOT
BRANCH   3  12
HETATM   12  C6  UNK     1      18.413   2.151  30.205  1.00  0.00     0.257 C 
HETATM   13  O3  UNK     1      17.520   2.064  29.365  1.00  0.00    -0.267 OA
HETATM   14  N1  UNK     1      19.602   1.445  30.211  1.00  0.00    -0.354 N 
HETATM   15  H10 UNK     1      20.270   1.573  30.964  1.00  0.00     0.162 HD
BRANCH  14  16
HETATM   16  C5  UNK     1      19.951   0.482  29.190  1.00  0.00     0.155 C 
BRANCH  16  17
HETATM   17  C1  UNK     1      20.779  -0.654  29.759  1.00  0.00     0.139 C 
HETATM   18  O1  UNK     1      20.976  -0.457  31.169  1.00  0.00    -0.384 OA
HETATM   19  C4  UNK     1      20.826  -1.722  31.830  1.00  0.00     0.168 C 
HETATM   20  C3  UNK     1      20.750  -2.779  30.749  1.00  0.00     0.029 C 
HETATM   21  C2  UNK     1      20.120  -2.015  29.611  1.00  0.00     0.035 C 
ENDBRANCH  16  17
ENDBRANCH  14  16
ENDBRANCH   3  12
BRANCH  10  22
HETATM   22  O4  UNK     1      17.775   8.962  32.661  1.00  0.00    -0.356 OA
HETATM   23  C16 UNK     1      17.805   9.842  33.784  1.00  0.00     0.210 C 
ENDBRANCH  10  22
TORSDOF 4
ENDMDL
MODEL 2
REMARK VINA RESULT:      -8.3      2.093      7.488
REMARK  4 active torsions:
REMARK  status: ('A' for Active; 'I' for Inactive)
REMARK    1  A    between atoms: C14_20  and  O4_4 
REMARK    2  A    between atoms: C5_11  and  N1_6 
REMARK       I    between atoms: C6_12  and  N1_6 
REMARK    3  A    between atoms: C1_7  and  C5_11 
REMARK    4  A    between atoms: C6_12  and  C7_13 
ROOT
HETATM    1  O2  UNK     1      19.124   0.457  28.706  1.00  0.00    -0.274 OA
HETATM    2  O5  UNK     1      18.215   2.465  28.101  1.00  0.00    -0.259 OA
HETATM    3  C7  UNK     1      18.707   2.171  30.400  1.00  0.00     0.108 A 
HETATM    4  C8  UNK     1      19.671   0.043  31.038  1.00  0.00     0.002 A 
HETATM    5  C9  UNK     1      19.185   1.374  31.362  1.00  0.00     0.037 A 
HETATM    6  C10 UNK     1      19.629  -0.386  29.715  1.00  0.00     0.089 A 
HETATM    7  C11 UNK     1      18.653   1.737  28.986  1.00  0.00     0.304 A 
HETATM    8  C12 UNK     1      20.180  -0.823  32.010  1.00  0.00     0.051 A 
HETATM    9  C13 UNK     1      20.080  -1.648  29.338  1.00  0.00     0.041 A 
HETATM   10  C14 UNK     1      20.635  -2.093  31.647  1.00  0.00     0.069 A 
HETATM   11  C15 UNK     1      20.585  -2.505  30.314  1.00  0.00     0.039 A 
ENDROOT
BRANCH   3  12
HETATM   12  C6  UNK     1      18.240   3.496  30.826  1.00  0.00     0.257 C 
HETATM   13  O3  UNK     1      17.450   3.616  31.761  1.00  0.00    -0.267 OA
HETATM   14  N1  UNK     1      18.777   4.523  30.072  1.00  0.00    -0.354 N 
HETATM   15  H10 UNK     1      19.408   4.319  29.305  1.00  0.00     0.162 HD
BRANCH  14  16
HETATM   16  C5  UNK     1      18.464   5.916  30.302  1.00  0.00     0.155 C 
BRANCH  16  17
HETATM   17  C1  UNK     1      19.439   6.551  31.274  1.00  0.00     0.139 C 
HETATM   18  O1  UNK     1      18.909   6.489  32.609  1.00  0.00    -0.384 OA
HETATM   19  C4  UNK     1      19.975   6.142  33.505  1.00  0.00     0.168 C 
HETATM   20  C3  UNK     1      21.260   6.208  32.709  1.00  0.00     0.029 C 
HETATM   21  C2  UNK     1      20.787   5.852  31.322  1.00  0.00     0.035 C 
ENDBRANCH  16  17
ENDBRANCH  14  16
ENDBRANCH   3  12
BRANCH  10  22
HETATM   22  O4  UNK     1      21.129  -2.934  32.598  1.00  0.00    -0.356 OA
HETATM   23  C16 UNK     1      20.610  -2.794  33.920  1.00  0.00     0.210 C 
ENDBRANCH  10  22
TORSDOF 4
ENDMDL
MODEL 3
REMARK VINA RESULT:      -8.3     13.169     15.933
REMARK  4 active torsions:
REMARK  status: ('A' for Active; 'I' for Inactive)
REMARK    1  A    between atoms: C14_20  and  O4_4 
REMARK    2  A    between atoms: C5_11  and  N1_6 
REMARK       I    between atoms: C6_12  and  N1_6 
REMARK    3  A    between atoms: C1_7  and  C5_11 
REMARK    4  A    between atoms: C6_12  and  C7_13 
ROOT
HETATM    1  O2  UNK     1      19.217   1.001  15.366  1.00  0.00    -0.274 OA
HETATM    2  O5  UNK     1      19.318  -0.603  13.742  1.00  0.00    -0.259 OA
HETATM    3  C7  UNK     1      19.124  -1.365  15.977  1.00  0.00     0.108 A 
HETATM    4  C8  UNK     1      19.016   0.338  17.696  1.00  0.00     0.002 A 
HETATM    5  C9  UNK     1      19.025  -1.053  17.274  1.00  0.00     0.037 A 
HETATM    6  C10 UNK     1      19.113   1.335  16.730  1.00  0.00     0.089 A 
HETATM    7  C11 UNK     1      19.227  -0.322  14.932  1.00  0.00     0.304 A 
HETATM    8  C12 UNK     1      18.914   0.710  19.039  1.00  0.00     0.051 A 
HETATM    9  C13 UNK     1      19.109   2.687  17.067  1.00  0.00     0.041 A 
HETATM   10  C14 UNK     1      18.910   2.062  19.393  1.00  0.00     0.069 A 
HETATM   11  C15 UNK     1      19.007   3.048  18.409  1.00  0.00     0.039 A 
ENDROOT
BRANCH   3  12
HETATM   12  C6  UNK     1      19.124  -2.796  15.651  1.00  0.00     0.257 C 
HETATM   13  O3  UNK     1      20.146  -3.470  15.772  1.00  0.00    -0.267 OA
HETATM   14  N1  UNK     1      17.893  -3.248  15.212  1.00  0.00    -0.354 N 
HETATM   15  H10 UNK     1      17.113  -2.605  15.127  1.00  0.00     0.162 HD
BRANCH  14  16
HETATM   16  C5  UNK     1      17.649  -4.621  14.830  1.00  0.00     0.155 C 
BRANCH  16  17
HETATM   17  C1  UNK     1      17.219  -5.460  16.018  1.00  0.00     0.139 C 
HETATM   18  O1  UNK     1      16.433  -4.663  16.920  1.00  0.00    -0.384 OA
HETATM   19  C4  UNK     1      15.331  -5.456  17.383  1.00  0.00     0.168 C 
HETATM   20  C3  UNK     1      15.577  -6.873  16.912  1.00  0.00     0.029 C 
HETATM   21  C2  UNK     1      16.352  -6.647  15.637  1.00  0.00     0.035 C 
ENDBRANCH  16  17
ENDBRANCH  14  16
ENDBRANCH   3  12
BRANCH  10  22
HETATM   22  O4  UNK     1      18.811   2.419  20.703  1.00  0.00    -0.356 OA
HETATM   23  C16 UNK     1      19.882   2.032  21.564  1.00  0.00     0.210 C 
ENDBRANCH  10  22
TORSDOF 4
ENDMDL
MODEL 4
REMARK VINA RESULT:      -8.1      1.807      2.773
REMARK  4 active torsions:
REMARK  status: ('A' for Active; 'I' for Inactive)
REMARK    1  A    between atoms: C14_20  and  O4_4 
REMARK    2  A    between atoms: C5_11  and  N1_6 
REMARK       I    between atoms: C6_12  and  N1_6 
REMARK    3  A    between atoms: C1_7  and  C5_11 
REMARK    4  A    between atoms: C6_12  and  C7_13 
ROOT
HETATM    1  O2  UNK     1      19.555   6.904  32.157  1.00  0.00    -0.274 OA
HETATM    2  O5  UNK     1      20.329   5.114  30.966  1.00  0.00    -0.259 OA
HETATM    3  C7  UNK     1      18.275   4.821  32.109  1.00  0.00     0.108 A 
HETATM    4  C8  UNK     1      17.456   6.721  33.369  1.00  0.00     0.002 A 
HETATM    5  C9  UNK     1      17.333   5.351  32.898  1.00  0.00     0.037 A 
HETATM    6  C10 UNK     1      18.566   7.467  32.987  1.00  0.00     0.089 A 
HETATM    7  C11 UNK     1      19.464   5.596  31.689  1.00  0.00     0.304 A 
HETATM    8  C12 UNK     1      16.497   7.315  34.194  1.00  0.00     0.051 A 
HETATM    9  C13 UNK     1      18.744   8.784  33.403  1.00  0.00     0.041 A 
HETATM   10  C14 UNK     1      16.661   8.635  34.620  1.00  0.00     0.069 A 
HETATM   11  C15 UNK     1      17.783   9.369  34.225  1.00  0.00     0.039 A 
ENDROOT
BRANCH   3  12
HETATM   12  C6  UNK     1      18.061   3.432  31.685  1.00  0.00     0.257 C 
HETATM   13  O3  UNK     1      17.702   2.575  32.490  1.00  0.00    -0.267 OA
HETATM   14  N1  UNK     1      18.310   3.237  30.338  1.00  0.00    -0.354 N 
HETATM   15  H10 UNK     1      18.625   4.008  29.759  1.00  0.00     0.162 HD
BRANCH  14  16
HETATM   16  C5  UNK     1      18.171   1.951  29.690  1.00  0.00     0.155 C 
BRANCH  16  17
HETATM   17  C1  UNK     1      19.511   1.255  29.545  1.00  0.00     0.139 C 
HETATM   18  O1  UNK     1      19.929   0.730  30.816  1.00  0.00    -0.384 OA
HETATM   19  C4  UNK     1      20.489  -0.574  30.606  1.00  0.00     0.168 C 
HETATM   20  C3  UNK     1      20.619  -0.763  29.110  1.00  0.00     0.029 C 
HETATM   21  C2  UNK     1      19.478   0.075  28.590  1.00  0.00     0.035 C 
ENDBRANCH  16  17
ENDBRANCH  14  16
ENDBRANCH   3  12
BRANCH  10  22
HETATM   22  O4  UNK     1      15.724   9.210  35.424  1.00  0.00    -0.356 OA
HETATM   23  C16 UNK     1      14.616   9.837  34.782  1.00  0.00     0.210 C 
ENDBRANCH  10  22
TORSDOF 4
ENDMDL
MODEL 5
REMARK VINA RESULT:      -8.0      4.161      7.402
REMARK  4 active torsions:
REMARK  status: ('A' for Active; 'I' for Inactive)
REMARK    1  A    between atoms: C14_20  and  O4_4 
REMARK    2  A    between atoms: C5_11  and  N1_6 
REMARK       I    between atoms: C6_12  and  N1_6 
REMARK    3  A    between atoms: C1_7  and  C5_11 
REMARK    4  A    between atoms: C6_12  and  C7_13 
ROOT
HETATM    1  O2  UNK     1      20.790  -2.781  30.876  1.00  0.00    -0.274 OA
HETATM    2  O5  UNK     1      21.336  -4.179  32.598  1.00  0.00    -0.259 OA
HETATM    3  C7  UNK     1      20.274  -2.143  33.180  1.00  0.00     0.108 A 
HETATM    4  C8  UNK     1      19.696  -0.662  31.351  1.00  0.00     0.002 A 
HETATM    5  C9  UNK     1      19.737  -0.989  32.768  1.00  0.00     0.037 A 
HETATM    6  C10 UNK     1      20.225  -1.568  30.437  1.00  0.00     0.089 A 
HETATM    7  C11 UNK     1      20.842  -3.120  32.225  1.00  0.00     0.304 A 
HETATM    8  C12 UNK     1      19.144   0.530  30.876  1.00  0.00     0.051 A 
HETATM    9  C13 UNK     1      20.216  -1.316  29.067  1.00  0.00     0.041 A 
HETATM   10  C14 UNK     1      19.129   0.797  29.505  1.00  0.00     0.069 A 
HETATM   11  C15 UNK     1      19.664  -0.124  28.602  1.00  0.00     0.039 A 
ENDROOT
BRANCH   3  12
HETATM   12  C6  UNK     1      20.269  -2.382  34.628  1.00  0.00     0.257 C 
HETATM   13  O3  UNK     1      20.589  -1.493  35.415  1.00  0.00    -0.267 OA
HETATM   14  N1  UNK     1      19.880  -3.667  34.959  1.00  0.00    -0.354 N 
HETATM   15  H10 UNK     1      19.654  -4.337  34.231  1.00  0.00     0.162 HD
BRANCH  14  16
HETATM   16  C5  UNK     1      19.801  -4.139  36.324  1.00  0.00     0.155 C 
BRANCH  16  17
HETATM   17  C1  UNK     1      19.614  -5.643  36.381  1.00  0.00     0.139 C 
HETATM   18  O1  UNK     1      18.237  -5.954  36.650  1.00  0.00    -0.384 OA
HETATM   19  C4  UNK     1      17.853  -7.062  35.822  1.00  0.00     0.168 C 
HETATM   20  C3  UNK     1      19.116  -7.590  35.177  1.00  0.00     0.029 C 
HETATM   21  C2  UNK     1      19.961  -6.345  35.080  1.00  0.00     0.035 C 
ENDBRANCH  16  17
ENDBRANCH  14  16
ENDBRANCH   3  12
BRANCH  10  22
HETATM   22  O4  UNK     1      18.590   1.961  29.047  1.00  0.00    -0.356 OA
HETATM   23  C16 UNK     1      18.648   3.089  29.918  1.00  0.00     0.210 C 
ENDBRANCH  10  22
TORSDOF 4
ENDMDL
MODEL 6
REMARK VINA RESULT:      -8.0     14.071     16.687
REMARK  4 active torsions:
REMARK  status: ('A' for Active; 'I' for Inactive)
REMARK    1  A    between atoms: C14_20  and  O4_4 
REMARK    2  A    between atoms: C5_11  and  N1_6 
REMARK       I    between atoms: C6_12  and  N1_6 
REMARK    3  A    between atoms: C1_7  and  C5_11 
REMARK    4  A    between atoms: C6_12  and  C7_13 
ROOT
HETATM    1  O2  UNK     1      19.288   1.008  15.304  1.00  0.00    -0.274 OA
HETATM    2  O5  UNK     1      19.262  -0.618  13.699  1.00  0.00    -0.259 OA
HETATM    3  C7  UNK     1      18.924  -1.327  15.934  1.00  0.00     0.108 A 
HETATM    4  C8  UNK     1      18.951   0.400  17.634  1.00  0.00     0.002 A 
HETATM    5  C9  UNK     1      18.822  -0.990  17.225  1.00  0.00     0.037 A 
HETATM    6  C10 UNK     1      19.182   1.368  16.661  1.00  0.00     0.089 A 
HETATM    7  C11 UNK     1      19.168  -0.314  14.883  1.00  0.00     0.304 A 
HETATM    8  C12 UNK     1      18.851   0.797  18.969  1.00  0.00     0.051 A 
HETATM    9  C13 UNK     1      19.314   2.717  16.985  1.00  0.00     0.041 A 
HETATM   10  C14 UNK     1      18.983   2.146  19.310  1.00  0.00     0.069 A 
HETATM   11  C15 UNK     1      19.213   3.104  18.320  1.00  0.00     0.039 A 
ENDROOT
BRANCH   3  12
HETATM   12  C6  UNK     1      18.779  -2.754  15.622  1.00  0.00     0.257 C 
HETATM   13  O3  UNK     1      17.677  -3.297  15.651  1.00  0.00    -0.267 OA
HETATM   14  N1  UNK     1      19.983  -3.360  15.313  1.00  0.00    -0.354 N 
HETATM   15  H10 UNK     1      20.846  -2.828  15.337  1.00  0.00     0.162 HD
BRANCH  14  16
HETATM   16  C5  UNK     1      20.094  -4.762  14.973  1.00  0.00     0.155 C 
BRANCH  16  17
HETATM   17  C1  UNK     1      19.938  -4.985  13.482  1.00  0.00     0.139 C 
HETATM   18  O1  UNK     1      21.002  -5.822  12.999  1.00  0.00    -0.384 OA
HETATM   19  C4  UNK     1      20.452  -6.762  12.065  1.00  0.00     0.168 C 
HETATM   20  C3  UNK     1      19.023  -6.339  11.801  1.00  0.00     0.029 C 
HETATM   21  C2  UNK     1      18.644  -5.689  13.108  1.00  0.00     0.035 C 
ENDBRANCH  16  17
ENDBRANCH  14  16
ENDBRANCH   3  12
BRANCH  10  22
HETATM   22  O4  UNK     1      18.886   2.528  20.613  1.00  0.00    -0.356 OA
HETATM   23  C16 UNK     1      19.778   1.910  21.539  1.00  0.00     0.210 C 
ENDBRANCH  10  22
TORSDOF 4
ENDMDL
MODEL 7
REMARK VINA RESULT:      -8.0      4.063      7.299
REMARK  4 active torsions:
REMARK  status: ('A' for Active; 'I' for Inactive)
REMARK    1  A    between atoms: C14_20  and  O4_4 
REMARK    2  A    between atoms: C5_11  and  N1_6 
REMARK       I    between atoms: C6_12  and  N1_6 
REMARK    3  A    between atoms: C1_7  and  C5_11 
REMARK    4  A    between atoms: C6_12  and  C7_13 
ROOT
HETATM    1  O2  UNK     1      20.776  -2.607  30.840  1.00  0.00    -0.274 OA
HETATM    2  O5  UNK     1      21.348  -3.996  32.562  1.00  0.00    -0.259 OA
HETATM    3  C7  UNK     1      20.249  -1.980  33.144  1.00  0.00     0.108 A 
HETATM    4  C8  UNK     1      19.644  -0.510  31.316  1.00  0.00     0.002 A 
HETATM    5  C9  UNK     1      19.691  -0.836  32.732  1.00  0.00     0.037 A 
HETATM    6  C10 UNK     1      20.189  -1.405  30.401  1.00  0.00     0.089 A 
HETATM    7  C11 UNK     1      20.835  -2.947  32.189  1.00  0.00     0.304 A 
HETATM    8  C12 UNK     1      19.069   0.672  30.841  1.00  0.00     0.051 A 
HETATM    9  C13 UNK     1      20.175  -1.153  29.031  1.00  0.00     0.041 A 
HETATM   10  C14 UNK     1      19.050   0.940  29.470  1.00  0.00     0.069 A 
HETATM   11  C15 UNK     1      19.601   0.028  28.567  1.00  0.00     0.039 A 
ENDROOT
BRANCH   3  12
HETATM   12  C6  UNK     1      20.249  -2.219  34.592  1.00  0.00     0.257 C 
HETATM   13  O3  UNK     1      21.301  -2.399  35.202  1.00  0.00    -0.267 OA
HETATM   14  N1  UNK     1      18.978  -2.217  35.137  1.00  0.00    -0.354 N 
HETATM   15  H10 UNK     1      18.167  -2.079  34.543  1.00  0.00     0.162 HD
BRANCH  14  16
HETATM   16  C5  UNK     1      18.723  -2.434  36.544  1.00  0.00     0.155 C 
BRANCH  16  17
HETATM   17  C1  UNK     1      17.623  -1.524  37.055  1.00  0.00     0.139 C 
HETATM   18  O1  UNK     1      18.160  -0.603  38.019  1.00  0.00    -0.384 OA
HETATM   19  C4  UNK     1      17.582   0.689  37.783  1.00  0.00     0.168 C 
HETATM   20  C3  UNK     1      16.478   0.500  36.766  1.00  0.00     0.029 C 
HETATM   21  C2  UNK     1      16.986  -0.676  35.969  1.00  0.00     0.035 C 
ENDBRANCH  16  17
ENDBRANCH  14  16
ENDBRANCH   3  12
BRANCH  10  22
HETATM   22  O4  UNK     1      18.490   2.093  29.012  1.00  0.00    -0.356 OA
HETATM   23  C16 UNK     1      18.634   3.253  29.830  1.00  0.00     0.210 C 
ENDBRANCH  10  22
TORSDOF 4
ENDMDL
MODEL 8
REMARK VINA RESULT:      -8.0     15.054     19.202
REMARK  4 active torsions:
REMARK  status: ('A' for Active; 'I' for Inactive)
REMARK    1  A    between atoms: C14_20  and  O4_4 
REMARK    2  A    between atoms: C5_11  and  N1_6 
REMARK       I    between atoms: C6_12  and  N1_6 
REMARK    3  A    between atoms: C1_7  and  C5_11 
REMARK    4  A    between atoms: C6_12  and  C7_13 
ROOT
HETATM    1  O2  UNK     1      19.366  -1.963  12.961  1.00  0.00    -0.274 OA
HETATM    2  O5  UNK     1      19.370  -0.131  14.325  1.00  0.00    -0.259 OA
HETATM    3  C7  UNK     1      18.601  -2.160  15.275  1.00  0.00     0.108 A 
HETATM    4  C8  UNK     1      18.597  -4.101  13.826  1.00  0.00     0.002 A 
HETATM    5  C9  UNK     1      18.348  -3.463  15.109  1.00  0.00     0.037 A 
HETATM    6  C10 UNK     1      19.102  -3.335  12.780  1.00  0.00     0.089 A 
HETATM    7  C11 UNK     1      19.137  -1.325  14.177  1.00  0.00     0.304 A 
HETATM    8  C12 UNK     1      18.349  -5.459  13.608  1.00  0.00     0.051 A 
HETATM    9  C13 UNK     1      19.364  -3.885  11.527  1.00  0.00     0.041 A 
HETATM   10  C14 UNK     1      18.606  -6.025  12.356  1.00  0.00     0.069 A 
HETATM   11  C15 UNK     1      19.113  -5.240  11.318  1.00  0.00     0.039 A 
ENDROOT
BRANCH   3  12
HETATM   12  C6  UNK     1      18.316  -1.607  16.605  1.00  0.00     0.257 C 
HETATM   13  O3  UNK     1      17.198  -1.715  17.106  1.00  0.00    -0.267 OA
HETATM   14  N1  UNK     1      19.412  -0.986  17.175  1.00  0.00    -0.354 N 
HETATM   15  H10 UNK     1      20.290  -0.932  16.669  1.00  0.00     0.162 HD
BRANCH  14  16
HETATM   16  C5  UNK     1      19.375  -0.364  18.480  1.00  0.00     0.155 C 
BRANCH  16  17
HETATM   17  C1  UNK     1      18.878   1.066  18.399  1.00  0.00     0.139 C 
HETATM   18  O1  UNK     1      19.407   1.830  19.496  1.00  0.00    -0.384 OA
HETATM   19  C4  UNK     1      19.800   3.119  19.004  1.00  0.00     0.168 C 
HETATM   20  C3  UNK     1      19.286   3.226  17.585  1.00  0.00     0.029 C 
HETATM   21  C2  UNK     1      19.313   1.787  17.135  1.00  0.00     0.035 C 
ENDBRANCH  16  17
ENDBRANCH  14  16
ENDBRANCH   3  12
BRANCH  10  22
HETATM   22  O4  UNK     1      18.362  -7.348  12.148  1.00  0.00    -0.356 OA
HETATM   23  C16 UNK     1      17.508  -7.686  11.055  1.00  0.00     0.210 C 
ENDBRANCH  10  22
TORSDOF 4
ENDMDL
MODEL 9
REMARK VINA RESULT:      -7.9      3.166      7.534
REMARK  4 active torsions:
REMARK  status: ('A' for Active; 'I' for Inactive)
REMARK    1  A    between atoms: C14_20  and  O4_4 
REMARK    2  A    between atoms: C5_11  and  N1_6 
REMARK       I    between atoms: C6_12  and  N1_6 
REMARK    3  A    between atoms: C1_7  and  C5_11 
REMARK    4  A    between atoms: C6_12  and  C7_13 
ROOT
HETATM    1  O2  UNK     1      18.204   1.621  32.318  1.00  0.00    -0.274 OA
HETATM    2  O5  UNK     1      18.285   3.222  30.690  1.00  0.00    -0.259 OA
HETATM    3  C7  UNK     1      18.397   3.981  32.931  1.00  0.00     0.108 A 
HETATM    4  C8  UNK     1      18.313   2.281  34.655  1.00  0.00     0.002 A 
HETATM    5  C9  UNK     1      18.406   3.669  34.232  1.00  0.00     0.037 A 
HETATM    6  C10 UNK     1      18.214   1.288  33.686  1.00  0.00     0.089 A 
HETATM    7  C11 UNK     1      18.293   2.941  31.883  1.00  0.00     0.304 A 
HETATM    8  C12 UNK     1      18.319   1.910  36.002  1.00  0.00     0.051 A 
HETATM    9  C13 UNK     1      18.122  -0.061  34.025  1.00  0.00     0.041 A 
HETATM   10  C14 UNK     1      18.227   0.561  36.357  1.00  0.00     0.069 A 
HETATM   11  C15 UNK     1      18.129  -0.422  35.370  1.00  0.00     0.039 A 
ENDROOT
BRANCH   3  12
HETATM   12  C6  UNK     1      18.496   5.408  32.604  1.00  0.00     0.257 C 
HETATM   13  O3  UNK     1      19.488   6.061  32.922  1.00  0.00    -0.267 OA
HETATM   14  N1  UNK     1      17.384   5.884  31.933  1.00  0.00    -0.354 N 
HETATM   15  H10 UNK     1      16.604   5.267  31.733  1.00  0.00     0.162 HD
BRANCH  14  16
HETATM   16  C5  UNK     1      17.250   7.260  31.507  1.00  0.00     0.155 C 
BRANCH  16  17
HETATM   17  C1  UNK     1      16.019   7.909  32.109  1.00  0.00     0.139 C 
HETATM   18  O1  UNK     1      14.841   7.450  31.425  1.00  0.00    -0.384 OA
HETATM   19  C4  UNK     1      13.816   7.205  32.399  1.00  0.00     0.168 C 
HETATM   20  C3  UNK     1      14.322   7.748  33.718  1.00  0.00     0.029 C 
HETATM   21  C2  UNK     1      15.814   7.572  33.576  1.00  0.00     0.035 C 
ENDBRANCH  16  17
ENDBRANCH  14  16
ENDBRANCH   3  12
BRANCH  10  22
HETATM   22  O4  UNK     1      18.233   0.205  37.671  1.00  0.00    -0.356 OA
HETATM   23  C16 UNK     1      18.075  -1.182  37.968  1.00  0.00     0.210 C 
ENDBRANCH  10  22
TORSDOF 4
ENDMDL
MODEL 10
REMARK VINA RESULT:      -7.8      2.400      7.100
REMARK  4 active torsions:
REMARK  status: ('A' for Active; 'I' for Inactive)
REMARK    1  A    between atoms: C14_20  and  O4_4 
REMARK    2  A    between atoms: C5_11  and  N1_6 
REMARK       I    between atoms: C6_12  and  N1_6 
REMARK    3  A    between atoms: C1_7  and  C5_11 
REMARK    4  A    between atoms: C6_12  and  C7_13 
ROOT
HETATM    1  O2  UNK     1      20.625  -1.216  30.823  1.00  0.00    -0.274 OA
HETATM    2  O5  UNK     1      20.527   0.018  28.902  1.00  0.00    -0.259 OA
HETATM    3  C7  UNK     1      19.148   0.730  30.692  1.00  0.00     0.108 A 
HETATM    4  C8  UNK     1      19.254  -0.580  32.727  1.00  0.00     0.002 A 
HETATM    5  C9  UNK     1      18.732   0.531  31.948  1.00  0.00     0.037 A 
HETATM    6  C10 UNK     1      20.190  -1.429  32.145  1.00  0.00     0.089 A 
HETATM    7  C11 UNK     1      20.143  -0.161  30.053  1.00  0.00     0.304 A 
HETATM    8  C12 UNK     1      18.849  -0.824  34.042  1.00  0.00     0.051 A 
HETATM    9  C13 UNK     1      20.731  -2.510  32.838  1.00  0.00     0.041 A 
HETATM   10  C14 UNK     1      19.381  -1.906  34.749  1.00  0.00     0.069 A 
HETATM   11  C15 UNK     1      20.320  -2.747  34.148  1.00  0.00     0.039 A 
ENDROOT
BRANCH   3  12
HETATM   12  C6  UNK     1      18.563   1.876  29.987  1.00  0.00     0.257 C 
HETATM   13  O3  UNK     1      17.579   1.737  29.264  1.00  0.00    -0.267 OA
HETATM   14  N1  UNK     1      19.237   3.059  30.233  1.00  0.00    -0.354 N 
HETATM   15  H10 UNK     1      20.056   3.067  30.831  1.00  0.00     0.162 HD
BRANCH  14  16
HETATM   16  C5  UNK     1      18.848   4.323  29.647  1.00  0.00     0.155 C 
BRANCH  16  17
HETATM   17  C1  UNK     1      18.898   5.445  30.666  1.00  0.00     0.139 C 
HETATM   18  O1  UNK     1      18.167   5.067  31.845  1.00  0.00    -0.384 OA
HETATM   19  C4  UNK     1      18.910   5.495  32.996  1.00  0.00     0.168 C 
HETATM   20  C3  UNK     1      20.040   6.367  32.494  1.00  0.00     0.029 C 
HETATM   21  C2  UNK     1      20.305   5.778  31.130  1.00  0.00     0.035 C 
ENDBRANCH  16  17
ENDBRANCH  14  16
ENDBRANCH   3  12
BRANCH  10  22
HETATM   22  O4  UNK     1      18.982  -2.140  36.030  1.00  0.00    -0.356 OA
HETATM   23  C16 UNK     1      17.734  -1.580  36.433  1.00  0.00     0.210 C 
ENDBRANCH  10  22
TORSDOF 4
ENDMDL
