MODEL 1
REMARK VINA RESULT:      -9.0      0.000      0.000
REMARK  6 active torsions:
REMARK  status: ('A' for Active; 'I' for Inactive)
REMARK    1  A    between atoms: C1_7  and  O1_4 
REMARK    2  A    between atoms: C4_10  and  O1_4 
REMARK    3  A    between atoms: C3_9  and  O2_5 
REMARK    4  A    between atoms: C2_8  and  C9_15 
REMARK    5  A    between atoms: C4_10  and  C6_12 
REMARK    6  A    between atoms: C10_16  and  C13_19 
ROOT
HETATM    1  N1  UNK     1      17.903   2.322  33.599  1.00  0.00    -0.191 NA
HETATM    2  C9  UNK     1      18.763   4.233  30.861  1.00  0.00     0.036 C 
HETATM    3  C10 UNK     1      18.636   2.916  31.177  1.00  0.00     0.055 C 
HETATM    4  C23 UNK     1      18.230   2.596  32.520  1.00  0.00     0.100 C 
ENDROOT
BRANCH   3   5
HETATM    5  C13 UNK     1      18.879   1.832  30.238  1.00  0.00    -0.015 A 
HETATM    6  C17 UNK     1      18.115   1.729  29.076  1.00  0.00     0.013 A 
HETATM    7  C19 UNK     1      18.348   0.689  28.177  1.00  0.00     0.001 A 
HETATM    8  C21 UNK     1      19.345  -0.250  28.439  1.00  0.00     0.000 A 
HETATM    9  C20 UNK     1      20.111  -0.148  29.601  1.00  0.00     0.001 A 
HETATM   10  C18 UNK     1      19.878   0.893  30.501  1.00  0.00     0.013 A 
ENDBRANCH   3   5
BRANCH   2  11
HETATM   11  C2  UNK     1      18.521   5.359  31.773  1.00  0.00    -0.015 A 
HETATM   12  C5  UNK     1      17.203   5.609  32.135  1.00  0.00     0.052 A 
HETATM   13  C3  UNK     1      16.915   6.665  33.000  1.00  0.00     0.102 A 
HETATM   14  C1  UNK     1      17.947   7.464  33.494  1.00  0.00     0.103 A 
HETATM   15  C7  UNK     1      19.267   7.204  33.124  1.00  0.00     0.059 A 
HETATM   16  C8  UNK     1      19.554   6.147  32.261  1.00  0.00     0.024 A 
HETATM   17 Br1  UNK     1      21.373   5.850  31.797  1.00  0.00    -0.050 Br
BRANCH  13  18
HETATM   18  O2  UNK     1      15.622   6.909  33.353  1.00  0.00    -0.353 OA
HETATM   19  C22 UNK     1      14.742   7.359  32.325  1.00  0.00     0.210 C 
ENDBRANCH  13  18
BRANCH  14  20
HETATM   20  O1  UNK     1      17.677   8.498  34.338  1.00  0.00    -0.344 OA
BRANCH  20  21
HETATM   21  C4  UNK     1      17.679   9.809  33.777  1.00  0.00     0.216 C 
BRANCH  21  22
HETATM   22  C6  UNK     1      16.601  10.622  34.431  1.00  0.00    -0.012 A 
HETATM   23  C11 UNK     1      16.697  12.008  34.533  1.00  0.00     0.044 A 
HETATM   24 Cl1  UNK     1      18.060  12.865  33.911  1.00  0.00    -0.084 Cl
HETATM   25  C14 UNK     1      15.674  12.730  35.147  1.00  0.00     0.048 A 
HETATM   26  C16 UNK     1      14.561  12.064  35.660  1.00  0.00     0.035 A 
HETATM   27  C15 UNK     1      14.469  10.676  35.555  1.00  0.00     0.024 A 
HETATM   28 Cl2  UNK     1      13.298  12.954  36.418  1.00  0.00    -0.084 Cl
HETATM   29  C12 UNK     1      15.492   9.954  34.940  1.00  0.00     0.013 A 
ENDBRANCH  21  22
ENDBRANCH  20  21
ENDBRANCH  14  20
ENDBRANCH   2  11
TORSDOF 6
ENDMDL
MODEL 2
REMARK VINA RESULT:      -8.7      6.040      7.883
REMARK  6 active torsions:
REMARK  status: ('A' for Active; 'I' for Inactive)
REMARK    1  A    between atoms: C1_7  and  O1_4 
REMARK    2  A    between atoms: C4_10  and  O1_4 
REMARK    3  A    between atoms: C3_9  and  O2_5 
REMARK    4  A    between atoms: C2_8  and  C9_15 
REMARK    5  A    between atoms: C4_10  and  C6_12 
REMARK    6  A    between atoms: C10_16  and  C13_19 
ROOT
HETATM    1  N1  UNK     1      21.944  -1.716  35.337  1.00  0.00    -0.191 NA
HETATM    2  C9  UNK     1      18.610  -2.310  35.982  1.00  0.00     0.036 C 
HETATM    3  C10 UNK     1      19.805  -2.928  36.181  1.00  0.00     0.055 C 
HETATM    4  C23 UNK     1      20.984  -2.249  35.711  1.00  0.00     0.100 C 
ENDROOT
BRANCH   3   5
HETATM    5  C13 UNK     1      19.950  -4.215  36.843  1.00  0.00    -0.015 A 
HETATM    6  C17 UNK     1      21.051  -4.458  37.664  1.00  0.00     0.013 A 
HETATM    7  C19 UNK     1      21.191  -5.692  38.298  1.00  0.00     0.001 A 
HETATM    8  C21 UNK     1      20.230  -6.684  38.112  1.00  0.00     0.000 A 
HETATM    9  C20 UNK     1      19.128  -6.443  37.291  1.00  0.00     0.001 A 
HETATM   10  C18 UNK     1      18.988  -5.208  36.656  1.00  0.00     0.013 A 
ENDBRANCH   3   5
BRANCH   2  11
HETATM   11  C2  UNK     1      18.417  -1.009  35.326  1.00  0.00    -0.015 A 
HETATM   12  C5  UNK     1      18.625  -0.955  33.953  1.00  0.00     0.052 A 
HETATM   13  C3  UNK     1      18.455   0.254  33.278  1.00  0.00     0.102 A 
HETATM   14  C1  UNK     1      18.081   1.399  33.982  1.00  0.00     0.103 A 
HETATM   15  C7  UNK     1      17.875   1.334  35.361  1.00  0.00     0.059 A 
HETATM   16  C8  UNK     1      18.043   0.125  36.035  1.00  0.00     0.024 A 
HETATM   17 Br1  UNK     1      17.746   0.106  37.912  1.00  0.00    -0.050 Br
BRANCH  13  18
HETATM   18  O2  UNK     1      18.661   0.305  31.933  1.00  0.00    -0.353 OA
HETATM   19  C22 UNK     1      19.626  -0.593  31.389  1.00  0.00     0.210 C 
ENDBRANCH  13  18
BRANCH  14  20
HETATM   20  O1  UNK     1      17.913   2.585  33.334  1.00  0.00    -0.344 OA
BRANCH  20  21
HETATM   21  C4  UNK     1      18.636   3.706  33.838  1.00  0.00     0.216 C 
BRANCH  21  22
HETATM   22  C6  UNK     1      18.016   4.966  33.309  1.00  0.00    -0.012 A 
HETATM   23  C11 UNK     1      18.166   5.347  31.978  1.00  0.00     0.044 A 
HETATM   24 Cl1  UNK     1      19.074   4.392  30.864  1.00  0.00    -0.084 Cl
HETATM   25  C14 UNK     1      17.574   6.526  31.524  1.00  0.00     0.048 A 
HETATM   26  C16 UNK     1      16.835   7.318  32.402  1.00  0.00     0.035 A 
HETATM   27  C15 UNK     1      16.686   6.932  33.734  1.00  0.00     0.024 A 
HETATM   28 Cl2  UNK     1      16.103   8.772  31.842  1.00  0.00    -0.084 Cl
HETATM   29  C12 UNK     1      17.278   5.753  34.188  1.00  0.00     0.013 A 
ENDBRANCH  21  22
ENDBRANCH  20  21
ENDBRANCH  14  20
ENDBRANCH   2  11
TORSDOF 6
ENDMDL
MODEL 3
REMARK VINA RESULT:      -8.5     18.674     20.526
REMARK  6 active torsions:
REMARK  status: ('A' for Active; 'I' for Inactive)
REMARK    1  A    between atoms: C1_7  and  O1_4 
REMARK    2  A    between atoms: C4_10  and  O1_4 
REMARK    3  A    between atoms: C3_9  and  O2_5 
REMARK    4  A    between atoms: C2_8  and  C9_15 
REMARK    5  A    between atoms: C4_10  and  C6_12 
REMARK    6  A    between atoms: C10_16  and  C13_19 
ROOT
HETATM    1  N1  UNK     1      27.383 -10.614  39.616  1.00  0.00    -0.191 NA
HETATM    2  C9  UNK     1      27.412  -8.921  36.612  1.00  0.00     0.036 C 
HETATM    3  C10 UNK     1      26.615  -9.808  37.267  1.00  0.00     0.055 C 
HETATM    4  C23 UNK     1      27.048 -10.248  38.567  1.00  0.00     0.100 C 
ENDROOT
BRANCH   3   5
HETATM    5  C13 UNK     1      25.363 -10.319  36.731  1.00  0.00    -0.015 A 
HETATM    6  C17 UNK     1      24.222  -9.517  36.734  1.00  0.00     0.013 A 
HETATM    7  C19 UNK     1      23.022 -10.008  36.222  1.00  0.00     0.001 A 
HETATM    8  C21 UNK     1      22.961 -11.301  35.705  1.00  0.00     0.000 A 
HETATM    9  C20 UNK     1      24.102 -12.105  35.702  1.00  0.00     0.001 A 
HETATM   10  C18 UNK     1      25.303 -11.614  36.215  1.00  0.00     0.013 A 
ENDBRANCH   3   5
BRANCH   2  11
HETATM   11  C2  UNK     1      28.679  -8.373  37.117  1.00  0.00    -0.015 A 
HETATM   12  C5  UNK     1      29.846  -9.024  36.737  1.00  0.00     0.052 A 
HETATM   13  C3  UNK     1      31.078  -8.547  37.187  1.00  0.00     0.102 A 
HETATM   14  C1  UNK     1      31.131  -7.424  38.013  1.00  0.00     0.103 A 
HETATM   15  C7  UNK     1      29.953  -6.778  38.389  1.00  0.00     0.059 A 
HETATM   16  C8  UNK     1      28.722  -7.255  37.938  1.00  0.00     0.024 A 
HETATM   17 Br1  UNK     1      27.157  -6.328  38.488  1.00  0.00    -0.050 Br
BRANCH  13  18
HETATM   18  O2  UNK     1      32.221  -9.187  36.814  1.00  0.00    -0.353 OA
HETATM   19  C22 UNK     1      32.542  -9.186  35.424  1.00  0.00     0.210 C 
ENDBRANCH  13  18
BRANCH  14  20
HETATM   20  O1  UNK     1      32.328  -6.949  38.458  1.00  0.00    -0.344 OA
BRANCH  20  21
HETATM   21  C4  UNK     1      32.718  -5.654  38.009  1.00  0.00     0.216 C 
BRANCH  21  22
HETATM   22  C6  UNK     1      33.486  -5.792  36.726  1.00  0.00    -0.012 A 
HETATM   23  C11 UNK     1      32.878  -5.585  35.490  1.00  0.00     0.044 A 
HETATM   24 Cl1  UNK     1      31.211  -5.158  35.366  1.00  0.00    -0.084 Cl
HETATM   25  C14 UNK     1      33.624  -5.722  34.320  1.00  0.00     0.048 A 
HETATM   26  C16 UNK     1      34.974  -6.067  34.390  1.00  0.00     0.035 A 
HETATM   27  C15 UNK     1      35.579  -6.273  35.630  1.00  0.00     0.024 A 
HETATM   28 Cl2  UNK     1      35.896  -6.236  32.946  1.00  0.00    -0.084 Cl
HETATM   29  C12 UNK     1      34.832  -6.135  36.801  1.00  0.00     0.013 A 
ENDBRANCH  21  22
ENDBRANCH  20  21
ENDBRANCH  14  20
ENDBRANCH   2  11
TORSDOF 6
ENDMDL
MODEL 4
REMARK VINA RESULT:      -8.4      4.987     10.187
REMARK  6 active torsions:
REMARK  status: ('A' for Active; 'I' for Inactive)
REMARK    1  A    between atoms: C1_7  and  O1_4 
REMARK    2  A    between atoms: C4_10  and  O1_4 
REMARK    3  A    between atoms: C3_9  and  O2_5 
REMARK    4  A    between atoms: C2_8  and  C9_15 
REMARK    5  A    between atoms: C4_10  and  C6_12 
REMARK    6  A    between atoms: C10_16  and  C13_19 
ROOT
HETATM    1  N1  UNK     1      15.175   6.568  32.365  1.00  0.00    -0.191 NA
HETATM    2  C9  UNK     1      18.502   6.682  33.265  1.00  0.00     0.036 C 
HETATM    3  C10 UNK     1      17.439   7.528  33.210  1.00  0.00     0.055 C 
HETATM    4  C23 UNK     1      16.190   6.988  32.742  1.00  0.00     0.100 C 
ENDROOT
BRANCH   3   5
HETATM    5  C13 UNK     1      17.497   8.928  33.603  1.00  0.00    -0.015 A 
HETATM    6  C17 UNK     1      16.319   9.640  33.825  1.00  0.00     0.013 A 
HETATM    7  C19 UNK     1      16.375  10.982  34.202  1.00  0.00     0.001 A 
HETATM    8  C21 UNK     1      17.609  11.612  34.357  1.00  0.00     0.000 A 
HETATM    9  C20 UNK     1      18.788  10.900  34.135  1.00  0.00     0.001 A 
HETATM   10  C18 UNK     1      18.732   9.557  33.758  1.00  0.00     0.013 A 
ENDBRANCH   3   5
BRANCH   2  11
HETATM   11  C2  UNK     1      18.487   5.262  32.886  1.00  0.00    -0.015 A 
HETATM   12  C5  UNK     1      18.396   4.333  33.916  1.00  0.00     0.052 A 
HETATM   13  C3  UNK     1      18.377   2.971  33.613  1.00  0.00     0.102 A 
HETATM   14  C1  UNK     1      18.449   2.550  32.285  1.00  0.00     0.103 A 
HETATM   15  C7  UNK     1      18.540   3.492  31.260  1.00  0.00     0.059 A 
HETATM   16  C8  UNK     1      18.558   4.853  31.562  1.00  0.00     0.024 A 
HETATM   17 Br1  UNK     1      18.684   6.081  30.117  1.00  0.00    -0.050 Br
BRANCH  13  18
HETATM   18  O2  UNK     1      18.289   2.062  34.624  1.00  0.00    -0.353 OA
HETATM   19  C22 UNK     1      17.089   1.296  34.706  1.00  0.00     0.210 C 
ENDBRANCH  13  18
BRANCH  14  20
HETATM   20  O1  UNK     1      18.431   1.223  31.978  1.00  0.00    -0.344 OA
BRANCH  20  21
HETATM   21  C4  UNK     1      19.091   0.827  30.778  1.00  0.00     0.216 C 
BRANCH  21  22
HETATM   22  C6  UNK     1      19.713  -0.523  30.984  1.00  0.00    -0.012 A 
HETATM   23  C11 UNK     1      20.115  -1.309  29.907  1.00  0.00     0.044 A 
HETATM   24 Cl1  UNK     1      19.921  -0.775  28.278  1.00  0.00    -0.084 Cl
HETATM   25  C14 UNK     1      20.690  -2.559  30.139  1.00  0.00     0.048 A 
HETATM   26  C16 UNK     1      20.859  -3.018  31.445  1.00  0.00     0.035 A 
HETATM   27  C15 UNK     1      20.456  -2.226  32.520  1.00  0.00     0.024 A 
HETATM   28 Cl2  UNK     1      21.569  -4.559  31.732  1.00  0.00    -0.084 Cl
HETATM   29  C12 UNK     1      19.881  -0.976  32.289  1.00  0.00     0.013 A 
ENDBRANCH  21  22
ENDBRANCH  20  21
ENDBRANCH  14  20
ENDBRANCH   2  11
TORSDOF 6
ENDMDL
MODEL 5
REMARK VINA RESULT:      -8.3     17.924     20.274
REMARK  6 active torsions:
REMARK  status: ('A' for Active; 'I' for Inactive)
REMARK    1  A    between atoms: C1_7  and  O1_4 
REMARK    2  A    between atoms: C4_10  and  O1_4 
REMARK    3  A    between atoms: C3_9  and  O2_5 
REMARK    4  A    between atoms: C2_8  and  C9_15 
REMARK    5  A    between atoms: C4_10  and  C6_12 
REMARK    6  A    between atoms: C10_16  and  C13_19 
ROOT
HETATM    1  N1  UNK     1      27.647 -10.466  39.417  1.00  0.00    -0.191 NA
HETATM    2  C9  UNK     1      27.399  -8.779  36.420  1.00  0.00     0.036 C 
HETATM    3  C10 UNK     1      26.694  -9.706  37.121  1.00  0.00     0.055 C 
HETATM    4  C23 UNK     1      27.229 -10.121  38.391  1.00  0.00     0.100 C 
ENDROOT
BRANCH   3   5
HETATM    5  C13 UNK     1      25.440 -10.286  36.663  1.00  0.00    -0.015 A 
HETATM    6  C17 UNK     1      24.274  -9.521  36.667  1.00  0.00     0.013 A 
HETATM    7  C19 UNK     1      23.073 -10.077  36.229  1.00  0.00     0.001 A 
HETATM    8  C21 UNK     1      23.037 -11.398  35.785  1.00  0.00     0.000 A 
HETATM    9  C20 UNK     1      24.203 -12.164  35.780  1.00  0.00     0.001 A 
HETATM   10  C18 UNK     1      25.405 -11.608  36.220  1.00  0.00     0.013 A 
ENDBRANCH   3   5
BRANCH   2  11
HETATM   11  C2  UNK     1      28.663  -8.162  36.848  1.00  0.00    -0.015 A 
HETATM   12  C5  UNK     1      28.582  -7.129  37.773  1.00  0.00     0.052 A 
HETATM   13  C3  UNK     1      29.751  -6.508  38.215  1.00  0.00     0.102 A 
HETATM   14  C1  UNK     1      30.990  -6.924  37.726  1.00  0.00     0.103 A 
HETATM   15  C7  UNK     1      31.059  -7.963  36.797  1.00  0.00     0.059 A 
HETATM   16  C8  UNK     1      29.891  -8.584  36.357  1.00  0.00     0.024 A 
HETATM   17 Br1  UNK     1      30.057  -9.991  35.090  1.00  0.00    -0.050 Br
BRANCH  13  18
HETATM   18  O2  UNK     1      29.670  -5.494  39.121  1.00  0.00    -0.353 OA
HETATM   19  C22 UNK     1      29.146  -4.251  38.660  1.00  0.00     0.210 C 
ENDBRANCH  13  18
BRANCH  14  20
HETATM   20  O1  UNK     1      32.138  -6.325  38.150  1.00  0.00    -0.344 OA
BRANCH  20  21
HETATM   21  C4  UNK     1      32.566  -5.168  37.434  1.00  0.00     0.216 C 
BRANCH  21  22
HETATM   22  C6  UNK     1      33.533  -5.585  36.365  1.00  0.00    -0.012 A 
HETATM   23  C11 UNK     1      33.164  -5.612  35.022  1.00  0.00     0.044 A 
HETATM   24 Cl1  UNK     1      31.576  -5.168  34.515  1.00  0.00    -0.084 Cl
HETATM   25  C14 UNK     1      34.091  -6.005  34.058  1.00  0.00     0.048 A 
HETATM   26  C16 UNK     1      35.383  -6.370  34.438  1.00  0.00     0.035 A 
HETATM   27  C15 UNK     1      35.748  -6.341  35.784  1.00  0.00     0.024 A 
HETATM   28 Cl2  UNK     1      36.528  -6.855  33.248  1.00  0.00    -0.084 Cl
HETATM   29  C12 UNK     1      34.820  -5.947  36.750  1.00  0.00     0.013 A 
ENDBRANCH  21  22
ENDBRANCH  20  21
ENDBRANCH  14  20
ENDBRANCH   2  11
TORSDOF 6
ENDMDL
MODEL 6
REMARK VINA RESULT:      -7.9      1.875      2.433
REMARK  6 active torsions:
REMARK  status: ('A' for Active; 'I' for Inactive)
REMARK    1  A    between atoms: C1_7  and  O1_4 
REMARK    2  A    between atoms: C4_10  and  O1_4 
REMARK    3  A    between atoms: C3_9  and  O2_5 
REMARK    4  A    between atoms: C2_8  and  C9_15 
REMARK    5  A    between atoms: C4_10  and  C6_12 
REMARK    6  A    between atoms: C10_16  and  C13_19 
ROOT
HETATM    1  N1  UNK     1      19.396   6.179  29.470  1.00  0.00    -0.191 NA
HETATM    2  C9  UNK     1      17.818   4.747  32.181  1.00  0.00     0.036 C 
HETATM    3  C10 UNK     1      18.483   4.341  31.067  1.00  0.00     0.055 C 
HETATM    4  C23 UNK     1      18.985   5.366  30.189  1.00  0.00     0.100 C 
ENDROOT
BRANCH   3   5
HETATM    5  C13 UNK     1      18.716   2.947  30.726  1.00  0.00    -0.015 A 
HETATM    6  C17 UNK     1      18.960   2.013  31.733  1.00  0.00     0.013 A 
HETATM    7  C19 UNK     1      19.184   0.676  31.406  1.00  0.00     0.001 A 
HETATM    8  C21 UNK     1      19.164   0.271  30.072  1.00  0.00     0.000 A 
HETATM    9  C20 UNK     1      18.920   1.204  29.064  1.00  0.00     0.001 A 
HETATM   10  C18 UNK     1      18.696   2.543  29.391  1.00  0.00     0.013 A 
ENDBRANCH   3   5
BRANCH   2  11
HETATM   11  C2  UNK     1      17.566   6.143  32.568  1.00  0.00    -0.015 A 
HETATM   12  C5  UNK     1      16.278   6.629  32.381  1.00  0.00     0.052 A 
HETATM   13  C3  UNK     1      15.982   7.947  32.731  1.00  0.00     0.102 A 
HETATM   14  C1  UNK     1      16.977   8.767  33.264  1.00  0.00     0.103 A 
HETATM   15  C7  UNK     1      18.267   8.269  33.447  1.00  0.00     0.059 A 
HETATM   16  C8  UNK     1      18.562   6.951  33.098  1.00  0.00     0.024 A 
HETATM   17 Br1  UNK     1      20.339   6.337  33.374  1.00  0.00    -0.050 Br
BRANCH  13  18
HETATM   18  O2  UNK     1      14.719   8.422  32.546  1.00  0.00    -0.353 OA
HETATM   19  C22 UNK     1      13.658   7.469  32.567  1.00  0.00     0.210 C 
ENDBRANCH  13  18
BRANCH  14  20
HETATM   20  O1  UNK     1      16.700  10.056  33.608  1.00  0.00    -0.344 OA
BRANCH  20  21
HETATM   21  C4  UNK     1      17.812  10.911  33.862  1.00  0.00     0.216 C 
BRANCH  21  22
HETATM   22  C6  UNK     1      17.307  12.236  34.355  1.00  0.00    -0.012 A 
HETATM   23  C11 UNK     1      17.815  13.436  33.864  1.00  0.00     0.044 A 
HETATM   24 Cl1  UNK     1      19.052  13.465  32.661  1.00  0.00    -0.084 Cl
HETATM   25  C14 UNK     1      17.320  14.647  34.347  1.00  0.00     0.048 A 
HETATM   26  C16 UNK     1      16.321  14.654  35.320  1.00  0.00     0.035 A 
HETATM   27  C15 UNK     1      15.814  13.450  35.809  1.00  0.00     0.024 A 
HETATM   28 Cl2  UNK     1      15.709  16.148  35.916  1.00  0.00    -0.084 Cl
HETATM   29  C12 UNK     1      16.309  12.238  35.325  1.00  0.00     0.013 A 
ENDBRANCH  21  22
ENDBRANCH  20  21
ENDBRANCH  14  20
ENDBRANCH   2  11
TORSDOF 6
ENDMDL
MODEL 7
REMARK VINA RESULT:      -7.9     23.230     24.736
REMARK  6 active torsions:
REMARK  status: ('A' for Active; 'I' for Inactive)
REMARK    1  A    between atoms: C1_7  and  O1_4 
REMARK    2  A    between atoms: C4_10  and  O1_4 
REMARK    3  A    between atoms: C3_9  and  O2_5 
REMARK    4  A    between atoms: C2_8  and  C9_15 
REMARK    5  A    between atoms: C4_10  and  C6_12 
REMARK    6  A    between atoms: C10_16  and  C13_19 
ROOT
HETATM    1  N1  UNK     1      12.856   5.829  10.286  1.00  0.00    -0.191 NA
HETATM    2  C9  UNK     1      12.148   8.993   9.110  1.00  0.00     0.036 C 
HETATM    3  C10 UNK     1      13.240   8.271   9.478  1.00  0.00     0.055 C 
HETATM    4  C23 UNK     1      13.018   6.920   9.923  1.00  0.00     0.100 C 
ENDROOT
BRANCH   3   5
HETATM    5  C13 UNK     1      14.601   8.783   9.436  1.00  0.00    -0.015 A 
HETATM    6  C17 UNK     1      15.621   8.110  10.108  1.00  0.00     0.013 A 
HETATM    7  C19 UNK     1      16.926   8.602  10.068  1.00  0.00     0.001 A 
HETATM    8  C21 UNK     1      17.211   9.766   9.355  1.00  0.00     0.000 A 
HETATM    9  C20 UNK     1      16.191  10.439   8.682  1.00  0.00     0.001 A 
HETATM   10  C18 UNK     1      14.885   9.948   8.722  1.00  0.00     0.013 A 
ENDBRANCH   3   5
BRANCH   2  11
HETATM   11  C2  UNK     1      10.758   8.514   9.130  1.00  0.00    -0.015 A 
HETATM   12  C5  UNK     1      10.450   7.434   8.311  1.00  0.00     0.052 A 
HETATM   13  C3  UNK     1       9.146   6.937   8.290  1.00  0.00     0.102 A 
HETATM   14  C1  UNK     1       8.162   7.525   9.087  1.00  0.00     0.103 A 
HETATM   15  C7  UNK     1       8.483   8.608   9.905  1.00  0.00     0.059 A 
HETATM   16  C8  UNK     1       9.787   9.104   9.926  1.00  0.00     0.024 A 
HETATM   17 Br1  UNK     1      10.156  10.582  11.063  1.00  0.00    -0.050 Br
BRANCH  13  18
HETATM   18  O2  UNK     1       8.845   5.880   7.486  1.00  0.00    -0.353 OA
HETATM   19  C22 UNK     1       9.326   5.926   6.145  1.00  0.00     0.210 C 
ENDBRANCH  13  18
BRANCH  14  20
HETATM   20  O1  UNK     1       6.886   7.048   9.074  1.00  0.00    -0.344 OA
BRANCH  20  21
HETATM   21  C4  UNK     1       6.050   7.408  10.172  1.00  0.00     0.216 C 
BRANCH  21  22
HETATM   22  C6  UNK     1       5.896   6.222  11.079  1.00  0.00    -0.012 A 
HETATM   23  C11 UNK     1       5.841   6.368  12.463  1.00  0.00     0.044 A 
HETATM   24 Cl1  UNK     1       5.946   7.920  13.210  1.00  0.00    -0.084 Cl
HETATM   25  C14 UNK     1       5.698   5.242  13.272  1.00  0.00     0.048 A 
HETATM   26  C16 UNK     1       5.611   3.975  12.697  1.00  0.00     0.035 A 
HETATM   27  C15 UNK     1       5.666   3.833  11.310  1.00  0.00     0.024 A 
HETATM   28 Cl2  UNK     1       5.433   2.584  13.695  1.00  0.00    -0.084 Cl
HETATM   29  C12 UNK     1       5.809   4.960  10.499  1.00  0.00     0.013 A 
ENDBRANCH  21  22
ENDBRANCH  20  21
ENDBRANCH  14  20
ENDBRANCH   2  11
TORSDOF 6
ENDMDL
MODEL 8
REMARK VINA RESULT:      -7.9     17.457     19.894
REMARK  6 active torsions:
REMARK  status: ('A' for Active; 'I' for Inactive)
REMARK    1  A    between atoms: C1_7  and  O1_4 
REMARK    2  A    between atoms: C4_10  and  O1_4 
REMARK    3  A    between atoms: C3_9  and  O2_5 
REMARK    4  A    between atoms: C2_8  and  C9_15 
REMARK    5  A    between atoms: C4_10  and  C6_12 
REMARK    6  A    between atoms: C10_16  and  C13_19 
ROOT
HETATM    1  N1  UNK     1      26.634  -5.856  39.007  1.00  0.00    -0.191 NA
HETATM    2  C9  UNK     1      26.176  -9.048  37.784  1.00  0.00     0.036 C 
HETATM    3  C10 UNK     1      25.413  -8.023  38.249  1.00  0.00     0.055 C 
HETATM    4  C23 UNK     1      26.098  -6.827  38.666  1.00  0.00     0.100 C 
ENDROOT
BRANCH   3   5
HETATM    5  C13 UNK     1      23.962  -8.069  38.335  1.00  0.00    -0.015 A 
HETATM    6  C17 UNK     1      23.308  -7.484  39.420  1.00  0.00     0.013 A 
HETATM    7  C19 UNK     1      21.916  -7.529  39.503  1.00  0.00     0.001 A 
HETATM    8  C21 UNK     1      21.178  -8.158  38.501  1.00  0.00     0.000 A 
HETATM    9  C20 UNK     1      21.831  -8.743  37.416  1.00  0.00     0.001 A 
HETATM   10  C18 UNK     1      23.224  -8.699  37.333  1.00  0.00     0.013 A 
ENDBRANCH   3   5
BRANCH   2  11
HETATM   11  C2  UNK     1      27.642  -9.041  37.673  1.00  0.00    -0.015 A 
HETATM   12  C5  UNK     1      28.186  -8.522  36.504  1.00  0.00     0.052 A 
HETATM   13  C3  UNK     1      29.572  -8.490  36.344  1.00  0.00     0.102 A 
HETATM   14  C1  UNK     1      30.401  -8.979  37.354  1.00  0.00     0.103 A 
HETATM   15  C7  UNK     1      29.845  -9.499  38.523  1.00  0.00     0.059 A 
HETATM   16  C8  UNK     1      28.460  -9.529  38.683  1.00  0.00     0.024 A 
HETATM   17 Br1  UNK     1      27.769 -10.250  40.300  1.00  0.00    -0.050 Br
BRANCH  13  18
HETATM   18  O2  UNK     1      30.102  -7.981  35.198  1.00  0.00    -0.353 OA
HETATM   19  C22 UNK     1      29.582  -6.736  34.739  1.00  0.00     0.210 C 
ENDBRANCH  13  18
BRANCH  14  20
HETATM   20  O1  UNK     1      31.755  -8.954  37.209  1.00  0.00    -0.344 OA
BRANCH  20  21
HETATM   21  C4  UNK     1      32.477  -8.036  38.027  1.00  0.00     0.216 C 
BRANCH  21  22
HETATM   22  C6  UNK     1      32.954  -6.894  37.178  1.00  0.00    -0.012 A 
HETATM   23  C11 UNK     1      32.260  -5.687  37.128  1.00  0.00     0.044 A 
HETATM   24 Cl1  UNK     1      30.816  -5.439  38.039  1.00  0.00    -0.084 Cl
HETATM   25  C14 UNK     1      32.735  -4.649  36.327  1.00  0.00     0.048 A 
HETATM   26  C16 UNK     1      33.899  -4.820  35.579  1.00  0.00     0.035 A 
HETATM   27  C15 UNK     1      34.591  -6.030  35.633  1.00  0.00     0.024 A 
HETATM   28 Cl2  UNK     1      34.485  -3.539  34.591  1.00  0.00    -0.084 Cl
HETATM   29  C12 UNK     1      34.116  -7.070  36.435  1.00  0.00     0.013 A 
ENDBRANCH  21  22
ENDBRANCH  20  21
ENDBRANCH  14  20
ENDBRANCH   2  11
TORSDOF 6
ENDMDL
MODEL 9
REMARK VINA RESULT:      -7.8     19.118     21.119
REMARK  6 active torsions:
REMARK  status: ('A' for Active; 'I' for Inactive)
REMARK    1  A    between atoms: C1_7  and  O1_4 
REMARK    2  A    between atoms: C4_10  and  O1_4 
REMARK    3  A    between atoms: C3_9  and  O2_5 
REMARK    4  A    between atoms: C2_8  and  C9_15 
REMARK    5  A    between atoms: C4_10  and  C6_12 
REMARK    6  A    between atoms: C10_16  and  C13_19 
ROOT
HETATM    1  N1  UNK     1      31.865  -8.568  38.296  1.00  0.00    -0.191 NA
HETATM    2  C9  UNK     1      29.194  -6.788  37.034  1.00  0.00     0.036 C 
HETATM    3  C10 UNK     1      29.406  -7.831  37.881  1.00  0.00     0.055 C 
HETATM    4  C23 UNK     1      30.771  -8.232  38.105  1.00  0.00     0.100 C 
ENDROOT
BRANCH   3   5
HETATM    5  C13 UNK     1      28.342  -8.546  38.567  1.00  0.00    -0.015 A 
HETATM    6  C17 UNK     1      28.615  -9.747  39.221  1.00  0.00     0.013 A 
HETATM    7  C19 UNK     1      27.594 -10.432  39.879  1.00  0.00     0.001 A 
HETATM    8  C21 UNK     1      26.299  -9.917  39.883  1.00  0.00     0.000 A 
HETATM    9  C20 UNK     1      26.024  -8.715  39.229  1.00  0.00     0.001 A 
HETATM   10  C18 UNK     1      27.045  -8.030  38.571  1.00  0.00     0.013 A 
ENDBRANCH   3   5
BRANCH   2  11
HETATM   11  C2  UNK     1      30.239  -6.033  36.327  1.00  0.00    -0.015 A 
HETATM   12  C5  UNK     1      30.614  -6.497  35.072  1.00  0.00     0.052 A 
HETATM   13  C3  UNK     1      31.601  -5.819  34.355  1.00  0.00     0.102 A 
HETATM   14  C1  UNK     1      32.203  -4.685  34.899  1.00  0.00     0.103 A 
HETATM   15  C7  UNK     1      31.819  -4.228  36.160  1.00  0.00     0.059 A 
HETATM   16  C8  UNK     1      30.832  -4.905  36.876  1.00  0.00     0.024 A 
HETATM   17 Br1  UNK     1      30.355  -4.229  38.587  1.00  0.00    -0.050 Br
BRANCH  13  18
HETATM   18  O2  UNK     1      31.968  -6.277  33.125  1.00  0.00    -0.353 OA
HETATM   19  C22 UNK     1      32.376  -7.640  33.035  1.00  0.00     0.210 C 
ENDBRANCH  13  18
BRANCH  14  20
HETATM   20  O1  UNK     1      33.168  -4.015  34.208  1.00  0.00    -0.344 OA
BRANCH  20  21
HETATM   21  C4  UNK     1      34.489  -4.048  34.743  1.00  0.00     0.216 C 
BRANCH  21  22
HETATM   22  C6  UNK     1      35.137  -5.348  34.365  1.00  0.00    -0.012 A 
HETATM   23  C11 UNK     1      35.371  -6.345  35.309  1.00  0.00     0.044 A 
HETATM   24 Cl1  UNK     1      34.927  -6.141  36.964  1.00  0.00    -0.084 Cl
HETATM   25  C14 UNK     1      35.976  -7.539  34.919  1.00  0.00     0.048 A 
HETATM   26  C16 UNK     1      36.346  -7.732  33.588  1.00  0.00     0.035 A 
HETATM   27  C15 UNK     1      36.109  -6.731  32.646  1.00  0.00     0.024 A 
HETATM   28 Cl2  UNK     1      37.092  -9.206  33.106  1.00  0.00    -0.084 Cl
HETATM   29  C12 UNK     1      35.503  -5.536  33.036  1.00  0.00     0.013 A 
ENDBRANCH  21  22
ENDBRANCH  20  21
ENDBRANCH  14  20
ENDBRANCH   2  11
TORSDOF 6
ENDMDL
MODEL 10
REMARK VINA RESULT:      -7.8     18.537     20.235
REMARK  6 active torsions:
REMARK  status: ('A' for Active; 'I' for Inactive)
REMARK    1  A    between atoms: C1_7  and  O1_4 
REMARK    2  A    between atoms: C4_10  and  O1_4 
REMARK    3  A    between atoms: C3_9  and  O2_5 
REMARK    4  A    between atoms: C2_8  and  C9_15 
REMARK    5  A    between atoms: C4_10  and  C6_12 
REMARK    6  A    between atoms: C10_16  and  C13_19 
ROOT
HETATM    1  N1  UNK     1      28.623  -8.547  33.921  1.00  0.00    -0.191 NA
HETATM    2  C9  UNK     1      31.478  -8.851  32.012  1.00  0.00     0.036 C 
HETATM    3  C10 UNK     1      30.137  -9.013  31.859  1.00  0.00     0.055 C 
HETATM    4  C23 UNK     1      29.306  -8.752  33.006  1.00  0.00     0.100 C 
ENDROOT
BRANCH   3   5
HETATM    5  C13 UNK     1      29.507  -9.421  30.613  1.00  0.00    -0.015 A 
HETATM    6  C17 UNK     1      30.127 -10.363  29.793  1.00  0.00     0.013 A 
HETATM    7  C19 UNK     1      29.524 -10.754  28.598  1.00  0.00     0.001 A 
HETATM    8  C21 UNK     1      28.299 -10.203  28.223  1.00  0.00     0.000 A 
HETATM    9  C20 UNK     1      27.677  -9.261  29.043  1.00  0.00     0.001 A 
HETATM   10  C18 UNK     1      28.282  -8.869  30.238  1.00  0.00     0.013 A 
ENDBRANCH   3   5
BRANCH   2  11
HETATM   11  C2  UNK     1      32.155  -8.434  33.248  1.00  0.00    -0.015 A 
HETATM   12  C5  UNK     1      32.476  -7.087  33.370  1.00  0.00     0.052 A 
HETATM   13  C3  UNK     1      33.119  -6.635  34.524  1.00  0.00     0.102 A 
HETATM   14  C1  UNK     1      33.436  -7.533  35.544  1.00  0.00     0.103 A 
HETATM   15  C7  UNK     1      33.108  -8.883  35.410  1.00  0.00     0.059 A 
HETATM   16  C8  UNK     1      32.465  -9.334  34.258  1.00  0.00     0.024 A 
HETATM   17 Br1  UNK     1      32.048 -11.185  34.142  1.00  0.00    -0.050 Br
BRANCH  13  18
HETATM   18  O2  UNK     1      33.434  -5.315  34.641  1.00  0.00    -0.353 OA
HETATM   19  C22 UNK     1      32.351  -4.389  34.665  1.00  0.00     0.210 C 
ENDBRANCH  13  18
BRANCH  14  20
HETATM   20  O1  UNK     1      34.063  -7.103  36.673  1.00  0.00    -0.344 OA
BRANCH  20  21
HETATM   21  C4  UNK     1      33.499  -7.504  37.920  1.00  0.00     0.216 C 
BRANCH  21  22
HETATM   22  C6  UNK     1      32.211  -6.764  38.134  1.00  0.00    -0.012 A 
HETATM   23  C11 UNK     1      30.997  -7.438  38.250  1.00  0.00     0.044 A 
HETATM   24 Cl1  UNK     1      30.908  -9.158  38.153  1.00  0.00    -0.084 Cl
HETATM   25  C14 UNK     1      29.821  -6.715  38.448  1.00  0.00     0.048 A 
HETATM   26  C16 UNK     1      29.862  -5.324  38.530  1.00  0.00     0.035 A 
HETATM   27  C15 UNK     1      31.080  -4.653  38.415  1.00  0.00     0.024 A 
HETATM   28 Cl2  UNK     1      28.411  -4.431  38.776  1.00  0.00    -0.084 Cl
HETATM   29  C12 UNK     1      32.257  -5.376  38.216  1.00  0.00     0.013 A 
ENDBRANCH  21  22
ENDBRANCH  20  21
ENDBRANCH  14  20
ENDBRANCH   2  11
TORSDOF 6
ENDMDL
