MODEL 1
REMARK VINA RESULT:      -8.7      0.000      0.000
REMARK  2 active torsions:
REMARK  status: ('A' for Active; 'I' for Inactive)
REMARK    1  A    between atoms: C8_14  and  N1_5 
REMARK    2  A    between atoms: C1_7  and  C3_9 
ROOT
HETATM    1  O1  UNK     1      21.581  -6.658  14.576  1.00  0.00    -0.269 OA
HETATM    2  O2  UNK     1      22.990  -5.605  16.125  1.00  0.00    -0.286 OA
HETATM    3  O3  UNK     1      20.271  -2.648  16.772  1.00  0.00    -0.287 OA
HETATM    4  N2  UNK     1      17.044  -6.401  12.977  1.00  0.00    -0.191 NA
HETATM    5  C1  UNK     1      19.563  -4.635  14.793  1.00  0.00     0.109 C 
HETATM    6  C2  UNK     1      20.857  -4.622  15.578  1.00  0.00     0.065 A 
HETATM    7  C4  UNK     1      19.357  -5.949  14.055  1.00  0.00     0.086 C 
HETATM    8  C5  UNK     1      21.783  -5.589  15.441  1.00  0.00     0.204 A 
HETATM    9  C6  UNK     1      21.097  -3.525  16.554  1.00  0.00     0.197 A 
HETATM   10  C7  UNK     1      22.388  -3.547  17.255  1.00  0.00     0.049 A 
HETATM   11  C8  UNK     1      20.342  -6.871  13.974  1.00  0.00     0.162 C 
HETATM   12  C9  UNK     1      23.271  -4.590  17.001  1.00  0.00     0.092 A 
HETATM   13  C12 UNK     1      22.727  -2.540  18.163  1.00  0.00     0.018 A 
HETATM   14  C13 UNK     1      24.504  -4.636  17.651  1.00  0.00     0.038 A 
HETATM   15  C16 UNK     1      18.079  -6.198  13.460  1.00  0.00     0.100 C 
HETATM   16  C17 UNK     1      23.961  -2.587  18.814  1.00  0.00     0.001 A 
HETATM   17  C19 UNK     1      24.848  -3.633  18.559  1.00  0.00     0.003 A 
ENDROOT
BRANCH   5  18
HETATM   18  C3  UNK     1      19.522  -3.485  13.829  1.00  0.00    -0.043 A 
HETATM   19  C10 UNK     1      20.312  -3.517  12.685  1.00  0.00     0.032 A 
HETATM   20  C14 UNK     1      20.273  -2.449  11.790  1.00  0.00     0.034 A 
HETATM   21 Cl1  UNK     1      21.246  -2.479  10.371  1.00  0.00    -0.084 Cl
HETATM   22  C18 UNK     1      19.443  -1.356  12.043  1.00  0.00     0.024 A 
HETATM   23  C15 UNK     1      18.654  -1.331  13.192  1.00  0.00     0.002 A 
HETATM   24  C11 UNK     1      18.693  -2.399  14.089  1.00  0.00     0.008 A 
ENDBRANCH   5  18
BRANCH  11  25
HETATM   25  N1  UNK     1      20.249  -8.069  13.319  1.00  0.00    -0.379 N 
HETATM   26  H10 UNK     1      19.569  -8.207  12.583  1.00  0.00     0.158 HD
HETATM   27  H11 UNK     1      20.876  -8.818  13.581  1.00  0.00     0.158 HD
ENDBRANCH  11  25
TORSDOF 2
ENDMDL
MODEL 2
REMARK VINA RESULT:      -8.4     22.159     24.443
REMARK  2 active torsions:
REMARK  status: ('A' for Active; 'I' for Inactive)
REMARK    1  A    between atoms: C8_14  and  N1_5 
REMARK    2  A    between atoms: C1_7  and  C3_9 
ROOT
HETATM    1  O1  UNK     1      27.683  -4.733  38.780  1.00  0.00    -0.269 OA
HETATM    2  O2  UNK     1      25.424  -5.317  39.012  1.00  0.00    -0.286 OA
HETATM    3  O3  UNK     1      26.239  -9.238  38.295  1.00  0.00    -0.287 OA
HETATM    4  N2  UNK     1      31.997  -6.844  38.393  1.00  0.00    -0.191 NA
HETATM    5  C1  UNK     1      28.477  -7.414  38.152  1.00  0.00     0.109 C 
HETATM    6  C2  UNK     1      27.053  -7.009  38.461  1.00  0.00     0.065 A 
HETATM    7  C4  UNK     1      29.465  -6.291  38.435  1.00  0.00     0.086 C 
HETATM    8  C5  UNK     1      26.720  -5.735  38.743  1.00  0.00     0.204 A 
HETATM    9  C6  UNK     1      25.995  -8.053  38.484  1.00  0.00     0.197 A 
HETATM   10  C7  UNK     1      24.626  -7.591  38.750  1.00  0.00     0.049 A 
HETATM   11  C8  UNK     1      29.041  -5.039  38.720  1.00  0.00     0.162 C 
HETATM   12  C9  UNK     1      24.413  -6.239  38.999  1.00  0.00     0.092 A 
HETATM   13  C12 UNK     1      23.554  -8.487  38.754  1.00  0.00     0.018 A 
HETATM   14  C13 UNK     1      23.123  -5.771  39.254  1.00  0.00     0.038 A 
HETATM   15  C16 UNK     1      30.863  -6.597  38.412  1.00  0.00     0.100 C 
HETATM   16  C17 UNK     1      22.265  -8.018  39.010  1.00  0.00     0.001 A 
HETATM   17  C19 UNK     1      22.049  -6.662  39.260  1.00  0.00     0.003 A 
ENDROOT
BRANCH   5  18
HETATM   18  C3  UNK     1      28.598  -7.864  36.726  1.00  0.00    -0.043 A 
HETATM   19  C10 UNK     1      28.264  -6.991  35.697  1.00  0.00     0.032 A 
HETATM   20  C14 UNK     1      28.377  -7.410  34.371  1.00  0.00     0.034 A 
HETATM   21 Cl1  UNK     1      27.966  -6.336  33.091  1.00  0.00    -0.084 Cl
HETATM   22  C18 UNK     1      28.825  -8.699  34.083  1.00  0.00     0.024 A 
HETATM   23  C15 UNK     1      29.159  -9.570  35.120  1.00  0.00     0.002 A 
HETATM   24  C11 UNK     1      29.046  -9.152  36.446  1.00  0.00     0.008 A 
ENDBRANCH   5  18
BRANCH  11  25
HETATM   25  N1  UNK     1      29.856  -3.970  38.972  1.00  0.00    -0.379 N 
HETATM   26  H10 UNK     1      30.857  -4.036  38.839  1.00  0.00     0.158 HD
HETATM   27  H11 UNK     1      29.442  -3.104  39.292  1.00  0.00     0.158 HD
ENDBRANCH  11  25
TORSDOF 2
ENDMDL
MODEL 3
REMARK VINA RESULT:      -8.4     20.961     23.905
REMARK  2 active torsions:
REMARK  status: ('A' for Active; 'I' for Inactive)
REMARK    1  A    between atoms: C8_14  and  N1_5 
REMARK    2  A    between atoms: C1_7  and  C3_9 
ROOT
HETATM    1  O1  UNK     1      30.750  -4.122  37.252  1.00  0.00    -0.269 OA
HETATM    2  O2  UNK     1      29.425  -5.731  38.326  1.00  0.00    -0.286 OA
HETATM    3  O3  UNK     1      31.304  -8.761  36.366  1.00  0.00    -0.287 OA
HETATM    4  N2  UNK     1      34.657  -3.866  34.446  1.00  0.00    -0.191 NA
HETATM    5  C1  UNK     1      32.141  -6.078  35.687  1.00  0.00     0.109 C 
HETATM    6  C2  UNK     1      31.065  -6.417  36.696  1.00  0.00     0.065 A 
HETATM    7  C4  UNK     1      32.555  -4.615  35.764  1.00  0.00     0.086 C 
HETATM    8  C5  UNK     1      30.429  -5.466  37.406  1.00  0.00     0.204 A 
HETATM    9  C6  UNK     1      30.723  -7.845  36.933  1.00  0.00     0.197 A 
HETATM   10  C7  UNK     1      29.644  -8.106  37.895  1.00  0.00     0.049 A 
HETATM   11  C8  UNK     1      31.862  -3.728  36.511  1.00  0.00     0.162 C 
HETATM   12  C9  UNK     1      29.048  -7.029  38.542  1.00  0.00     0.092 A 
HETATM   13  C12 UNK     1      29.220  -9.411  38.159  1.00  0.00     0.018 A 
HETATM   14  C13 UNK     1      28.020  -7.248  39.459  1.00  0.00     0.038 A 
HETATM   15  C16 UNK     1      33.716  -4.202  35.036  1.00  0.00     0.100 C 
HETATM   16  C17 UNK     1      28.192  -9.629  39.078  1.00  0.00     0.001 A 
HETATM   17  C19 UNK     1      27.592  -8.549  39.727  1.00  0.00     0.003 A 
ENDROOT
BRANCH   5  18
HETATM   18  C3  UNK     1      31.684  -6.416  34.298  1.00  0.00    -0.043 A 
HETATM   19  C10 UNK     1      30.478  -5.908  33.827  1.00  0.00     0.032 A 
HETATM   20  C14 UNK     1      30.055  -6.222  32.536  1.00  0.00     0.034 A 
HETATM   21 Cl1  UNK     1      28.565  -5.597  31.943  1.00  0.00    -0.084 Cl
HETATM   22  C18 UNK     1      30.839  -7.041  31.724  1.00  0.00     0.024 A 
HETATM   23  C15 UNK     1      32.047  -7.548  32.204  1.00  0.00     0.002 A 
HETATM   24  C11 UNK     1      32.471  -7.234  33.495  1.00  0.00     0.008 A 
ENDBRANCH   5  18
BRANCH  11  25
HETATM   25  N1  UNK     1      32.154  -2.396  36.626  1.00  0.00    -0.379 N 
HETATM   26  H10 UNK     1      32.058  -1.917  37.512  1.00  0.00     0.158 HD
HETATM   27  H11 UNK     1      32.473  -1.894  35.807  1.00  0.00     0.158 HD
ENDBRANCH  11  25
TORSDOF 2
ENDMDL
MODEL 4
REMARK VINA RESULT:      -8.4     21.089     24.190
REMARK  2 active torsions:
REMARK  status: ('A' for Active; 'I' for Inactive)
REMARK    1  A    between atoms: C8_14  and  N1_5 
REMARK    2  A    between atoms: C1_7  and  C3_9 
ROOT
HETATM    1  O1  UNK     1      32.099  -6.430  36.948  1.00  0.00    -0.269 OA
HETATM    2  O2  UNK     1      31.877  -7.494  34.871  1.00  0.00    -0.286 OA
HETATM    3  O3  UNK     1      27.876  -6.752  34.784  1.00  0.00    -0.287 OA
HETATM    4  N2  UNK     1      29.523  -3.696  39.965  1.00  0.00    -0.191 NA
HETATM    5  C1  UNK     1      29.293  -5.887  37.152  1.00  0.00     0.109 C 
HETATM    6  C2  UNK     1      29.931  -6.591  35.974  1.00  0.00     0.065 A 
HETATM    7  C4  UNK     1      30.331  -5.303  38.099  1.00  0.00     0.086 C 
HETATM    8  C5  UNK     1      31.254  -6.835  35.922  1.00  0.00     0.204 A 
HETATM    9  C6  UNK     1      29.076  -6.997  34.827  1.00  0.00     0.197 A 
HETATM   10  C7  UNK     1      29.747  -7.712  33.734  1.00  0.00     0.049 A 
HETATM   11  C8  UNK     1      31.644  -5.595  37.967  1.00  0.00     0.162 C 
HETATM   12  C9  UNK     1      31.119  -7.925  33.815  1.00  0.00     0.092 A 
HETATM   13  C12 UNK     1      29.026  -8.171  32.628  1.00  0.00     0.018 A 
HETATM   14  C13 UNK     1      31.783  -8.602  32.791  1.00  0.00     0.038 A 
HETATM   15  C16 UNK     1      29.885  -4.415  39.129  1.00  0.00     0.100 C 
HETATM   16  C17 UNK     1      29.691  -8.848  31.604  1.00  0.00     0.001 A 
HETATM   17  C19 UNK     1      31.067  -9.063  31.685  1.00  0.00     0.003 A 
ENDROOT
BRANCH   5  18
HETATM   18  C3  UNK     1      28.382  -6.821  37.892  1.00  0.00    -0.043 A 
HETATM   19  C10 UNK     1      28.890  -8.001  38.425  1.00  0.00     0.032 A 
HETATM   20  C14 UNK     1      28.043  -8.869  39.113  1.00  0.00     0.034 A 
HETATM   21 Cl1  UNK     1      28.662 -10.331  39.776  1.00  0.00    -0.084 Cl
HETATM   22  C18 UNK     1      26.693  -8.551  39.266  1.00  0.00     0.024 A 
HETATM   23  C15 UNK     1      26.190  -7.366  38.729  1.00  0.00     0.002 A 
HETATM   24  C11 UNK     1      27.037  -6.498  38.040  1.00  0.00     0.008 A 
ENDBRANCH   5  18
BRANCH  11  25
HETATM   25  N1  UNK     1      32.641  -5.128  38.780  1.00  0.00    -0.379 N 
HETATM   26  H10 UNK     1      33.064  -4.223  38.617  1.00  0.00     0.158 HD
HETATM   27  H11 UNK     1      32.949  -5.702  39.553  1.00  0.00     0.158 HD
ENDBRANCH  11  25
TORSDOF 2
ENDMDL
MODEL 5
REMARK VINA RESULT:      -8.2     18.853     22.462
REMARK  2 active torsions:
REMARK  status: ('A' for Active; 'I' for Inactive)
REMARK    1  A    between atoms: C8_14  and  N1_5 
REMARK    2  A    between atoms: C1_7  and  C3_9 
ROOT
HETATM    1  O1  UNK     1      32.305  -9.173  33.380  1.00  0.00    -0.269 OA
HETATM    2  O2  UNK     1      30.290  -8.913  32.211  1.00  0.00    -0.286 OA
HETATM    3  O3  UNK     1      30.545  -4.858  32.433  1.00  0.00    -0.287 OA
HETATM    4  N2  UNK     1      36.000  -6.517  34.959  1.00  0.00    -0.191 NA
HETATM    5  C1  UNK     1      32.643  -6.352  33.747  1.00  0.00     0.109 C 
HETATM    6  C2  UNK     1      31.478  -6.970  33.007  1.00  0.00     0.065 A 
HETATM    7  C4  UNK     1      33.722  -7.376  34.072  1.00  0.00     0.086 C 
HETATM    8  C5  UNK     1      31.351  -8.303  32.864  1.00  0.00     0.204 A 
HETATM    9  C6  UNK     1      30.459  -6.079  32.392  1.00  0.00     0.197 A 
HETATM   10  C7  UNK     1      29.331  -6.740  31.723  1.00  0.00     0.049 A 
HETATM   11  C8  UNK     1      33.512  -8.698  33.888  1.00  0.00     0.162 C 
HETATM   12  C9  UNK     1      29.306  -8.130  31.669  1.00  0.00     0.092 A 
HETATM   13  C12 UNK     1      28.300  -5.993  31.148  1.00  0.00     0.018 A 
HETATM   14  C13 UNK     1      28.246  -8.785  31.040  1.00  0.00     0.038 A 
HETATM   15  C16 UNK     1      34.980  -6.901  34.562  1.00  0.00     0.100 C 
HETATM   16  C17 UNK     1      27.241  -6.649  30.518  1.00  0.00     0.001 A 
HETATM   17  C19 UNK     1      27.214  -8.043  30.464  1.00  0.00     0.003 A 
ENDROOT
BRANCH   5  18
HETATM   18  C3  UNK     1      32.171  -5.679  35.003  1.00  0.00    -0.043 A 
HETATM   19  C10 UNK     1      31.425  -6.397  35.930  1.00  0.00     0.032 A 
HETATM   20  C14 UNK     1      30.987  -5.772  37.097  1.00  0.00     0.034 A 
HETATM   21 Cl1  UNK     1      30.063  -6.652  38.252  1.00  0.00    -0.084 Cl
HETATM   22  C18 UNK     1      31.299  -4.432  37.330  1.00  0.00     0.024 A 
HETATM   23  C15 UNK     1      32.048  -3.717  36.395  1.00  0.00     0.002 A 
HETATM   24  C11 UNK     1      32.486  -4.343  35.227  1.00  0.00     0.008 A 
ENDBRANCH   5  18
BRANCH  11  25
HETATM   25  N1  UNK     1      34.417  -9.686  34.166  1.00  0.00    -0.379 N 
HETATM   26  H10 UNK     1      35.409  -9.535  34.033  1.00  0.00     0.158 HD
HETATM   27  H11 UNK     1      34.079 -10.574  34.513  1.00  0.00     0.158 HD
ENDBRANCH  11  25
TORSDOF 2
ENDMDL
MODEL 6
REMARK VINA RESULT:      -8.0     19.770     23.494
REMARK  2 active torsions:
REMARK  status: ('A' for Active; 'I' for Inactive)
REMARK    1  A    between atoms: C8_14  and  N1_5 
REMARK    2  A    between atoms: C1_7  and  C3_9 
ROOT
HETATM    1  O1  UNK     1      31.732  -4.990  34.829  1.00  0.00    -0.269 OA
HETATM    2  O2  UNK     1      31.119  -6.066  32.839  1.00  0.00    -0.286 OA
HETATM    3  O3  UNK     1      28.029  -7.971  34.678  1.00  0.00    -0.287 OA
HETATM    4  N2  UNK     1      30.053  -4.294  39.291  1.00  0.00    -0.191 NA
HETATM    5  C1  UNK     1      29.686  -6.295  36.353  1.00  0.00     0.109 C 
HETATM    6  C2  UNK     1      29.898  -6.510  34.871  1.00  0.00     0.065 A 
HETATM    7  C4  UNK     1      30.528  -5.145  36.889  1.00  0.00     0.086 C 
HETATM    8  C5  UNK     1      30.878  -5.883  34.193  1.00  0.00     0.204 A 
HETATM    9  C6  UNK     1      28.977  -7.416  34.135  1.00  0.00     0.197 A 
HETATM   10  C7  UNK     1      29.259  -7.615  32.707  1.00  0.00     0.049 A 
HETATM   11  C8  UNK     1      31.487  -4.566  36.134  1.00  0.00     0.162 C 
HETATM   12  C9  UNK     1      30.322  -6.927  32.132  1.00  0.00     0.092 A 
HETATM   13  C12 UNK     1      28.477  -8.478  31.934  1.00  0.00     0.018 A 
HETATM   14  C13 UNK     1      30.614  -7.097  30.779  1.00  0.00     0.038 A 
HETATM   15  C16 UNK     1      30.265  -4.675  38.216  1.00  0.00     0.100 C 
HETATM   16  C17 UNK     1      28.769  -8.647  30.580  1.00  0.00     0.001 A 
HETATM   17  C19 UNK     1      29.836  -7.957  30.003  1.00  0.00     0.003 A 
ENDROOT
BRANCH   5  18
HETATM   18  C3  UNK     1      29.981  -7.554  37.114  1.00  0.00    -0.043 A 
HETATM   19  C10 UNK     1      28.980  -8.151  37.873  1.00  0.00     0.032 A 
HETATM   20  C14 UNK     1      29.254  -9.321  38.580  1.00  0.00     0.034 A 
HETATM   21 Cl1  UNK     1      28.022 -10.067  39.521  1.00  0.00    -0.084 Cl
HETATM   22  C18 UNK     1      30.527  -9.888  38.523  1.00  0.00     0.024 A 
HETATM   23  C15 UNK     1      31.527  -9.284  37.760  1.00  0.00     0.002 A 
HETATM   24  C11 UNK     1      31.253  -8.113  37.053  1.00  0.00     0.008 A 
ENDBRANCH   5  18
BRANCH  11  25
HETATM   25  N1  UNK     1      32.298  -3.541  36.539  1.00  0.00    -0.379 N 
HETATM   26  H10 UNK     1      32.004  -2.578  36.445  1.00  0.00     0.158 HD
HETATM   27  H11 UNK     1      33.200  -3.762  36.941  1.00  0.00     0.158 HD
ENDBRANCH  11  25
TORSDOF 2
ENDMDL
MODEL 7
REMARK VINA RESULT:      -8.0     12.506     15.463
REMARK  2 active torsions:
REMARK  status: ('A' for Active; 'I' for Inactive)
REMARK    1  A    between atoms: C8_14  and  N1_5 
REMARK    2  A    between atoms: C1_7  and  C3_9 
ROOT
HETATM    1  O1  UNK     1      16.986   8.344   9.914  1.00  0.00    -0.269 OA
HETATM    2  O2  UNK     1      16.213  10.397  10.742  1.00  0.00    -0.286 OA
HETATM    3  O3  UNK     1      12.632   8.767  11.781  1.00  0.00    -0.287 OA
HETATM    4  N2  UNK     1      15.714   3.698   9.857  1.00  0.00    -0.191 NA
HETATM    5  C1  UNK     1      14.512   7.007  10.466  1.00  0.00     0.109 C 
HETATM    6  C2  UNK     1      14.768   8.466  10.776  1.00  0.00     0.065 A 
HETATM    7  C4  UNK     1      15.782   6.282  10.042  1.00  0.00     0.086 C 
HETATM    8  C5  UNK     1      15.943   9.059  10.493  1.00  0.00     0.204 A 
HETATM    9  C6  UNK     1      13.701   9.259  11.442  1.00  0.00     0.197 A 
HETATM   10  C7  UNK     1      13.996  10.679  11.680  1.00  0.00     0.049 A 
HETATM   11  C8  UNK     1      16.924   6.958   9.786  1.00  0.00     0.162 C 
HETATM   12  C9  UNK     1      15.242  11.175  11.314  1.00  0.00     0.092 A 
HETATM   13  C12 UNK     1      13.045  11.520  12.264  1.00  0.00     0.018 A 
HETATM   14  C13 UNK     1      15.549  12.519  11.527  1.00  0.00     0.038 A 
HETATM   15  C16 UNK     1      15.744   4.855   9.941  1.00  0.00     0.100 C 
HETATM   16  C17 UNK     1      13.353  12.865  12.478  1.00  0.00     0.001 A 
HETATM   17  C19 UNK     1      14.603  13.364  12.110  1.00  0.00     0.003 A 
ENDROOT
BRANCH   5  18
HETATM   18  C3  UNK     1      13.459   6.873   9.405  1.00  0.00    -0.043 A 
HETATM   19  C10 UNK     1      12.254   6.247   9.706  1.00  0.00     0.032 A 
HETATM   20  C14 UNK     1      11.276   6.123   8.720  1.00  0.00     0.034 A 
HETATM   21 Cl1  UNK     1       9.782   5.349   9.082  1.00  0.00    -0.084 Cl
HETATM   22  C18 UNK     1      11.508   6.626   7.440  1.00  0.00     0.024 A 
HETATM   23  C15 UNK     1      12.718   7.253   7.145  1.00  0.00     0.002 A 
HETATM   24  C11 UNK     1      13.698   7.377   8.131  1.00  0.00     0.008 A 
ENDBRANCH   5  18
BRANCH  11  25
HETATM   25  N1  UNK     1      18.103   6.390   9.388  1.00  0.00    -0.379 N 
HETATM   26  H10 UNK     1      18.111   5.541   8.838  1.00  0.00     0.158 HD
HETATM   27  H11 UNK     1      18.972   6.836   9.649  1.00  0.00     0.158 HD
ENDBRANCH  11  25
TORSDOF 2
ENDMDL
MODEL 8
REMARK VINA RESULT:      -8.0     18.762     22.163
REMARK  2 active torsions:
REMARK  status: ('A' for Active; 'I' for Inactive)
REMARK    1  A    between atoms: C8_14  and  N1_5 
REMARK    2  A    between atoms: C1_7  and  C3_9 
ROOT
HETATM    1  O1  UNK     1      33.225  -5.617  34.760  1.00  0.00    -0.269 OA
HETATM    2  O2  UNK     1      31.848  -5.053  36.572  1.00  0.00    -0.286 OA
HETATM    3  O3  UNK     1      28.944  -7.612  35.316  1.00  0.00    -0.287 OA
HETATM    4  N2  UNK     1      33.459  -8.849  31.195  1.00  0.00    -0.191 NA
HETATM    5  C1  UNK     1      31.285  -7.399  33.632  1.00  0.00     0.109 C 
HETATM    6  C2  UNK     1      31.074  -6.629  34.917  1.00  0.00     0.065 A 
HETATM    7  C4  UNK     1      32.720  -7.296  33.134  1.00  0.00     0.086 C 
HETATM    8  C5  UNK     1      32.009  -5.793  35.409  1.00  0.00     0.204 A 
HETATM    9  C6  UNK     1      29.809  -6.823  35.675  1.00  0.00     0.197 A 
HETATM   10  C7  UNK     1      29.647  -6.017  36.892  1.00  0.00     0.049 A 
HETATM   11  C8  UNK     1      33.597  -6.434  33.694  1.00  0.00     0.162 C 
HETATM   12  C9  UNK     1      30.680  -5.169  37.277  1.00  0.00     0.092 A 
HETATM   13  C12 UNK     1      28.479  -6.097  37.655  1.00  0.00     0.018 A 
HETATM   14  C13 UNK     1      30.553  -4.391  38.428  1.00  0.00     0.038 A 
HETATM   15  C16 UNK     1      33.128  -8.154  32.063  1.00  0.00     0.100 C 
HETATM   16  C17 UNK     1      28.353  -5.319  38.807  1.00  0.00     0.001 A 
HETATM   17  C19 UNK     1      29.388  -4.467  39.193  1.00  0.00     0.003 A 
ENDROOT
BRANCH   5  18
HETATM   18  C3  UNK     1      30.332  -6.926  32.573  1.00  0.00    -0.043 A 
HETATM   19  C10 UNK     1      29.433  -7.823  32.006  1.00  0.00     0.032 A 
HETATM   20  C14 UNK     1      28.548  -7.383  31.023  1.00  0.00     0.034 A 
HETATM   21 Cl1  UNK     1      27.431  -8.484  30.315  1.00  0.00    -0.084 Cl
HETATM   22  C18 UNK     1      28.566  -6.049  30.613  1.00  0.00     0.024 A 
HETATM   23  C15 UNK     1      29.471  -5.156  31.186  1.00  0.00     0.002 A 
HETATM   24  C11 UNK     1      30.357  -5.595  32.170  1.00  0.00     0.008 A 
ENDBRANCH   5  18
BRANCH  11  25
HETATM   25  N1  UNK     1      34.897  -6.266  33.301  1.00  0.00    -0.379 N 
HETATM   26  H10 UNK     1      35.152  -5.535  32.650  1.00  0.00     0.158 HD
HETATM   27  H11 UNK     1      35.604  -6.884  33.677  1.00  0.00     0.158 HD
ENDBRANCH  11  25
TORSDOF 2
ENDMDL
MODEL 9
REMARK VINA RESULT:      -8.0     18.496     21.314
REMARK  2 active torsions:
REMARK  status: ('A' for Active; 'I' for Inactive)
REMARK    1  A    between atoms: C8_14  and  N1_5 
REMARK    2  A    between atoms: C1_7  and  C3_9 
ROOT
HETATM    1  O1  UNK     1      34.741  -6.836  31.515  1.00  0.00    -0.269 OA
HETATM    2  O2  UNK     1      34.673  -6.863  33.858  1.00  0.00    -0.286 OA
HETATM    3  O3  UNK     1      31.191  -8.970  33.852  1.00  0.00    -0.287 OA
HETATM    4  N2  UNK     1      32.497  -8.846  27.755  1.00  0.00    -0.191 NA
HETATM    5  C1  UNK     1      32.248  -8.227  31.265  1.00  0.00     0.109 C 
HETATM    6  C2  UNK     1      32.890  -7.880  32.591  1.00  0.00     0.065 A 
HETATM    7  C4  UNK     1      33.180  -7.958  30.092  1.00  0.00     0.086 C 
HETATM    8  C5  UNK     1      34.060  -7.218  32.664  1.00  0.00     0.204 A 
HETATM    9  C6  UNK     1      32.225  -8.312  33.849  1.00  0.00     0.197 A 
HETATM   10  C7  UNK     1      32.876  -7.911  35.103  1.00  0.00     0.049 A 
HETATM   11  C8  UNK     1      34.344  -7.291  30.259  1.00  0.00     0.162 C 
HETATM   12  C9  UNK     1      34.071  -7.202  35.040  1.00  0.00     0.092 A 
HETATM   13  C12 UNK     1      32.311  -8.233  36.339  1.00  0.00     0.018 A 
HETATM   14  C13 UNK     1      34.711  -6.808  36.215  1.00  0.00     0.038 A 
HETATM   15  C16 UNK     1      32.803  -8.449  28.801  1.00  0.00     0.100 C 
HETATM   16  C17 UNK     1      32.952  -7.839  37.514  1.00  0.00     0.001 A 
HETATM   17  C19 UNK     1      34.151  -7.127  37.453  1.00  0.00     0.003 A 
ENDROOT
BRANCH   5  18
HETATM   18  C3  UNK     1      30.963  -7.472  31.091  1.00  0.00    -0.043 A 
HETATM   19  C10 UNK     1      29.786  -8.167  30.832  1.00  0.00     0.032 A 
HETATM   20  C14 UNK     1      28.592  -7.465  30.670  1.00  0.00     0.034 A 
HETATM   21 Cl1  UNK     1      27.130  -8.315  30.349  1.00  0.00    -0.084 Cl
HETATM   22  C18 UNK     1      28.581  -6.074  30.770  1.00  0.00     0.024 A 
HETATM   23  C15 UNK     1      29.765  -5.384  31.030  1.00  0.00     0.002 A 
HETATM   24  C11 UNK     1      30.960  -6.085  31.191  1.00  0.00     0.008 A 
ENDBRANCH   5  18
BRANCH  11  25
HETATM   25  N1  UNK     1      35.231  -6.993  29.261  1.00  0.00    -0.379 N 
HETATM   26  H10 UNK     1      35.312  -6.051  28.901  1.00  0.00     0.158 HD
HETATM   27  H11 UNK     1      35.813  -7.732  28.888  1.00  0.00     0.158 HD
ENDBRANCH  11  25
TORSDOF 2
ENDMDL
MODEL 10
REMARK VINA RESULT:      -7.9     22.113     24.517
REMARK  2 active torsions:
REMARK  status: ('A' for Active; 'I' for Inactive)
REMARK    1  A    between atoms: C8_14  and  N1_5 
REMARK    2  A    between atoms: C1_7  and  C3_9 
ROOT
HETATM    1  O1  UNK     1      32.272  -7.977  37.051  1.00  0.00    -0.269 OA
HETATM    2  O2  UNK     1      32.125  -9.505  35.279  1.00  0.00    -0.286 OA
HETATM    3  O3  UNK     1      28.136  -8.823  34.862  1.00  0.00    -0.287 OA
HETATM    4  N2  UNK     1      29.595  -4.615  39.228  1.00  0.00    -0.191 NA
HETATM    5  C1  UNK     1      29.463  -7.413  37.009  1.00  0.00     0.109 C 
HETATM    6  C2  UNK     1      30.143  -8.374  36.059  1.00  0.00     0.065 A 
HETATM    7  C4  UNK     1      30.467  -6.616  37.831  1.00  0.00     0.086 C 
HETATM    8  C5  UNK     1      31.465  -8.618  36.118  1.00  0.00     0.204 A 
HETATM    9  C6  UNK     1      29.331  -9.045  35.009  1.00  0.00     0.197 A 
HETATM   10  C7  UNK     1      30.041  -9.996  34.144  1.00  0.00     0.049 A 
HETATM   11  C8  UNK     1      31.782  -6.926  37.823  1.00  0.00     0.162 C 
HETATM   12  C9  UNK     1      31.407 -10.178  34.327  1.00  0.00     0.092 A 
HETATM   13  C12 UNK     1      29.361 -10.709  33.152  1.00  0.00     0.018 A 
HETATM   14  C13 UNK     1      32.107 -11.076  33.521  1.00  0.00     0.038 A 
HETATM   15  C16 UNK     1      29.985  -5.511  38.602  1.00  0.00     0.100 C 
HETATM   16  C17 UNK     1      30.062 -11.606  32.345  1.00  0.00     0.001 A 
HETATM   17  C19 UNK     1      31.433 -11.790  32.529  1.00  0.00     0.003 A 
ENDROOT
BRANCH   5  18
HETATM   18  C3  UNK     1      28.518  -8.149  37.914  1.00  0.00    -0.043 A 
HETATM   19  C10 UNK     1      27.188  -7.752  37.990  1.00  0.00     0.032 A 
HETATM   20  C14 UNK     1      26.310  -8.437  38.831  1.00  0.00     0.034 A 
HETATM   21 Cl1  UNK     1      24.662  -7.954  38.932  1.00  0.00    -0.084 Cl
HETATM   22  C18 UNK     1      26.769  -9.514  39.589  1.00  0.00     0.024 A 
HETATM   23  C15 UNK     1      28.105  -9.906  39.508  1.00  0.00     0.002 A 
HETATM   24  C11 UNK     1      28.983  -9.221  38.668  1.00  0.00     0.008 A 
ENDBRANCH   5  18
BRANCH  11  25
HETATM   25  N1  UNK     1      32.749  -6.275  38.540  1.00  0.00    -0.379 N 
HETATM   26  H10 UNK     1      32.952  -6.537  39.496  1.00  0.00     0.158 HD
HETATM   27  H11 UNK     1      33.264  -5.525  38.097  1.00  0.00     0.158 HD
ENDBRANCH  11  25
TORSDOF 2
ENDMDL
