MODEL 1
REMARK VINA RESULT:      -9.1      0.000      0.000
REMARK  4 active torsions:
REMARK  status: ('A' for Active; 'I' for Inactive)
REMARK    1  A    between atoms: C16_22  and  O2_2 
REMARK    2  A    between atoms: C17_23  and  O4_4 
REMARK       I    between atoms: C11_17  and  N1_6 
REMARK    3  A    between atoms: C2_8  and  N1_6 
REMARK    4  A    between atoms: C11_17  and  C12_18 
ROOT
HETATM    1  O3  UNK     1      17.759   3.170  33.250  1.00  0.00    -0.267 OA
HETATM    2  N1  UNK     1      18.326   4.878  31.758  1.00  0.00    -0.322 N 
HETATM    3  C11 UNK     1      18.202   3.540  32.166  1.00  0.00     0.256 C 
HETATM    4  H3  UNK     1      18.896   5.044  30.934  1.00  0.00     0.169 HD
ENDROOT
BRANCH   2   5
HETATM    5  C2  UNK     1      17.986   6.033  32.470  1.00  0.00     0.042 A 
HETATM    6  C3  UNK     1      18.971   6.799  33.092  1.00  0.00    -0.033 A 
HETATM    7  C7  UNK     1      18.613   7.946  33.793  1.00  0.00     0.047 A 
HETATM    8  C8  UNK     1      20.413   6.414  33.021  1.00  0.00     0.050 C 
HETATM    9  C4  UNK     1      17.267   8.309  33.862  1.00  0.00     0.090 A 
HETATM   10  C1  UNK     1      16.260   7.561  33.250  1.00  0.00     0.006 A 
HETATM   11  O1  UNK     1      16.967   9.480  34.586  1.00  0.00    -0.275 OA
HETATM   12  C5  UNK     1      16.641   6.411  32.547  1.00  0.00     0.044 A 
HETATM   13  C6  UNK     1      14.869   8.019  33.375  1.00  0.00    -0.043 A 
HETATM   14  C10 UNK     1      13.763   7.236  32.729  1.00  0.00     0.049 C 
HETATM   15  C9  UNK     1      14.613   9.137  34.069  1.00  0.00     0.090 A 
HETATM   16  C13 UNK     1      15.665   9.937  34.720  1.00  0.00     0.288 A 
HETATM   17  O5  UNK     1      15.393  10.954  35.348  1.00  0.00    -0.260 OA
ENDBRANCH   2   5
BRANCH   3  18
HETATM   18  C12 UNK     1      18.614   2.545  31.160  1.00  0.00     0.035 A 
HETATM   19  C14 UNK     1      19.388   1.465  31.552  1.00  0.00     0.056 A 
HETATM   20  C16 UNK     1      19.780   0.524  30.598  1.00  0.00     0.102 A 
HETATM   21  C17 UNK     1      19.391   0.677  29.268  1.00  0.00     0.101 A 
HETATM   22  C18 UNK     1      18.612   1.770  28.889  1.00  0.00     0.040 A 
HETATM   23  C15 UNK     1      18.220   2.711  29.842  1.00  0.00     0.020 A 
BRANCH  20  24
HETATM   24  O2  UNK     1      20.541  -0.538  30.980  1.00  0.00    -0.353 OA
HETATM   25  C19 UNK     1      19.869  -1.619  31.624  1.00  0.00     0.210 C 
ENDBRANCH  20  24
BRANCH  21  26
HETATM   26  O4  UNK     1      19.767  -0.236  28.328  1.00  0.00    -0.353 OA
HETATM   27  C20 UNK     1      18.752  -0.715  27.449  1.00  0.00     0.210 C 
ENDBRANCH  21  26
ENDBRANCH   3  18
TORSDOF 4
ENDMDL
MODEL 2
REMARK VINA RESULT:      -8.9      5.620      9.383
REMARK  4 active torsions:
REMARK  status: ('A' for Active; 'I' for Inactive)
REMARK    1  A    between atoms: C16_22  and  O2_2 
REMARK    2  A    between atoms: C17_23  and  O4_4 
REMARK       I    between atoms: C11_17  and  N1_6 
REMARK    3  A    between atoms: C2_8  and  N1_6 
REMARK    4  A    between atoms: C11_17  and  C12_18 
ROOT
HETATM    1  O3  UNK     1      21.394  -2.179  35.687  1.00  0.00    -0.267 OA
HETATM    2  N1  UNK     1      19.168  -2.435  35.018  1.00  0.00    -0.322 N 
HETATM    3  C11 UNK     1      20.337  -2.804  35.705  1.00  0.00     0.256 C 
HETATM    4  H3  UNK     1      18.445  -3.144  34.952  1.00  0.00     0.169 HD
ENDROOT
BRANCH   2   5
HETATM    5  C2  UNK     1      18.965  -1.320  34.199  1.00  0.00     0.042 A 
HETATM    6  C3  UNK     1      18.340  -0.178  34.696  1.00  0.00    -0.033 A 
HETATM    7  C7  UNK     1      18.149   0.922  33.866  1.00  0.00     0.047 A 
HETATM    8  C8  UNK     1      17.867  -0.107  36.112  1.00  0.00     0.050 C 
HETATM    9  C4  UNK     1      18.588   0.861  32.543  1.00  0.00     0.090 A 
HETATM   10  C1  UNK     1      19.216  -0.269  32.018  1.00  0.00     0.006 A 
HETATM   11  O1  UNK     1      18.367   2.005  31.751  1.00  0.00    -0.275 OA
HETATM   12  C5  UNK     1      19.400  -1.366  32.870  1.00  0.00     0.044 A 
HETATM   13  C6  UNK     1      19.646  -0.246  30.612  1.00  0.00    -0.043 A 
HETATM   14  C10 UNK     1      20.323  -1.446  30.017  1.00  0.00     0.049 C 
HETATM   15  C9  UNK     1      19.424   0.857  29.884  1.00  0.00     0.090 A 
HETATM   16  C13 UNK     1      18.762   2.057  30.424  1.00  0.00     0.288 A 
HETATM   17  O5  UNK     1      18.575   3.048  29.727  1.00  0.00    -0.260 OA
ENDBRANCH   2   5
BRANCH   3  18
HETATM   18  C12 UNK     1      20.214  -4.022  36.524  1.00  0.00     0.035 A 
HETATM   19  C14 UNK     1      19.138  -4.872  36.320  1.00  0.00     0.056 A 
HETATM   20  C16 UNK     1      19.021  -6.024  37.098  1.00  0.00     0.102 A 
HETATM   21  C17 UNK     1      19.981  -6.312  38.068  1.00  0.00     0.101 A 
HETATM   22  C18 UNK     1      21.058  -5.447  38.261  1.00  0.00     0.040 A 
HETATM   23  C15 UNK     1      21.176  -4.294  37.484  1.00  0.00     0.020 A 
BRANCH  20  24
HETATM   24  O2  UNK     1      17.965  -6.861  36.900  1.00  0.00    -0.353 OA
HETATM   25  C19 UNK     1      17.729  -7.301  35.564  1.00  0.00     0.210 C 
ENDBRANCH  20  24
BRANCH  21  26
HETATM   26  O4  UNK     1      19.878  -7.435  38.832  1.00  0.00    -0.353 OA
HETATM   27  C20 UNK     1      21.083  -7.947  39.396  1.00  0.00     0.210 C 
ENDBRANCH  21  26
ENDBRANCH   3  18
TORSDOF 4
ENDMDL
MODEL 3
REMARK VINA RESULT:      -8.9      1.423      1.697
REMARK  4 active torsions:
REMARK  status: ('A' for Active; 'I' for Inactive)
REMARK    1  A    between atoms: C16_22  and  O2_2 
REMARK    2  A    between atoms: C17_23  and  O4_4 
REMARK       I    between atoms: C11_17  and  N1_6 
REMARK    3  A    between atoms: C2_8  and  N1_6 
REMARK    4  A    between atoms: C11_17  and  C12_18 
ROOT
HETATM    1  O3  UNK     1      18.647   4.649  29.866  1.00  0.00    -0.267 OA
HETATM    2  N1  UNK     1      18.188   4.497  32.154  1.00  0.00    -0.322 N 
HETATM    3  C11 UNK     1      18.538   3.985  30.893  1.00  0.00     0.256 C 
HETATM    4  H3  UNK     1      17.932   3.814  32.859  1.00  0.00     0.169 HD
ENDROOT
BRANCH   2   5
HETATM    5  C2  UNK     1      17.897   5.821  32.497  1.00  0.00     0.042 A 
HETATM    6  C3  UNK     1      18.913   6.691  32.889  1.00  0.00    -0.033 A 
HETATM    7  C7  UNK     1      18.605   8.006  33.224  1.00  0.00     0.047 A 
HETATM    8  C8  UNK     1      20.336   6.241  32.958  1.00  0.00     0.050 C 
HETATM    9  C4  UNK     1      17.277   8.431  33.162  1.00  0.00     0.090 A 
HETATM   10  C1  UNK     1      16.240   7.582  32.773  1.00  0.00     0.006 A 
HETATM   11  O1  UNK     1      17.028   9.773  33.512  1.00  0.00    -0.275 OA
HETATM   12  C5  UNK     1      16.571   6.263  32.439  1.00  0.00     0.044 A 
HETATM   13  C6  UNK     1      14.871   8.115  32.737  1.00  0.00    -0.043 A 
HETATM   14  C10 UNK     1      13.733   7.227  32.324  1.00  0.00     0.049 C 
HETATM   15  C9  UNK     1      14.664   9.396  33.074  1.00  0.00     0.090 A 
HETATM   16  C13 UNK     1      15.748  10.304  33.486  1.00  0.00     0.288 A 
HETATM   17  O5  UNK     1      15.520  11.470  33.789  1.00  0.00    -0.260 OA
ENDBRANCH   2   5
BRANCH   3  18
HETATM   18  C12 UNK     1      18.825   2.540  30.870  1.00  0.00     0.035 A 
HETATM   19  C14 UNK     1      18.744   1.813  32.048  1.00  0.00     0.056 A 
HETATM   20  C16 UNK     1      19.017   0.445  32.026  1.00  0.00     0.102 A 
HETATM   21  C17 UNK     1      19.367  -0.177  30.828  1.00  0.00     0.101 A 
HETATM   22  C18 UNK     1      19.443   0.568  29.651  1.00  0.00     0.040 A 
HETATM   23  C15 UNK     1      19.171   1.936  29.672  1.00  0.00     0.020 A 
BRANCH  20  24
HETATM   24  O2  UNK     1      18.940  -0.271  33.181  1.00  0.00    -0.353 OA
HETATM   25  C19 UNK     1      18.188   0.302  34.250  1.00  0.00     0.210 C 
ENDBRANCH  20  24
BRANCH  21  26
HETATM   26  O4  UNK     1      19.635  -1.513  30.794  1.00  0.00    -0.353 OA
HETATM   27  C20 UNK     1      20.522  -1.969  29.775  1.00  0.00     0.210 C 
ENDBRANCH  21  26
ENDBRANCH   3  18
TORSDOF 4
ENDMDL
MODEL 4
REMARK VINA RESULT:      -8.5      1.194      2.108
REMARK  4 active torsions:
REMARK  status: ('A' for Active; 'I' for Inactive)
REMARK    1  A    between atoms: C16_22  and  O2_2 
REMARK    2  A    between atoms: C17_23  and  O4_4 
REMARK       I    between atoms: C11_17  and  N1_6 
REMARK    3  A    between atoms: C2_8  and  N1_6 
REMARK    4  A    between atoms: C11_17  and  C12_18 
ROOT
HETATM    1  O3  UNK     1      18.665   4.488  30.325  1.00  0.00    -0.267 OA
HETATM    2  N1  UNK     1      18.024   4.477  32.573  1.00  0.00    -0.322 N 
HETATM    3  C11 UNK     1      18.458   3.886  31.375  1.00  0.00     0.256 C 
HETATM    4  H3  UNK     1      17.695   3.841  33.293  1.00  0.00     0.169 HD
ENDROOT
BRANCH   2   5
HETATM    5  C2  UNK     1      17.744   5.825  32.819  1.00  0.00     0.042 A 
HETATM    6  C3  UNK     1      18.761   6.705  33.186  1.00  0.00    -0.033 A 
HETATM    7  C7  UNK     1      18.464   8.043  33.424  1.00  0.00     0.047 A 
HETATM    8  C8  UNK     1      20.174   6.240  33.330  1.00  0.00     0.050 C 
HETATM    9  C4  UNK     1      17.146   8.481  33.291  1.00  0.00     0.090 A 
HETATM   10  C1  UNK     1      16.108   7.623  32.926  1.00  0.00     0.006 A 
HETATM   11  O1  UNK     1      16.907   9.847  33.544  1.00  0.00    -0.275 OA
HETATM   12  C5  UNK     1      16.428   6.280  32.689  1.00  0.00     0.044 A 
HETATM   13  C6  UNK     1      14.749   8.171  32.810  1.00  0.00    -0.043 A 
HETATM   14  C10 UNK     1      13.610   7.275  32.420  1.00  0.00     0.049 C 
HETATM   15  C9  UNK     1      14.552   9.474  33.056  1.00  0.00     0.090 A 
HETATM   16  C13 UNK     1      15.637  10.393  33.442  1.00  0.00     0.288 A 
HETATM   17  O5  UNK     1      15.418  11.579  33.660  1.00  0.00    -0.260 OA
ENDBRANCH   2   5
BRANCH   3  18
HETATM   18  C12 UNK     1      18.705   2.436  31.454  1.00  0.00     0.035 A 
HETATM   19  C14 UNK     1      19.178   1.766  30.337  1.00  0.00     0.056 A 
HETATM   20  C16 UNK     1      19.410   0.392  30.412  1.00  0.00     0.102 A 
HETATM   21  C17 UNK     1      19.167  -0.292  31.603  1.00  0.00     0.101 A 
HETATM   22  C18 UNK     1      18.691   0.397  32.719  1.00  0.00     0.040 A 
HETATM   23  C15 UNK     1      18.459   1.770  32.644  1.00  0.00     0.020 A 
BRANCH  20  24
HETATM   24  O2  UNK     1      19.873  -0.269  29.316  1.00  0.00    -0.353 OA
HETATM   25  C19 UNK     1      19.061  -0.230  28.144  1.00  0.00     0.210 C 
ENDBRANCH  20  24
BRANCH  21  26
HETATM   26  O4  UNK     1      19.390  -1.634  31.688  1.00  0.00    -0.353 OA
HETATM   27  C20 UNK     1      20.627  -2.048  32.264  1.00  0.00     0.210 C 
ENDBRANCH  21  26
ENDBRANCH   3  18
TORSDOF 4
ENDMDL
MODEL 5
REMARK VINA RESULT:      -8.5      6.185      9.529
REMARK  4 active torsions:
REMARK  status: ('A' for Active; 'I' for Inactive)
REMARK    1  A    between atoms: C16_22  and  O2_2 
REMARK    2  A    between atoms: C17_23  and  O4_4 
REMARK       I    between atoms: C11_17  and  N1_6 
REMARK    3  A    between atoms: C2_8  and  N1_6 
REMARK    4  A    between atoms: C11_17  and  C12_18 
ROOT
HETATM    1  O3  UNK     1      21.214  -2.721  36.004  1.00  0.00    -0.267 OA
HETATM    2  N1  UNK     1      18.884  -2.733  35.801  1.00  0.00    -0.322 N 
HETATM    3  C11 UNK     1      20.127  -3.265  36.182  1.00  0.00     0.256 C 
HETATM    4  H3  UNK     1      18.098  -3.374  35.818  1.00  0.00     0.169 HD
ENDROOT
BRANCH   2   5
HETATM    5  C2  UNK     1      18.627  -1.517  35.160  1.00  0.00     0.042 A 
HETATM    6  C3  UNK     1      17.974  -0.485  35.832  1.00  0.00    -0.033 A 
HETATM    7  C7  UNK     1      17.729   0.718  35.178  1.00  0.00     0.047 A 
HETATM    8  C8  UNK     1      17.529  -0.642  37.250  1.00  0.00     0.050 C 
HETATM    9  C4  UNK     1      18.143   0.870  33.854  1.00  0.00     0.090 A 
HETATM   10  C1  UNK     1      18.797  -0.145  33.156  1.00  0.00     0.006 A 
HETATM   11  O1  UNK     1      17.867   2.111  33.246  1.00  0.00    -0.275 OA
HETATM   12  C5  UNK     1      19.036  -1.349  33.832  1.00  0.00     0.044 A 
HETATM   13  C6  UNK     1      19.197   0.102  31.764  1.00  0.00    -0.043 A 
HETATM   14  C10 UNK     1      19.902  -0.970  30.985  1.00  0.00     0.049 C 
HETATM   15  C9  UNK     1      18.923   1.292  31.212  1.00  0.00     0.090 A 
HETATM   16  C13 UNK     1      18.233   2.374  31.935  1.00  0.00     0.288 A 
HETATM   17  O5  UNK     1      17.998   3.450  31.396  1.00  0.00    -0.260 OA
ENDBRANCH   2   5
BRANCH   3  18
HETATM   18  C12 UNK     1      20.057  -4.560  36.882  1.00  0.00     0.035 A 
HETATM   19  C14 UNK     1      21.024  -4.876  37.824  1.00  0.00     0.056 A 
HETATM   20  C16 UNK     1      20.958  -6.103  38.484  1.00  0.00     0.102 A 
HETATM   21  C17 UNK     1      19.927  -6.996  38.195  1.00  0.00     0.101 A 
HETATM   22  C18 UNK     1      18.961  -6.664  37.244  1.00  0.00     0.040 A 
HETATM   23  C15 UNK     1      19.027  -5.437  36.583  1.00  0.00     0.020 A 
BRANCH  20  24
HETATM   24  O2  UNK     1      21.906  -6.417  39.410  1.00  0.00    -0.353 OA
HETATM   25  C19 UNK     1      23.112  -7.005  38.927  1.00  0.00     0.210 C 
ENDBRANCH  20  24
BRANCH  21  26
HETATM   26  O4  UNK     1      19.851  -8.198  38.834  1.00  0.00    -0.353 OA
HETATM   27  C20 UNK     1      20.263  -9.349  38.101  1.00  0.00     0.210 C 
ENDBRANCH  21  26
ENDBRANCH   3  18
TORSDOF 4
ENDMDL
MODEL 6
REMARK VINA RESULT:      -8.4     13.195     19.592
REMARK  4 active torsions:
REMARK  status: ('A' for Active; 'I' for Inactive)
REMARK    1  A    between atoms: C16_22  and  O2_2 
REMARK    2  A    between atoms: C17_23  and  O4_4 
REMARK       I    between atoms: C11_17  and  N1_6 
REMARK    3  A    between atoms: C2_8  and  N1_6 
REMARK    4  A    between atoms: C11_17  and  C12_18 
ROOT
HETATM    1  O3  UNK     1      19.226   0.813  15.060  1.00  0.00    -0.267 OA
HETATM    2  N1  UNK     1      18.984  -1.306  16.019  1.00  0.00    -0.322 N 
HETATM    3  C11 UNK     1      19.103   0.094  16.048  1.00  0.00     0.256 C 
HETATM    4  H3  UNK     1      19.100  -1.784  16.907  1.00  0.00     0.169 HD
ENDROOT
BRANCH   2   5
HETATM    5  C2  UNK     1      18.980  -2.148  14.903  1.00  0.00     0.042 A 
HETATM    6  C3  UNK     1      18.249  -3.335  14.913  1.00  0.00    -0.033 A 
HETATM    7  C7  UNK     1      18.255  -4.159  13.792  1.00  0.00     0.047 A 
HETATM    8  C8  UNK     1      17.452  -3.746  16.108  1.00  0.00     0.050 C 
HETATM    9  C4  UNK     1      18.998  -3.781  12.673  1.00  0.00     0.090 A 
HETATM   10  C1  UNK     1      19.740  -2.599  12.635  1.00  0.00     0.006 A 
HETATM   11  O1  UNK     1      18.966  -4.655  11.569  1.00  0.00    -0.275 OA
HETATM   12  C5  UNK     1      19.719  -1.782  13.773  1.00  0.00     0.044 A 
HETATM   13  C6  UNK     1      20.493  -2.279  11.415  1.00  0.00    -0.043 A 
HETATM   14  C10 UNK     1      21.301  -1.017  11.342  1.00  0.00     0.049 C 
HETATM   15  C9  UNK     1      20.443  -3.130  10.379  1.00  0.00     0.090 A 
HETATM   16  C13 UNK     1      19.665  -4.380  10.404  1.00  0.00     0.288 A 
HETATM   17  O5  UNK     1      19.643  -5.135   9.438  1.00  0.00    -0.260 OA
ENDBRANCH   2   5
BRANCH   3  18
HETATM   18  C12 UNK     1      19.029   0.693  17.392  1.00  0.00     0.035 A 
HETATM   19  C14 UNK     1      19.352   2.031  17.557  1.00  0.00     0.056 A 
HETATM   20  C16 UNK     1      19.283   2.597  18.831  1.00  0.00     0.102 A 
HETATM   21  C17 UNK     1      18.893   1.819  19.920  1.00  0.00     0.101 A 
HETATM   22  C18 UNK     1      18.571   0.474  19.737  1.00  0.00     0.040 A 
HETATM   23  C15 UNK     1      18.639  -0.093  18.465  1.00  0.00     0.020 A 
BRANCH  20  24
HETATM   24  O2  UNK     1      19.601   3.911  18.996  1.00  0.00    -0.353 OA
HETATM   25  C19 UNK     1      20.818   4.363  18.405  1.00  0.00     0.210 C 
ENDBRANCH  20  24
BRANCH  21  26
HETATM   26  O4  UNK     1      18.821   2.362  21.168  1.00  0.00    -0.353 OA
HETATM   27  C20 UNK     1      19.955   2.189  22.015  1.00  0.00     0.210 C 
ENDBRANCH  21  26
ENDBRANCH   3  18
TORSDOF 4
ENDMDL
MODEL 7
REMARK VINA RESULT:      -8.4      1.592      8.818
REMARK  4 active torsions:
REMARK  status: ('A' for Active; 'I' for Inactive)
REMARK    1  A    between atoms: C16_22  and  O2_2 
REMARK    2  A    between atoms: C17_23  and  O4_4 
REMARK       I    between atoms: C11_17  and  N1_6 
REMARK    3  A    between atoms: C2_8  and  N1_6 
REMARK    4  A    between atoms: C11_17  and  C12_18 
ROOT
HETATM    1  O3  UNK     1      19.604   5.419  33.468  1.00  0.00    -0.267 OA
HETATM    2  N1  UNK     1      17.712   4.436  32.510  1.00  0.00    -0.322 N 
HETATM    3  C11 UNK     1      18.401   5.430  33.224  1.00  0.00     0.256 C 
HETATM    4  H3  UNK     1      16.698   4.466  32.564  1.00  0.00     0.169 HD
ENDROOT
BRANCH   2   5
HETATM    5  C2  UNK     1      18.227   3.265  31.944  1.00  0.00     0.042 A 
HETATM    6  C3  UNK     1      18.733   3.267  30.645  1.00  0.00    -0.033 A 
HETATM    7  C7  UNK     1      19.244   2.094  30.101  1.00  0.00     0.047 A 
HETATM    8  C8  UNK     1      18.739   4.511  29.818  1.00  0.00     0.050 C 
HETATM    9  C4  UNK     1      19.240   0.929  30.870  1.00  0.00     0.090 A 
HETATM   10  C1  UNK     1      18.740   0.897  32.173  1.00  0.00     0.006 A 
HETATM   11  O1  UNK     1      19.770  -0.228  30.266  1.00  0.00    -0.275 OA
HETATM   12  C5  UNK     1      18.231   2.090  32.703  1.00  0.00     0.044 A 
HETATM   13  C6  UNK     1      18.775  -0.374  32.909  1.00  0.00    -0.043 A 
HETATM   14  C10 UNK     1      18.245  -0.442  34.312  1.00  0.00     0.049 C 
HETATM   15  C9  UNK     1      19.287  -1.458  32.309  1.00  0.00     0.090 A 
HETATM   16  C13 UNK     1      19.819  -1.440  30.936  1.00  0.00     0.288 A 
HETATM   17  O5  UNK     1      20.279  -2.453  30.418  1.00  0.00    -0.260 OA
ENDBRANCH   2   5
BRANCH   3  18
HETATM   18  C12 UNK     1      17.572   6.569  33.656  1.00  0.00     0.035 A 
HETATM   19  C14 UNK     1      16.301   6.723  33.125  1.00  0.00     0.056 A 
HETATM   20  C16 UNK     1      15.517   7.802  33.533  1.00  0.00     0.102 A 
HETATM   21  C17 UNK     1      16.014   8.713  34.465  1.00  0.00     0.101 A 
HETATM   22  C18 UNK     1      17.295   8.544  34.990  1.00  0.00     0.040 A 
HETATM   23  C15 UNK     1      18.080   7.465  34.583  1.00  0.00     0.020 A 
BRANCH  20  24
HETATM   24  O2  UNK     1      14.268   7.957  33.013  1.00  0.00    -0.353 OA
HETATM   25  C19 UNK     1      13.909   7.106  31.926  1.00  0.00     0.210 C 
ENDBRANCH  20  24
BRANCH  21  26
HETATM   26  O4  UNK     1      15.257   9.771  34.872  1.00  0.00    -0.353 OA
HETATM   27  C20 UNK     1      15.515  11.028  34.250  1.00  0.00     0.210 C 
ENDBRANCH  21  26
ENDBRANCH   3  18
TORSDOF 4
ENDMDL
MODEL 8
REMARK VINA RESULT:      -8.4      1.903      3.555
REMARK  4 active torsions:
REMARK  status: ('A' for Active; 'I' for Inactive)
REMARK    1  A    between atoms: C16_22  and  O2_2 
REMARK    2  A    between atoms: C17_23  and  O4_4 
REMARK       I    between atoms: C11_17  and  N1_6 
REMARK    3  A    between atoms: C2_8  and  N1_6 
REMARK    4  A    between atoms: C11_17  and  C12_18 
ROOT
HETATM    1  O3  UNK     1      18.680   5.998  30.718  1.00  0.00    -0.267 OA
HETATM    2  N1  UNK     1      17.472   5.911  32.718  1.00  0.00    -0.322 N 
HETATM    3  C11 UNK     1      18.185   5.358  31.641  1.00  0.00     0.256 C 
HETATM    4  H3  UNK     1      16.944   5.257  33.288  1.00  0.00     0.169 HD
ENDROOT
BRANCH   2   5
HETATM    5  C2  UNK     1      17.183   7.257  32.960  1.00  0.00     0.042 A 
HETATM    6  C3  UNK     1      15.904   7.762  32.727  1.00  0.00    -0.033 A 
HETATM    7  C7  UNK     1      15.636   9.103  32.977  1.00  0.00     0.047 A 
HETATM    8  C8  UNK     1      14.808   6.888  32.212  1.00  0.00     0.050 C 
HETATM    9  C4  UNK     1      16.657   9.924  33.458  1.00  0.00     0.090 A 
HETATM   10  C1  UNK     1      17.946   9.447  33.700  1.00  0.00     0.006 A 
HETATM   11  O1  UNK     1      16.324  11.273  33.692  1.00  0.00    -0.275 OA
HETATM   12  C5  UNK     1      18.196   8.092  33.443  1.00  0.00     0.044 A 
HETATM   13  C6  UNK     1      18.959  10.383  34.206  1.00  0.00    -0.043 A 
HETATM   14  C10 UNK     1      20.355   9.901  34.476  1.00  0.00     0.049 C 
HETATM   15  C9  UNK     1      18.614  11.660  34.421  1.00  0.00     0.090 A 
HETATM   16  C13 UNK     1      17.258  12.178  34.171  1.00  0.00     0.288 A 
HETATM   17  O5  UNK     1      16.979  13.354  34.378  1.00  0.00    -0.260 OA
ENDBRANCH   2   5
BRANCH   3  18
HETATM   18  C12 UNK     1      18.354   3.895  31.697  1.00  0.00     0.035 A 
HETATM   19  C14 UNK     1      18.733   3.211  30.553  1.00  0.00     0.056 A 
HETATM   20  C16 UNK     1      18.891   1.826  30.607  1.00  0.00     0.102 A 
HETATM   21  C17 UNK     1      18.669   1.144  31.803  1.00  0.00     0.101 A 
HETATM   22  C18 UNK     1      18.287   1.847  32.946  1.00  0.00     0.040 A 
HETATM   23  C15 UNK     1      18.129   3.231  32.893  1.00  0.00     0.020 A 
BRANCH  20  24
HETATM   24  O2  UNK     1      19.263   1.151  29.484  1.00  0.00    -0.353 OA
HETATM   25  C19 UNK     1      18.286   1.019  28.453  1.00  0.00     0.210 C 
ENDBRANCH  20  24
BRANCH  21  26
HETATM   26  O4  UNK     1      18.821  -0.209  31.868  1.00  0.00    -0.353 OA
HETATM   27  C20 UNK     1      18.636  -0.821  33.142  1.00  0.00     0.210 C 
ENDBRANCH  21  26
ENDBRANCH   3  18
TORSDOF 4
ENDMDL
MODEL 9
REMARK VINA RESULT:      -8.3      2.112      4.004
REMARK  4 active torsions:
REMARK  status: ('A' for Active; 'I' for Inactive)
REMARK    1  A    between atoms: C16_22  and  O2_2 
REMARK    2  A    between atoms: C17_23  and  O4_4 
REMARK       I    between atoms: C11_17  and  N1_6 
REMARK    3  A    between atoms: C2_8  and  N1_6 
REMARK    4  A    between atoms: C11_17  and  C12_18 
ROOT
HETATM    1  O3  UNK     1      18.686   6.965  34.138  1.00  0.00    -0.267 OA
HETATM    2  N1  UNK     1      16.827   7.518  32.832  1.00  0.00    -0.322 N 
HETATM    3  C11 UNK     1      17.966   6.766  33.163  1.00  0.00     0.256 C 
HETATM    4  H3  UNK     1      16.454   7.379  31.898  1.00  0.00     0.169 HD
ENDROOT
BRANCH   2   5
HETATM    5  C2  UNK     1      16.289   8.614  33.513  1.00  0.00     0.042 A 
HETATM    6  C3  UNK     1      14.999   8.559  34.038  1.00  0.00    -0.033 A 
HETATM    7  C7  UNK     1      14.482   9.659  34.715  1.00  0.00     0.047 A 
HETATM    8  C8  UNK     1      14.152   7.337  33.890  1.00  0.00     0.050 C 
HETATM    9  C4  UNK     1      15.268  10.803  34.856  1.00  0.00     0.090 A 
HETATM   10  C1  UNK     1      16.562  10.887  34.341  1.00  0.00     0.006 A 
HETATM   11  O1  UNK     1      14.690  11.884  35.551  1.00  0.00    -0.275 OA
HETATM   12  C5  UNK     1      17.065   9.769  33.663  1.00  0.00     0.044 A 
HETATM   13  C6  UNK     1      17.319  12.132  34.535  1.00  0.00    -0.043 A 
HETATM   14  C10 UNK     1      18.713  12.254  33.993  1.00  0.00     0.049 C 
HETATM   15  C9  UNK     1      16.744  13.143  35.202  1.00  0.00     0.090 A 
HETATM   16  C13 UNK     1      15.379  13.070  35.752  1.00  0.00     0.288 A 
HETATM   17  O5  UNK     1      14.886  14.016  36.356  1.00  0.00    -0.260 OA
ENDBRANCH   2   5
BRANCH   3  18
HETATM   18  C12 UNK     1      18.248   5.638  32.258  1.00  0.00     0.035 A 
HETATM   19  C14 UNK     1      17.947   4.348  32.665  1.00  0.00     0.056 A 
HETATM   20  C16 UNK     1      18.215   3.281  31.808  1.00  0.00     0.102 A 
HETATM   21  C17 UNK     1      18.780   3.518  30.555  1.00  0.00     0.101 A 
HETATM   22  C18 UNK     1      19.077   4.822  30.159  1.00  0.00     0.040 A 
HETATM   23  C15 UNK     1      18.810   5.889  31.016  1.00  0.00     0.020 A 
BRANCH  20  24
HETATM   24  O2  UNK     1      17.921   2.012  32.206  1.00  0.00    -0.353 OA
HETATM   25  C19 UNK     1      18.189   1.682  33.568  1.00  0.00     0.210 C 
ENDBRANCH  20  24
BRANCH  21  26
HETATM   26  O4  UNK     1      19.047   2.483  29.709  1.00  0.00    -0.353 OA
HETATM   27  C20 UNK     1      18.021   2.120  28.787  1.00  0.00     0.210 C 
ENDBRANCH  21  26
ENDBRANCH   3  18
TORSDOF 4
ENDMDL
MODEL 10
REMARK VINA RESULT:      -8.3      2.228      8.812
REMARK  4 active torsions:
REMARK  status: ('A' for Active; 'I' for Inactive)
REMARK    1  A    between atoms: C16_22  and  O2_2 
REMARK    2  A    between atoms: C17_23  and  O4_4 
REMARK       I    between atoms: C11_17  and  N1_6 
REMARK    3  A    between atoms: C2_8  and  N1_6 
REMARK    4  A    between atoms: C11_17  and  C12_18 
ROOT
HETATM    1  O3  UNK     1      20.269   6.711  33.447  1.00  0.00    -0.267 OA
HETATM    2  N1  UNK     1      18.081   6.009  33.016  1.00  0.00    -0.322 N 
HETATM    3  C11 UNK     1      19.066   6.944  33.375  1.00  0.00     0.256 C 
HETATM    4  H3  UNK     1      17.120   6.278  33.200  1.00  0.00     0.169 HD
ENDROOT
BRANCH   2   5
HETATM    5  C2  UNK     1      18.252   4.663  32.677  1.00  0.00     0.042 A 
HETATM    6  C3  UNK     1      18.565   4.295  31.370  1.00  0.00    -0.033 A 
HETATM    7  C7  UNK     1      18.733   2.951  31.053  1.00  0.00     0.047 A 
HETATM    8  C8  UNK     1      18.724   5.318  30.293  1.00  0.00     0.050 C 
HETATM    9  C4  UNK     1      18.585   1.991  32.055  1.00  0.00     0.090 A 
HETATM   10  C1  UNK     1      18.272   2.330  33.372  1.00  0.00     0.006 A 
HETATM   11  O1  UNK     1      18.768   0.647  31.674  1.00  0.00    -0.275 OA
HETATM   12  C5  UNK     1      18.107   3.689  33.671  1.00  0.00     0.044 A 
HETATM   13  C6  UNK     1      18.134   1.254  34.363  1.00  0.00    -0.043 A 
HETATM   14  C10 UNK     1      17.798   1.585  35.787  1.00  0.00     0.049 C 
HETATM   15  C9  UNK     1      18.316  -0.016  33.971  1.00  0.00     0.090 A 
HETATM   16  C13 UNK     1      18.647  -0.389  32.585  1.00  0.00     0.288 A 
HETATM   17  O5  UNK     1      18.804  -1.562  32.264  1.00  0.00    -0.260 OA
ENDBRANCH   2   5
BRANCH   3  18
HETATM   18  C12 UNK     1      18.562   8.304  33.635  1.00  0.00     0.035 A 
HETATM   19  C14 UNK     1      17.204   8.558  33.524  1.00  0.00     0.056 A 
HETATM   20  C16 UNK     1      16.727   9.846  33.769  1.00  0.00     0.102 A 
HETATM   21  C17 UNK     1      17.614  10.862  34.123  1.00  0.00     0.101 A 
HETATM   22  C18 UNK     1      18.979  10.591  34.231  1.00  0.00     0.040 A 
HETATM   23  C15 UNK     1      19.456   9.303  33.986  1.00  0.00     0.020 A 
BRANCH  20  24
HETATM   24  O2  UNK     1      15.394  10.098  33.659  1.00  0.00    -0.353 OA
HETATM   25  C19 UNK     1      14.504   9.025  33.963  1.00  0.00     0.210 C 
ENDBRANCH  20  24
BRANCH  21  26
HETATM   26  O4  UNK     1      17.161  12.124  34.366  1.00  0.00    -0.353 OA
HETATM   27  C20 UNK     1      18.033  13.000  35.075  1.00  0.00     0.210 C 
ENDBRANCH  21  26
ENDBRANCH   3  18
TORSDOF 4
ENDMDL
