MODEL 1
REMARK VINA RESULT:     -10.1      0.000      0.000
REMARK  3 active torsions:
REMARK  status: ('A' for Active; 'I' for Inactive)
REMARK    1  A    between atoms: C1_8  and  N1_6 
REMARK       I    between atoms: C8_15  and  N1_6 
REMARK    2  A    between atoms: C10_17  and  N2_7 
REMARK    3  A    between atoms: C4_11  and  C8_15 
ROOT
HETATM    1  O2  UNK     1      18.520   4.425  30.036  1.00  0.00    -0.267 OA
HETATM    2  N1  UNK     1      17.938   4.481  32.317  1.00  0.00    -0.322 N 
HETATM    3  C8  UNK     1      18.381   3.897  31.139  1.00  0.00     0.262 C 
HETATM    4  H2  UNK     1      17.907   3.896  33.147  1.00  0.00     0.169 HD
ENDROOT
BRANCH   3   5
HETATM    5  C4  UNK     1      18.703   2.476  31.311  1.00  0.00     0.108 A 
HETATM    6  C11 UNK     1      18.409   1.751  32.568  1.00  0.00     0.304 A 
HETATM    7  O1  UNK     1      18.761   0.405  32.610  1.00  0.00    -0.274 OA
HETATM    8  O3  UNK     1      17.879   2.303  33.526  1.00  0.00    -0.259 OA
HETATM    9  C5  UNK     1      19.367  -0.240  31.515  1.00  0.00     0.089 A 
HETATM   10  C15 UNK     1      19.683  -1.590  31.651  1.00  0.00     0.038 A 
HETATM   11  C3  UNK     1      19.635   0.461  30.343  1.00  0.00    -0.001 A 
HETATM   12  C17 UNK     1      20.284  -2.255  30.586  1.00  0.00     0.003 A 
HETATM   13  C16 UNK     1      20.561  -1.568  29.401  1.00  0.00     0.001 A 
HETATM   14  C13 UNK     1      20.238  -0.214  29.278  1.00  0.00     0.014 A 
HETATM   15  C6  UNK     1      19.279   1.869  30.267  1.00  0.00     0.037 A 
ENDBRANCH   3   5
BRANCH   2  16
HETATM   16  C1  UNK     1      17.544   5.826  32.521  1.00  0.00     0.043 A 
HETATM   17  C2  UNK     1      18.491   6.790  32.828  1.00  0.00    -0.035 A 
HETATM   18  C14 UNK     1      19.941   6.457  32.954  1.00  0.00     0.050 C 
HETATM   19  C9  UNK     1      18.083   8.109  33.025  1.00  0.00     0.011 A 
HETATM   20  C12 UNK     1      16.734   8.446  32.912  1.00  0.00     0.037 A 
HETATM   21  C10 UNK     1      15.792   7.465  32.603  1.00  0.00     0.105 A 
HETATM   22  C7  UNK     1      16.201   6.146  32.406  1.00  0.00     0.066 A 
BRANCH  21  23
HETATM   23  N2  UNK     1      14.420   7.809  32.488  1.00  0.00    -0.116 N 
HETATM   24  O4  UNK     1      13.630   6.987  31.964  1.00  0.00    -0.532 OA
HETATM   25  O5  UNK     1      14.035   8.924  32.915  1.00  0.00    -0.532 OA
ENDBRANCH  21  23
ENDBRANCH   2  16
TORSDOF 3
ENDMDL
MODEL 2
REMARK VINA RESULT:     -10.0      0.943      2.005
REMARK  3 active torsions:
REMARK  status: ('A' for Active; 'I' for Inactive)
REMARK    1  A    between atoms: C1_8  and  N1_6 
REMARK       I    between atoms: C8_15  and  N1_6 
REMARK    2  A    between atoms: C10_17  and  N2_7 
REMARK    3  A    between atoms: C4_11  and  C8_15 
ROOT
HETATM    1  O2  UNK     1      17.763   3.073  33.150  1.00  0.00    -0.267 OA
HETATM    2  N1  UNK     1      18.174   4.609  31.413  1.00  0.00    -0.322 N 
HETATM    3  C8  UNK     1      18.149   3.360  32.017  1.00  0.00     0.262 C 
HETATM    4  H2  UNK     1      18.506   4.659  30.454  1.00  0.00     0.169 HD
ENDROOT
BRANCH   3   5
HETATM    5  C4  UNK     1      18.661   2.306  31.134  1.00  0.00     0.108 A 
HETATM    6  C11 UNK     1      18.756   2.488  29.667  1.00  0.00     0.304 A 
HETATM    7  O1  UNK     1      19.259   1.416  28.936  1.00  0.00    -0.274 OA
HETATM    8  O3  UNK     1      18.413   3.530  29.120  1.00  0.00    -0.259 OA
HETATM    9  C5  UNK     1      19.658   0.215  29.554  1.00  0.00     0.089 A 
HETATM   10  C15 UNK     1      20.149  -0.802  28.739  1.00  0.00     0.038 A 
HETATM   11  C3  UNK     1      19.560   0.065  30.935  1.00  0.00    -0.001 A 
HETATM   12  C17 UNK     1      20.551  -2.001  29.322  1.00  0.00     0.003 A 
HETATM   13  C16 UNK     1      20.459  -2.170  30.705  1.00  0.00     0.001 A 
HETATM   14  C13 UNK     1      19.965  -1.141  31.511  1.00  0.00     0.014 A 
HETATM   15  C6  UNK     1      19.039   1.168  31.727  1.00  0.00     0.037 A 
ENDBRANCH   3   5
BRANCH   2  16
HETATM   16  C1  UNK     1      17.756   5.845  31.964  1.00  0.00     0.043 A 
HETATM   17  C2  UNK     1      18.688   6.714  32.508  1.00  0.00    -0.035 A 
HETATM   18  C14 UNK     1      20.146   6.391  32.533  1.00  0.00     0.050 C 
HETATM   19  C9  UNK     1      18.258   7.927  33.047  1.00  0.00     0.011 A 
HETATM   20  C12 UNK     1      16.901   8.252  33.035  1.00  0.00     0.037 A 
HETATM   21  C10 UNK     1      15.974   7.366  32.485  1.00  0.00     0.105 A 
HETATM   22  C7  UNK     1      16.406   6.154  31.946  1.00  0.00     0.066 A 
BRANCH  21  23
HETATM   23  N2  UNK     1      14.595   7.699  32.473  1.00  0.00    -0.116 N 
HETATM   24  O4  UNK     1      14.219   8.755  33.036  1.00  0.00    -0.532 OA
HETATM   25  O5  UNK     1      13.788   6.927  31.900  1.00  0.00    -0.532 OA
ENDBRANCH  21  23
ENDBRANCH   2  16
TORSDOF 3
ENDMDL
MODEL 3
REMARK VINA RESULT:      -9.5      7.319     12.362
REMARK  3 active torsions:
REMARK  status: ('A' for Active; 'I' for Inactive)
REMARK    1  A    between atoms: C1_8  and  N1_6 
REMARK       I    between atoms: C8_15  and  N1_6 
REMARK    2  A    between atoms: C10_17  and  N2_7 
REMARK    3  A    between atoms: C4_11  and  C8_15 
ROOT
HETATM    1  O2  UNK     1      20.555  -4.155  37.901  1.00  0.00    -0.267 OA
HETATM    2  N1  UNK     1      19.418  -5.050  36.044  1.00  0.00    -0.322 N 
HETATM    3  C8  UNK     1      19.896  -4.042  36.868  1.00  0.00     0.262 C 
HETATM    4  H2  UNK     1      18.907  -4.772  35.211  1.00  0.00     0.169 HD
ENDROOT
BRANCH   3   5
HETATM    5  C4  UNK     1      19.530  -2.707  36.380  1.00  0.00     0.108 A 
HETATM    6  C11 UNK     1      19.939  -2.220  35.043  1.00  0.00     0.304 A 
HETATM    7  O1  UNK     1      19.530  -0.937  34.693  1.00  0.00    -0.274 OA
HETATM    8  O3  UNK     1      20.602  -2.911  34.277  1.00  0.00    -0.259 OA
HETATM    9  C5  UNK     1      18.767  -0.136  35.564  1.00  0.00     0.089 A 
HETATM   10  C15 UNK     1      18.404   1.136  35.126  1.00  0.00     0.038 A 
HETATM   11  C3  UNK     1      18.393  -0.613  36.818  1.00  0.00    -0.001 A 
HETATM   12  C17 UNK     1      17.650   1.951  35.965  1.00  0.00     0.003 A 
HETATM   13  C16 UNK     1      17.266   1.490  37.227  1.00  0.00     0.001 A 
HETATM   14  C13 UNK     1      17.636   0.211  37.653  1.00  0.00     0.014 A 
HETATM   15  C6  UNK     1      18.804  -1.951  37.213  1.00  0.00     0.037 A 
ENDBRANCH   3   5
BRANCH   2  16
HETATM   16  C1  UNK     1      19.581  -6.448  36.204  1.00  0.00     0.043 A 
HETATM   17  C2  UNK     1      18.472  -7.274  36.283  1.00  0.00    -0.035 A 
HETATM   18  C14 UNK     1      17.081  -6.735  36.202  1.00  0.00     0.050 C 
HETATM   19  C9  UNK     1      18.653  -8.648  36.441  1.00  0.00     0.011 A 
HETATM   20  C12 UNK     1      19.942  -9.177  36.518  1.00  0.00     0.037 A 
HETATM   21  C10 UNK     1      21.050  -8.332  36.438  1.00  0.00     0.105 A 
HETATM   22  C7  UNK     1      20.867  -6.958  36.280  1.00  0.00     0.066 A 
BRANCH  21  23
HETATM   23  N2  UNK     1      22.361  -8.871  36.517  1.00  0.00    -0.116 N 
HETATM   24  O4  UNK     1      23.231  -8.257  37.180  1.00  0.00    -0.532 OA
HETATM   25  O5  UNK     1      22.613  -9.946  35.922  1.00  0.00    -0.532 OA
ENDBRANCH  21  23
ENDBRANCH   2  16
TORSDOF 3
ENDMDL
MODEL 4
REMARK VINA RESULT:      -9.3      4.071      8.152
REMARK  3 active torsions:
REMARK  status: ('A' for Active; 'I' for Inactive)
REMARK    1  A    between atoms: C1_8  and  N1_6 
REMARK       I    between atoms: C8_15  and  N1_6 
REMARK    2  A    between atoms: C10_17  and  N2_7 
REMARK    3  A    between atoms: C4_11  and  C8_15 
ROOT
HETATM    1  O2  UNK     1      16.540   0.779  34.059  1.00  0.00    -0.267 OA
HETATM    2  N1  UNK     1      18.796   0.680  34.727  1.00  0.00    -0.322 N 
HETATM    3  C8  UNK     1      17.722   1.105  33.957  1.00  0.00     0.262 C 
HETATM    4  H2  UNK     1      19.709   1.073  34.516  1.00  0.00     0.169 HD
ENDROOT
BRANCH   3   5
HETATM    5  C4  UNK     1      18.128   2.058  32.918  1.00  0.00     0.108 A 
HETATM    6  C11 UNK     1      18.674   1.616  31.615  1.00  0.00     0.304 A 
HETATM    7  O1  UNK     1      19.022   2.614  30.711  1.00  0.00    -0.274 OA
HETATM    8  O3  UNK     1      18.811   0.428  31.340  1.00  0.00    -0.259 OA
HETATM    9  C5  UNK     1      18.866   3.981  31.016  1.00  0.00     0.089 A 
HETATM   10  C15 UNK     1      19.243   4.908  30.047  1.00  0.00     0.038 A 
HETATM   11  C3  UNK     1      18.352   4.375  32.247  1.00  0.00    -0.001 A 
HETATM   12  C17 UNK     1      19.101   6.266  30.319  1.00  0.00     0.003 A 
HETATM   13  C16 UNK     1      18.586   6.681  31.550  1.00  0.00     0.001 A 
HETATM   14  C13 UNK     1      18.212   5.740  32.512  1.00  0.00     0.014 A 
HETATM   15  C6  UNK     1      17.977   3.355  33.214  1.00  0.00     0.037 A 
ENDBRANCH   3   5
BRANCH   2  16
HETATM   16  C1  UNK     1      18.776  -0.231  35.811  1.00  0.00     0.043 A 
HETATM   17  C2  UNK     1      18.146   0.112  36.997  1.00  0.00    -0.035 A 
HETATM   18  C14 UNK     1      17.474   1.434  37.177  1.00  0.00     0.050 C 
HETATM   19  C9  UNK     1      18.137  -0.797  38.054  1.00  0.00     0.011 A 
HETATM   20  C12 UNK     1      18.758  -2.039  37.910  1.00  0.00     0.037 A 
HETATM   21  C10 UNK     1      19.388  -2.370  36.711  1.00  0.00     0.105 A 
HETATM   22  C7  UNK     1      19.397  -1.459  35.654  1.00  0.00     0.066 A 
BRANCH  21  23
HETATM   23  N2  UNK     1      20.019  -3.633  36.566  1.00  0.00    -0.116 N 
HETATM   24  O4  UNK     1      20.386  -4.251  37.595  1.00  0.00    -0.532 OA
HETATM   25  O5  UNK     1      20.194  -4.098  35.414  1.00  0.00    -0.532 OA
ENDBRANCH  21  23
ENDBRANCH   2  16
TORSDOF 3
ENDMDL
MODEL 5
REMARK VINA RESULT:      -9.2      6.463      9.119
REMARK  3 active torsions:
REMARK  status: ('A' for Active; 'I' for Inactive)
REMARK    1  A    between atoms: C1_8  and  N1_6 
REMARK       I    between atoms: C8_15  and  N1_6 
REMARK    2  A    between atoms: C10_17  and  N2_7 
REMARK    3  A    between atoms: C4_11  and  C8_15 
ROOT
HETATM    1  O2  UNK     1      21.269  -2.717  36.023  1.00  0.00    -0.267 OA
HETATM    2  N1  UNK     1      18.917  -2.739  36.137  1.00  0.00    -0.322 N 
HETATM    3  C8  UNK     1      20.190  -3.289  36.175  1.00  0.00     0.262 C 
HETATM    4  H2  UNK     1      18.133  -3.361  36.309  1.00  0.00     0.169 HD
ENDROOT
BRANCH   3   5
HETATM    5  C4  UNK     1      20.162  -4.734  36.435  1.00  0.00     0.108 A 
HETATM    6  C11 UNK     1      20.224  -5.730  35.341  1.00  0.00     0.304 A 
HETATM    7  O1  UNK     1      20.191  -7.070  35.714  1.00  0.00    -0.274 OA
HETATM    8  O3  UNK     1      20.304  -5.395  34.164  1.00  0.00    -0.259 OA
HETATM    9  C5  UNK     1      20.102  -7.465  37.063  1.00  0.00     0.089 A 
HETATM   10  C15 UNK     1      20.075  -8.830  37.338  1.00  0.00     0.038 A 
HETATM   11  C3  UNK     1      20.045  -6.512  38.076  1.00  0.00    -0.001 A 
HETATM   12  C17 UNK     1      19.987  -9.252  38.662  1.00  0.00     0.003 A 
HETATM   13  C16 UNK     1      19.928  -8.310  39.692  1.00  0.00     0.001 A 
HETATM   14  C13 UNK     1      19.956  -6.943  39.401  1.00  0.00     0.014 A 
HETATM   15  C6  UNK     1      20.078  -5.102  37.718  1.00  0.00     0.037 A 
ENDBRANCH   3   5
BRANCH   2  16
HETATM   16  C1  UNK     1      18.567  -1.385  35.914  1.00  0.00     0.043 A 
HETATM   17  C2  UNK     1      18.155  -0.589  36.970  1.00  0.00    -0.035 A 
HETATM   18  C14 UNK     1      18.066  -1.115  38.365  1.00  0.00     0.050 C 
HETATM   19  C9  UNK     1      17.814   0.742  36.731  1.00  0.00     0.011 A 
HETATM   20  C12 UNK     1      17.890   1.259  35.436  1.00  0.00     0.037 A 
HETATM   21  C10 UNK     1      18.305   0.445  34.382  1.00  0.00     0.105 A 
HETATM   22  C7  UNK     1      18.646  -0.887  34.624  1.00  0.00     0.066 A 
BRANCH  21  23
HETATM   23  N2  UNK     1      18.382   0.971  33.066  1.00  0.00    -0.116 N 
HETATM   24  O4  UNK     1      17.836   2.074  32.821  1.00  0.00    -0.532 OA
HETATM   25  O5  UNK     1      18.993   0.320  32.186  1.00  0.00    -0.532 OA
ENDBRANCH  21  23
ENDBRANCH   2  16
TORSDOF 3
ENDMDL
MODEL 6
REMARK VINA RESULT:      -9.2     15.042     18.509
REMARK  3 active torsions:
REMARK  status: ('A' for Active; 'I' for Inactive)
REMARK    1  A    between atoms: C1_8  and  N1_6 
REMARK       I    between atoms: C8_15  and  N1_6 
REMARK    2  A    between atoms: C10_17  and  N2_7 
REMARK    3  A    between atoms: C4_11  and  C8_15 
ROOT
HETATM    1  O2  UNK     1      17.593  -2.224  16.060  1.00  0.00    -0.267 OA
HETATM    2  N1  UNK     1      19.735  -1.900  15.136  1.00  0.00    -0.322 N 
HETATM    3  C8  UNK     1      18.671  -1.635  15.986  1.00  0.00     0.262 C 
HETATM    4  H2  UNK     1      20.565  -1.322  15.229  1.00  0.00     0.169 HD
ENDROOT
BRANCH   3   5
HETATM    5  C4  UNK     1      18.943  -0.500  16.877  1.00  0.00     0.108 A 
HETATM    6  C11 UNK     1      19.200   0.862  16.358  1.00  0.00     0.304 A 
HETATM    7  O1  UNK     1      19.444   1.855  17.301  1.00  0.00    -0.274 OA
HETATM    8  O3  UNK     1      19.196   1.109  15.156  1.00  0.00    -0.259 OA
HETATM    9  C5  UNK     1      19.449   1.583  18.683  1.00  0.00     0.089 A 
HETATM   10  C15 UNK     1      19.703   2.642  19.551  1.00  0.00     0.038 A 
HETATM   11  C3  UNK     1      19.205   0.295  19.150  1.00  0.00    -0.001 A 
HETATM   12  C17 UNK     1      19.715   2.404  20.923  1.00  0.00     0.003 A 
HETATM   13  C16 UNK     1      19.473   1.117  21.411  1.00  0.00     0.001 A 
HETATM   14  C13 UNK     1      19.219   0.064  20.528  1.00  0.00     0.014 A 
HETATM   15  C6  UNK     1      18.946  -0.765  18.189  1.00  0.00     0.037 A 
ENDBRANCH   3   5
BRANCH   2  16
HETATM   16  C1  UNK     1      19.823  -2.915  14.152  1.00  0.00     0.043 A 
HETATM   17  C2  UNK     1      20.332  -4.161  14.482  1.00  0.00    -0.035 A 
HETATM   18  C14 UNK     1      20.799  -4.480  15.864  1.00  0.00     0.050 C 
HETATM   19  C9  UNK     1      20.411  -5.148  13.500  1.00  0.00     0.011 A 
HETATM   20  C12 UNK     1      19.980  -4.875  12.201  1.00  0.00     0.037 A 
HETATM   21  C10 UNK     1      19.470  -3.616  11.884  1.00  0.00     0.105 A 
HETATM   22  C7  UNK     1      19.392  -2.629  12.867  1.00  0.00     0.066 A 
BRANCH  21  23
HETATM   23  N2  UNK     1      19.032  -3.340  10.562  1.00  0.00    -0.116 N 
HETATM   24  O4  UNK     1      19.664  -2.501   9.876  1.00  0.00    -0.532 OA
HETATM   25  O5  UNK     1      18.025  -3.941  10.117  1.00  0.00    -0.532 OA
ENDBRANCH  21  23
ENDBRANCH   2  16
TORSDOF 3
ENDMDL
MODEL 7
REMARK VINA RESULT:      -9.1     13.966     16.433
REMARK  3 active torsions:
REMARK  status: ('A' for Active; 'I' for Inactive)
REMARK    1  A    between atoms: C1_8  and  N1_6 
REMARK       I    between atoms: C8_15  and  N1_6 
REMARK    2  A    between atoms: C10_17  and  N2_7 
REMARK    3  A    between atoms: C4_11  and  C8_15 
ROOT
HETATM    1  O2  UNK     1      17.222  -1.291  17.314  1.00  0.00    -0.267 OA
HETATM    2  N1  UNK     1      19.226  -0.209  16.716  1.00  0.00    -0.322 N 
HETATM    3  C8  UNK     1      18.227  -1.167  16.615  1.00  0.00     0.262 C 
HETATM    4  H2  UNK     1      19.977  -0.242  16.033  1.00  0.00     0.169 HD
ENDROOT
BRANCH   3   5
HETATM    5  C4  UNK     1      18.470  -2.108  15.516  1.00  0.00     0.108 A 
HETATM    6  C11 UNK     1      19.108  -1.687  14.247  1.00  0.00     0.304 A 
HETATM    7  O1  UNK     1      19.286  -2.671  13.280  1.00  0.00    -0.274 OA
HETATM    8  O3  UNK     1      19.465  -0.530  14.055  1.00  0.00    -0.259 OA
HETATM    9  C5  UNK     1      18.881  -4.004  13.491  1.00  0.00     0.089 A 
HETATM   10  C15 UNK     1      19.101  -4.919  12.465  1.00  0.00     0.038 A 
HETATM   11  C3  UNK     1      18.283  -4.378  14.691  1.00  0.00    -0.001 A 
HETATM   12  C17 UNK     1      18.711  -6.243  12.644  1.00  0.00     0.003 A 
HETATM   13  C16 UNK     1      18.109  -6.638  13.841  1.00  0.00     0.001 A 
HETATM   14  C13 UNK     1      17.895  -5.709  14.863  1.00  0.00     0.014 A 
HETATM   15  C6  UNK     1      18.083  -3.372  15.723  1.00  0.00     0.037 A 
ENDBRANCH   3   5
BRANCH   2  16
HETATM   16  C1  UNK     1      19.317   0.850  17.652  1.00  0.00     0.043 A 
HETATM   17  C2  UNK     1      19.367   2.164  17.214  1.00  0.00    -0.035 A 
HETATM   18  C14 UNK     1      19.325   2.512  15.762  1.00  0.00     0.050 C 
HETATM   19  C9  UNK     1      19.456   3.193  18.151  1.00  0.00     0.011 A 
HETATM   20  C12 UNK     1      19.496   2.894  19.513  1.00  0.00     0.037 A 
HETATM   21  C10 UNK     1      19.446   1.567  19.939  1.00  0.00     0.105 A 
HETATM   22  C7  UNK     1      19.356   0.538  19.001  1.00  0.00     0.066 A 
BRANCH  21  23
HETATM   23  N2  UNK     1      19.486   1.263  21.325  1.00  0.00    -0.116 N 
HETATM   24  O4  UNK     1      19.415   2.202  22.154  1.00  0.00    -0.532 OA
HETATM   25  O5  UNK     1      19.591   0.066  21.683  1.00  0.00    -0.532 OA
ENDBRANCH  21  23
ENDBRANCH   2  16
TORSDOF 3
ENDMDL
MODEL 8
REMARK VINA RESULT:      -9.1     14.784     16.395
REMARK  3 active torsions:
REMARK  status: ('A' for Active; 'I' for Inactive)
REMARK    1  A    between atoms: C1_8  and  N1_6 
REMARK       I    between atoms: C8_15  and  N1_6 
REMARK    2  A    between atoms: C10_17  and  N2_7 
REMARK    3  A    between atoms: C4_11  and  C8_15 
ROOT
HETATM    1  O2  UNK     1      26.185  -9.085  39.377  1.00  0.00    -0.267 OA
HETATM    2  N1  UNK     1      24.977  -7.686  37.918  1.00  0.00    -0.322 N 
HETATM    3  C8  UNK     1      26.056  -8.062  38.706  1.00  0.00     0.262 C 
HETATM    4  H2  UNK     1      25.051  -6.811  37.409  1.00  0.00     0.169 HD
ENDROOT
BRANCH   3   5
HETATM    5  C4  UNK     1      27.134  -7.067  38.681  1.00  0.00     0.108 A 
HETATM    6  C11 UNK     1      26.866  -5.615  38.792  1.00  0.00     0.304 A 
HETATM    7  O1  UNK     1      27.971  -4.770  38.757  1.00  0.00    -0.274 OA
HETATM    8  O3  UNK     1      25.728  -5.174  38.913  1.00  0.00    -0.259 OA
HETATM    9  C5  UNK     1      29.282  -5.266  38.621  1.00  0.00     0.089 A 
HETATM   10  C15 UNK     1      30.325  -4.343  38.596  1.00  0.00     0.038 A 
HETATM   11  C3  UNK     1      29.512  -6.635  38.518  1.00  0.00    -0.001 A 
HETATM   12  C17 UNK     1      31.632  -4.803  38.462  1.00  0.00     0.003 A 
HETATM   13  C16 UNK     1      31.883  -6.173  38.356  1.00  0.00     0.001 A 
HETATM   14  C13 UNK     1      30.827  -7.088  38.384  1.00  0.00     0.014 A 
HETATM   15  C6  UNK     1      28.378  -7.544  38.552  1.00  0.00     0.037 A 
ENDBRANCH   3   5
BRANCH   2  16
HETATM   16  C1  UNK     1      23.772  -8.399  37.706  1.00  0.00     0.043 A 
HETATM   17  C2  UNK     1      22.695  -8.215  38.559  1.00  0.00    -0.035 A 
HETATM   18  C14 UNK     1      22.759  -7.273  39.716  1.00  0.00     0.050 C 
HETATM   19  C9  UNK     1      21.517  -8.926  38.334  1.00  0.00     0.011 A 
HETATM   20  C12 UNK     1      21.431  -9.812  37.259  1.00  0.00     0.037 A 
HETATM   21  C10 UNK     1      22.524  -9.987  36.410  1.00  0.00     0.105 A 
HETATM   22  C7  UNK     1      23.702  -9.275  36.635  1.00  0.00     0.066 A 
BRANCH  21  23
HETATM   23  N2  UNK     1      22.436 -10.889  35.317  1.00  0.00    -0.116 N 
HETATM   24  O4  UNK     1      23.183 -11.896  35.299  1.00  0.00    -0.532 OA
HETATM   25  O5  UNK     1      21.614 -10.653  34.399  1.00  0.00    -0.532 OA
ENDBRANCH  21  23
ENDBRANCH   2  16
TORSDOF 3
ENDMDL
MODEL 9
REMARK VINA RESULT:      -9.1      6.946      9.613
REMARK  3 active torsions:
REMARK  status: ('A' for Active; 'I' for Inactive)
REMARK    1  A    between atoms: C1_8  and  N1_6 
REMARK       I    between atoms: C8_15  and  N1_6 
REMARK    2  A    between atoms: C10_17  and  N2_7 
REMARK    3  A    between atoms: C4_11  and  C8_15 
ROOT
HETATM    1  O2  UNK     1      20.868  -3.077  37.688  1.00  0.00    -0.267 OA
HETATM    2  N1  UNK     1      19.089  -3.171  36.148  1.00  0.00    -0.322 N 
HETATM    3  C8  UNK     1      20.070  -3.691  36.982  1.00  0.00     0.262 C 
HETATM    4  H2  UNK     1      18.498  -3.830  35.652  1.00  0.00     0.169 HD
ENDROOT
BRANCH   3   5
HETATM    5  C4  UNK     1      20.090  -5.158  36.964  1.00  0.00     0.108 A 
HETATM    6  C11 UNK     1      20.182  -5.927  35.703  1.00  0.00     0.304 A 
HETATM    7  O1  UNK     1      20.194  -7.314  35.815  1.00  0.00    -0.274 OA
HETATM    8  O3  UNK     1      20.246  -5.375  34.610  1.00  0.00    -0.259 OA
HETATM    9  C5  UNK     1      20.123  -7.960  37.065  1.00  0.00     0.089 A 
HETATM   10  C15 UNK     1      20.142  -9.352  37.078  1.00  0.00     0.038 A 
HETATM   11  C3  UNK     1      20.037  -7.217  38.240  1.00  0.00    -0.001 A 
HETATM   12  C17 UNK     1      20.072 -10.018  38.299  1.00  0.00     0.003 A 
HETATM   13  C16 UNK     1      19.986  -9.290  39.488  1.00  0.00     0.001 A 
HETATM   14  C13 UNK     1      19.968  -7.893  39.460  1.00  0.00     0.014 A 
HETATM   15  C6  UNK     1      20.023  -5.765  38.155  1.00  0.00     0.037 A 
ENDBRANCH   3   5
BRANCH   2  16
HETATM   16  C1  UNK     1      18.784  -1.806  35.920  1.00  0.00     0.043 A 
HETATM   17  C2  UNK     1      19.040  -1.233  34.686  1.00  0.00    -0.035 A 
HETATM   18  C14 UNK     1      19.639  -2.015  33.563  1.00  0.00     0.050 C 
HETATM   19  C9  UNK     1      18.733   0.112  34.480  1.00  0.00     0.011 A 
HETATM   20  C12 UNK     1      18.173   0.865  35.513  1.00  0.00     0.037 A 
HETATM   21  C10 UNK     1      17.920   0.273  36.751  1.00  0.00     0.105 A 
HETATM   22  C7  UNK     1      18.228  -1.072  36.955  1.00  0.00     0.066 A 
BRANCH  21  23
HETATM   23  N2  UNK     1      17.350   1.040  37.801  1.00  0.00    -0.116 N 
HETATM   24  O4  UNK     1      17.922   1.060  38.918  1.00  0.00    -0.532 OA
HETATM   25  O5  UNK     1      16.291   1.676  37.584  1.00  0.00    -0.532 OA
ENDBRANCH  21  23
ENDBRANCH   2  16
TORSDOF 3
ENDMDL
MODEL 10
REMARK VINA RESULT:      -9.1     14.917     18.489
REMARK  3 active torsions:
REMARK  status: ('A' for Active; 'I' for Inactive)
REMARK    1  A    between atoms: C1_8  and  N1_6 
REMARK       I    between atoms: C8_15  and  N1_6 
REMARK    2  A    between atoms: C10_17  and  N2_7 
REMARK    3  A    between atoms: C4_11  and  C8_15 
ROOT
HETATM    1  O2  UNK     1      17.671  -2.329  16.114  1.00  0.00    -0.267 OA
HETATM    2  N1  UNK     1      19.738  -1.881  15.080  1.00  0.00    -0.322 N 
HETATM    3  C8  UNK     1      18.707  -1.679  15.987  1.00  0.00     0.262 C 
HETATM    4  H2  UNK     1      20.537  -1.257  15.132  1.00  0.00     0.169 HD
ENDROOT
BRANCH   3   5
HETATM    5  C4  UNK     1      18.961  -0.533  16.867  1.00  0.00     0.108 A 
HETATM    6  C11 UNK     1      19.196   0.829  16.336  1.00  0.00     0.304 A 
HETATM    7  O1  UNK     1      19.423   1.834  17.271  1.00  0.00    -0.274 OA
HETATM    8  O3  UNK     1      19.188   1.065  15.133  1.00  0.00    -0.259 OA
HETATM    9  C5  UNK     1      19.432   1.574  18.655  1.00  0.00     0.089 A 
HETATM   10  C15 UNK     1      19.669   2.645  19.515  1.00  0.00     0.038 A 
HETATM   11  C3  UNK     1      19.209   0.286  19.134  1.00  0.00    -0.001 A 
HETATM   12  C17 UNK     1      19.684   2.419  20.889  1.00  0.00     0.003 A 
HETATM   13  C16 UNK     1      19.463   1.133  21.387  1.00  0.00     0.001 A 
HETATM   14  C13 UNK     1      19.226   0.068  20.513  1.00  0.00     0.014 A 
HETATM   15  C6  UNK     1      18.967  -0.786  18.181  1.00  0.00     0.037 A 
ENDBRANCH   3   5
BRANCH   2  16
HETATM   16  C1  UNK     1      19.832  -2.888  14.088  1.00  0.00     0.043 A 
HETATM   17  C2  UNK     1      19.499  -2.604  12.774  1.00  0.00    -0.035 A 
HETATM   18  C14 UNK     1      19.037  -1.247  12.354  1.00  0.00     0.050 C 
HETATM   19  C9  UNK     1      19.598  -3.608  11.811  1.00  0.00     0.011 A 
HETATM   20  C12 UNK     1      20.028  -4.885  12.177  1.00  0.00     0.037 A 
HETATM   21  C10 UNK     1      20.359  -5.156  13.505  1.00  0.00     0.105 A 
HETATM   22  C7  UNK     1      20.260  -4.150  14.467  1.00  0.00     0.066 A 
BRANCH  21  23
HETATM   23  N2  UNK     1      20.796  -6.454  13.876  1.00  0.00    -0.116 N 
HETATM   24  O4  UNK     1      21.629  -6.571  14.808  1.00  0.00    -0.532 OA
HETATM   25  O5  UNK     1      20.339  -7.449  13.264  1.00  0.00    -0.532 OA
ENDBRANCH  21  23
ENDBRANCH   2  16
TORSDOF 3
ENDMDL
