MODEL 1
REMARK VINA RESULT:      -8.7      0.000      0.000
REMARK  5 active torsions:
REMARK  status: ('A' for Active; 'I' for Inactive)
REMARK    1  A    between atoms: C14_21  and  O3_3 
REMARK    2  A    between atoms: C21_28  and  O5_5 
REMARK    3  A    between atoms: C5_12  and  N1_6 
REMARK       I    between atoms: C7_14  and  N2_7 
REMARK    4  A    between atoms: C5_12  and  C6_13 
REMARK    5  A    between atoms: C7_14  and  C9_16 
ROOT
HETATM    1  O2  UNK     1      19.565  -8.531  38.708  1.00  0.00    -0.267 OA
HETATM    2  N1  UNK     1      19.615  -4.230  36.188  1.00  0.00     0.095 N 
HETATM    3  N2  UNK     1      19.701  -6.988  36.957  1.00  0.00    -0.345 N 
HETATM    4  C1  UNK     1      20.691  -5.103  35.700  1.00  0.00     0.292 C 
HETATM    5  C2  UNK     1      19.189  -4.643  37.534  1.00  0.00     0.292 C 
HETATM    6  C3  UNK     1      20.240  -6.565  35.659  1.00  0.00     0.156 C 
HETATM    7  C4  UNK     1      18.697  -6.089  37.522  1.00  0.00     0.156 C 
HETATM    8  C7  UNK     1      20.017  -8.176  37.620  1.00  0.00     0.256 C 
ENDROOT
BRANCH   2   9
HETATM    9  C5  UNK     1      20.049  -2.833  36.194  1.00  0.00     0.312 C 
BRANCH   9  10
HETATM   10  C6  UNK     1      19.224  -1.985  35.291  1.00  0.00    -0.011 A 
HETATM   11  C10 UNK     1      18.157  -1.315  35.750  1.00  0.00     0.092 A 
HETATM   12  C13 UNK     1      17.312  -0.466  34.894  1.00  0.00     0.288 A 
HETATM   13  O1  UNK     1      17.667  -0.380  33.557  1.00  0.00    -0.275 OA
HETATM   14  O4  UNK     1      16.344   0.132  35.349  1.00  0.00    -0.260 OA
HETATM   15  C11 UNK     1      18.784  -1.072  33.045  1.00  0.00     0.090 A 
HETATM   16  C8  UNK     1      19.575  -1.874  33.868  1.00  0.00     0.006 A 
HETATM   17  C15 UNK     1      19.046  -0.911  31.683  1.00  0.00     0.045 A 
HETATM   18  C12 UNK     1      20.666  -2.529  33.282  1.00  0.00     0.015 A 
HETATM   19  C18 UNK     1      20.943  -2.378  31.919  1.00  0.00     0.007 A 
HETATM   20  C17 UNK     1      20.135  -1.571  31.120  1.00  0.00    -0.059 A 
HETATM   21  C22 UNK     1      20.436  -1.414  29.669  1.00  0.00     0.048 C 
ENDBRANCH   9  10
ENDBRANCH   2   9
BRANCH   8  22
HETATM   22  C9  UNK     1      20.961  -9.100  36.976  1.00  0.00     0.065 A 
HETATM   23  C14 UNK     1      22.333  -8.848  36.993  1.00  0.00     0.086 A 
HETATM   24  C19 UNK     1      23.213  -9.738  36.377  1.00  0.00     0.074 A 
HETATM   25  C21 UNK     1      22.721 -10.878  35.743  1.00  0.00     0.070 A 
HETATM   26  C20 UNK     1      21.349 -11.130  35.726  1.00  0.00     0.038 A 
HETATM   27  C16 UNK     1      20.469 -10.241  36.343  1.00  0.00     0.022 A 
BRANCH  23  28
HETATM   28  O3  UNK     1      22.833  -7.739  37.608  1.00  0.00    -0.355 OA
HETATM   29  C23 UNK     1      23.496  -7.933  38.855  1.00  0.00     0.210 C 
ENDBRANCH  23  28
BRANCH  25  30
HETATM   30  O5  UNK     1      23.580 -11.746  35.142  1.00  0.00    -0.356 OA
HETATM   31  C24 UNK     1      24.554 -12.375  35.972  1.00  0.00     0.210 C 
ENDBRANCH  25  30
ENDBRANCH   8  22
TORSDOF 5
ENDMDL
MODEL 2
REMARK VINA RESULT:      -8.7     10.241     13.918
REMARK  5 active torsions:
REMARK  status: ('A' for Active; 'I' for Inactive)
REMARK    1  A    between atoms: C14_21  and  O3_3 
REMARK    2  A    between atoms: C21_28  and  O5_5 
REMARK    3  A    between atoms: C5_12  and  N1_6 
REMARK       I    between atoms: C7_14  and  N2_7 
REMARK    4  A    between atoms: C5_12  and  C6_13 
REMARK    5  A    between atoms: C7_14  and  C9_16 
ROOT
HETATM    1  O2  UNK     1      34.025  -5.703  38.067  1.00  0.00    -0.267 OA
HETATM    2  N1  UNK     1      33.804  -7.669  33.492  1.00  0.00     0.095 N 
HETATM    3  N2  UNK     1      33.325  -6.173  35.887  1.00  0.00    -0.345 N 
HETATM    4  C1  UNK     1      32.455  -7.607  34.072  1.00  0.00     0.292 C 
HETATM    5  C2  UNK     1      34.821  -7.613  34.553  1.00  0.00     0.292 C 
HETATM    6  C3  UNK     1      32.263  -6.327  34.887  1.00  0.00     0.156 C 
HETATM    7  C4  UNK     1      34.681  -6.326  35.365  1.00  0.00     0.156 C 
HETATM    8  C7  UNK     1      33.135  -5.832  37.228  1.00  0.00     0.256 C 
ENDROOT
BRANCH   2   9
HETATM    9  C5  UNK     1      33.965  -8.883  32.691  1.00  0.00     0.312 C 
BRANCH   9  10
HETATM   10  C6  UNK     1      33.907  -8.602  31.230  1.00  0.00    -0.011 A 
HETATM   11  C10 UNK     1      34.934  -8.021  30.594  1.00  0.00     0.092 A 
HETATM   12  C13 UNK     1      34.922  -7.724  29.152  1.00  0.00     0.288 A 
HETATM   13  O1  UNK     1      33.778  -8.077  28.453  1.00  0.00    -0.275 OA
HETATM   14  O4  UNK     1      35.881  -7.191  28.604  1.00  0.00    -0.260 OA
HETATM   15  C11 UNK     1      32.683  -8.690  29.094  1.00  0.00     0.090 A 
HETATM   16  C8  UNK     1      32.708  -8.964  30.462  1.00  0.00     0.006 A 
HETATM   17  C15 UNK     1      31.584  -9.000  28.291  1.00  0.00     0.045 A 
HETATM   18  C12 UNK     1      31.578  -9.574  31.023  1.00  0.00     0.015 A 
HETATM   19  C18 UNK     1      30.469  -9.892  30.232  1.00  0.00     0.007 A 
HETATM   20  C17 UNK     1      30.471  -9.606  28.868  1.00  0.00    -0.059 A 
HETATM   21  C22 UNK     1      29.286  -9.948  28.030  1.00  0.00     0.048 C 
ENDBRANCH   9  10
ENDBRANCH   2   9
BRANCH   8  22
HETATM   22  C9  UNK     1      31.762  -5.593  37.696  1.00  0.00     0.065 A 
HETATM   23  C14 UNK     1      31.008  -6.625  38.257  1.00  0.00     0.086 A 
HETATM   24  C19 UNK     1      29.708  -6.378  38.696  1.00  0.00     0.074 A 
HETATM   25  C21 UNK     1      29.161  -5.101  38.573  1.00  0.00     0.070 A 
HETATM   26  C20 UNK     1      29.914  -4.071  38.012  1.00  0.00     0.038 A 
HETATM   27  C16 UNK     1      31.215  -4.316  37.574  1.00  0.00     0.022 A 
BRANCH  23  28
HETATM   28  O3  UNK     1      31.525  -7.879  38.386  1.00  0.00    -0.355 OA
HETATM   29  C23 UNK     1      30.985  -8.892  37.541  1.00  0.00     0.210 C 
ENDBRANCH  23  28
BRANCH  25  30
HETATM   30  O5  UNK     1      27.891  -4.861  39.001  1.00  0.00    -0.356 OA
HETATM   31  C24 UNK     1      26.894  -5.816  38.644  1.00  0.00     0.210 C 
ENDBRANCH  25  30
ENDBRANCH   8  22
TORSDOF 5
ENDMDL
MODEL 3
REMARK VINA RESULT:      -8.6      9.360     12.060
REMARK  5 active torsions:
REMARK  status: ('A' for Active; 'I' for Inactive)
REMARK    1  A    between atoms: C14_21  and  O3_3 
REMARK    2  A    between atoms: C21_28  and  O5_5 
REMARK    3  A    between atoms: C5_12  and  N1_6 
REMARK       I    between atoms: C7_14  and  N2_7 
REMARK    4  A    between atoms: C5_12  and  C6_13 
REMARK    5  A    between atoms: C7_14  and  C9_16 
ROOT
HETATM    1  O2  UNK     1      29.811  -4.351  32.204  1.00  0.00    -0.267 OA
HETATM    2  N1  UNK     1      32.276  -6.707  35.840  1.00  0.00     0.095 N 
HETATM    3  N2  UNK     1      31.074  -5.947  33.353  1.00  0.00    -0.345 N 
HETATM    4  C1  UNK     1      31.474  -7.673  35.077  1.00  0.00     0.292 C 
HETATM    5  C2  UNK     1      31.757  -5.344  35.648  1.00  0.00     0.292 C 
HETATM    6  C3  UNK     1      31.480  -7.338  33.584  1.00  0.00     0.156 C 
HETATM    7  C4  UNK     1      31.782  -4.962  34.168  1.00  0.00     0.156 C 
HETATM    8  C7  UNK     1      30.151  -5.517  32.398  1.00  0.00     0.256 C 
ENDROOT
BRANCH   2   9
HETATM    9  C5  UNK     1      32.288  -7.055  37.261  1.00  0.00     0.312 C 
BRANCH   9  10
HETATM   10  C6  UNK     1      31.113  -6.495  37.985  1.00  0.00    -0.011 A 
HETATM   11  C10 UNK     1      31.050  -5.195  38.304  1.00  0.00     0.092 A 
HETATM   12  C13 UNK     1      29.912  -4.597  39.021  1.00  0.00     0.288 A 
HETATM   13  O1  UNK     1      28.874  -5.451  39.363  1.00  0.00    -0.275 OA
HETATM   14  O4  UNK     1      29.888  -3.403  39.296  1.00  0.00    -0.260 OA
HETATM   15  C11 UNK     1      28.911  -6.822  39.040  1.00  0.00     0.090 A 
HETATM   16  C8  UNK     1      29.999  -7.375  38.362  1.00  0.00     0.006 A 
HETATM   17  C15 UNK     1      27.812  -7.587  39.436  1.00  0.00     0.045 A 
HETATM   18  C12 UNK     1      29.959  -8.747  38.080  1.00  0.00     0.015 A 
HETATM   19  C18 UNK     1      28.864  -9.526  38.469  1.00  0.00     0.007 A 
HETATM   20  C17 UNK     1      27.792  -8.948  39.146  1.00  0.00    -0.059 A 
HETATM   21  C22 UNK     1      26.628  -9.784  39.557  1.00  0.00     0.048 C 
ENDBRANCH   9  10
ENDBRANCH   2   9
BRANCH   8  22
HETATM   22  C9  UNK     1      29.527  -6.528  31.532  1.00  0.00     0.065 A 
HETATM   23  C14 UNK     1      30.097  -6.870  30.305  1.00  0.00     0.086 A 
HETATM   24  C19 UNK     1      29.489  -7.831  29.499  1.00  0.00     0.074 A 
HETATM   25  C21 UNK     1      28.312  -8.451  29.918  1.00  0.00     0.070 A 
HETATM   26  C20 UNK     1      27.743  -8.109  31.144  1.00  0.00     0.038 A 
HETATM   27  C16 UNK     1      28.350  -7.148  31.952  1.00  0.00     0.022 A 
BRANCH  23  28
HETATM   28  O3  UNK     1      31.247  -6.275  29.878  1.00  0.00    -0.355 OA
HETATM   29  C23 UNK     1      32.259  -7.129  29.350  1.00  0.00     0.210 C 
ENDBRANCH  23  28
BRANCH  25  30
HETATM   30  O5  UNK     1      27.719  -9.389  29.130  1.00  0.00    -0.356 OA
HETATM   31  C24 UNK     1      28.570 -10.150  28.274  1.00  0.00     0.210 C 
ENDBRANCH  25  30
ENDBRANCH   8  22
TORSDOF 5
ENDMDL
MODEL 4
REMARK VINA RESULT:      -8.4     10.346     13.844
REMARK  5 active torsions:
REMARK  status: ('A' for Active; 'I' for Inactive)
REMARK    1  A    between atoms: C14_21  and  O3_3 
REMARK    2  A    between atoms: C21_28  and  O5_5 
REMARK    3  A    between atoms: C5_12  and  N1_6 
REMARK       I    between atoms: C7_14  and  N2_7 
REMARK    4  A    between atoms: C5_12  and  C6_13 
REMARK    5  A    between atoms: C7_14  and  C9_16 
ROOT
HETATM    1  O2  UNK     1      36.875  -6.877  34.510  1.00  0.00    -0.267 OA
HETATM    2  N1  UNK     1      32.092  -6.535  35.870  1.00  0.00     0.095 N 
HETATM    3  N2  UNK     1      34.659  -7.448  34.986  1.00  0.00    -0.345 N 
HETATM    4  C1  UNK     1      32.208  -7.377  34.671  1.00  0.00     0.292 C 
HETATM    5  C2  UNK     1      33.278  -5.678  36.012  1.00  0.00     0.292 C 
HETATM    6  C3  UNK     1      33.460  -8.255  34.732  1.00  0.00     0.156 C 
HETATM    7  C4  UNK     1      34.546  -6.525  36.113  1.00  0.00     0.156 C 
HETATM    8  C7  UNK     1      35.870  -7.553  34.298  1.00  0.00     0.256 C 
ENDROOT
BRANCH   2   9
HETATM    9  C5  UNK     1      30.876  -5.724  35.813  1.00  0.00     0.312 C 
BRANCH   9  10
HETATM   10  C6  UNK     1      30.164  -5.688  37.120  1.00  0.00    -0.011 A 
HETATM   11  C10 UNK     1      30.197  -4.598  37.900  1.00  0.00     0.092 A 
HETATM   12  C13 UNK     1      29.509  -4.518  39.199  1.00  0.00     0.288 A 
HETATM   13  O1  UNK     1      28.804  -5.641  39.601  1.00  0.00    -0.275 OA
HETATM   14  O4  UNK     1      29.561  -3.503  39.885  1.00  0.00    -0.260 OA
HETATM   15  C11 UNK     1      28.750  -6.802  38.803  1.00  0.00     0.090 A 
HETATM   16  C8  UNK     1      29.408  -6.864  37.574  1.00  0.00     0.006 A 
HETATM   17  C15 UNK     1      28.010  -7.873  39.308  1.00  0.00     0.045 A 
HETATM   18  C12 UNK     1      29.306  -8.054  36.841  1.00  0.00     0.015 A 
HETATM   19  C18 UNK     1      28.568  -9.136  37.334  1.00  0.00     0.007 A 
HETATM   20  C17 UNK     1      27.921  -9.046  38.565  1.00  0.00    -0.059 A 
HETATM   21  C22 UNK     1      27.137 -10.203  39.084  1.00  0.00     0.048 C 
ENDBRANCH   9  10
ENDBRANCH   2   9
BRANCH   8  22
HETATM   22  C9  UNK     1      35.976  -8.558  33.231  1.00  0.00     0.065 A 
HETATM   23  C14 UNK     1      35.690  -8.228  31.905  1.00  0.00     0.086 A 
HETATM   24  C19 UNK     1      35.798  -9.195  30.907  1.00  0.00     0.074 A 
HETATM   25  C21 UNK     1      36.191 -10.492  31.233  1.00  0.00     0.070 A 
HETATM   26  C20 UNK     1      36.478 -10.822  32.557  1.00  0.00     0.038 A 
HETATM   27  C16 UNK     1      36.371  -9.855  33.557  1.00  0.00     0.022 A 
BRANCH  23  28
HETATM   28  O3  UNK     1      35.303  -6.965  31.567  1.00  0.00    -0.355 OA
HETATM   29  C23 UNK     1      34.958  -6.738  30.203  1.00  0.00     0.210 C 
ENDBRANCH  23  28
BRANCH  25  30
HETATM   30  O5  UNK     1      36.297 -11.437  30.258  1.00  0.00    -0.356 OA
HETATM   31  C24 UNK     1      35.563 -12.646  30.444  1.00  0.00     0.210 C 
ENDBRANCH  25  30
ENDBRANCH   8  22
TORSDOF 5
ENDMDL
MODEL 5
REMARK VINA RESULT:      -8.4     28.686     31.185
REMARK  5 active torsions:
REMARK  status: ('A' for Active; 'I' for Inactive)
REMARK    1  A    between atoms: C14_21  and  O3_3 
REMARK    2  A    between atoms: C21_28  and  O5_5 
REMARK    3  A    between atoms: C5_12  and  N1_6 
REMARK       I    between atoms: C7_14  and  N2_7 
REMARK    4  A    between atoms: C5_12  and  C6_13 
REMARK    5  A    between atoms: C7_14  and  C9_16 
ROOT
HETATM    1  O2  UNK     1       7.066   7.262   7.029  1.00  0.00    -0.267 OA
HETATM    2  N1  UNK     1      11.955   6.302   7.194  1.00  0.00     0.095 N 
HETATM    3  N2  UNK     1       9.146   6.458   7.732  1.00  0.00    -0.345 N 
HETATM    4  C1  UNK     1      11.475   6.664   8.535  1.00  0.00     0.292 C 
HETATM    5  C2  UNK     1      11.025   6.792   6.166  1.00  0.00     0.292 C 
HETATM    6  C3  UNK     1      10.083   6.085   8.797  1.00  0.00     0.156 C 
HETATM    7  C4  UNK     1       9.630   6.204   6.377  1.00  0.00     0.156 C 
HETATM    8  C7  UNK     1       7.852   6.949   7.922  1.00  0.00     0.256 C 
ENDROOT
BRANCH   2   9
HETATM    9  C5  UNK     1      13.298   6.836   6.967  1.00  0.00     0.312 C 
BRANCH   9  10
HETATM   10  C6  UNK     1      14.193   6.620   8.137  1.00  0.00    -0.011 A 
HETATM   11  C10 UNK     1      14.523   5.385   8.540  1.00  0.00     0.092 A 
HETATM   12  C13 UNK     1      15.403   5.123   9.691  1.00  0.00     0.288 A 
HETATM   13  O1  UNK     1      15.894   6.231  10.364  1.00  0.00    -0.275 OA
HETATM   14  O4  UNK     1      15.684   3.979  10.030  1.00  0.00    -0.260 OA
HETATM   15  C11 UNK     1      15.564   7.542   9.964  1.00  0.00     0.090 A 
HETATM   16  C8  UNK     1      14.728   7.775   8.872  1.00  0.00     0.006 A 
HETATM   17  C15 UNK     1      16.115   8.581  10.717  1.00  0.00     0.045 A 
HETATM   18  C12 UNK     1      14.448   9.107   8.540  1.00  0.00     0.015 A 
HETATM   19  C18 UNK     1      14.993  10.159   9.283  1.00  0.00     0.007 A 
HETATM   20  C17 UNK     1      15.825   9.897  10.371  1.00  0.00    -0.059 A 
HETATM   21  C22 UNK     1      16.403  11.023  11.159  1.00  0.00     0.048 C 
ENDBRANCH   9  10
ENDBRANCH   2   9
BRANCH   8  22
HETATM   22  C9  UNK     1       7.365   7.104   9.300  1.00  0.00     0.065 A 
HETATM   23  C14 UNK     1       6.757   6.041   9.968  1.00  0.00     0.086 A 
HETATM   24  C19 UNK     1       6.301   6.209  11.275  1.00  0.00     0.074 A 
HETATM   25  C21 UNK     1       6.452   7.438  11.914  1.00  0.00     0.070 A 
HETATM   26  C20 UNK     1       7.060   8.501  11.247  1.00  0.00     0.038 A 
HETATM   27  C16 UNK     1       7.517   8.335   9.939  1.00  0.00     0.022 A 
BRANCH  23  28
HETATM   28  O3  UNK     1       6.599   4.831   9.360  1.00  0.00    -0.355 OA
HETATM   29  C23 UNK     1       6.645   3.676  10.195  1.00  0.00     0.210 C 
ENDBRANCH  23  28
BRANCH  25  30
HETATM   30  O5  UNK     1       6.008   7.602  13.190  1.00  0.00    -0.356 OA
HETATM   31  C24 UNK     1       5.587   6.430  13.886  1.00  0.00     0.210 C 
ENDBRANCH  25  30
ENDBRANCH   8  22
TORSDOF 5
ENDMDL
MODEL 6
REMARK VINA RESULT:      -8.4      5.928     12.683
REMARK  5 active torsions:
REMARK  status: ('A' for Active; 'I' for Inactive)
REMARK    1  A    between atoms: C14_21  and  O3_3 
REMARK    2  A    between atoms: C21_28  and  O5_5 
REMARK    3  A    between atoms: C5_12  and  N1_6 
REMARK       I    between atoms: C7_14  and  N2_7 
REMARK    4  A    between atoms: C5_12  and  C6_13 
REMARK    5  A    between atoms: C7_14  and  C9_16 
ROOT
HETATM    1  O2  UNK     1      19.371   5.492  29.836  1.00  0.00    -0.267 OA
HETATM    2  N1  UNK     1      18.261   1.338  32.359  1.00  0.00     0.095 N 
HETATM    3  N2  UNK     1      18.449   4.036  31.417  1.00  0.00    -0.345 N 
HETATM    4  C1  UNK     1      18.517   2.437  33.300  1.00  0.00     0.292 C 
HETATM    5  C2  UNK     1      18.867   1.631  31.052  1.00  0.00     0.292 C 
HETATM    6  C3  UNK     1      17.957   3.759  32.771  1.00  0.00     0.156 C 
HETATM    7  C4  UNK     1      18.302   2.929  30.475  1.00  0.00     0.156 C 
HETATM    8  C7  UNK     1      18.958   5.258  30.972  1.00  0.00     0.256 C 
ENDROOT
BRANCH   2   9
HETATM    9  C5  UNK     1      18.775   0.075  32.890  1.00  0.00     0.312 C 
BRANCH   9  10
HETATM   10  C6  UNK     1      18.191  -0.252  34.221  1.00  0.00    -0.011 A 
HETATM   11  C10 UNK     1      17.081   0.357  34.661  1.00  0.00     0.092 A 
HETATM   12  C13 UNK     1      16.470   0.067  35.968  1.00  0.00     0.288 A 
HETATM   13  O1  UNK     1      17.099  -0.888  36.752  1.00  0.00    -0.275 OA
HETATM   14  O4  UNK     1      15.453   0.644  36.337  1.00  0.00    -0.260 OA
HETATM   15  C11 UNK     1      18.267  -1.546  36.316  1.00  0.00     0.090 A 
HETATM   16  C8  UNK     1      18.836  -1.260  35.074  1.00  0.00     0.006 A 
HETATM   17  C15 UNK     1      18.815  -2.488  37.188  1.00  0.00     0.045 A 
HETATM   18  C12 UNK     1      19.998  -1.957  34.715  1.00  0.00     0.015 A 
HETATM   19  C18 UNK     1      20.559  -2.904  35.578  1.00  0.00     0.007 A 
HETATM   20  C17 UNK     1      19.969  -3.170  36.813  1.00  0.00    -0.059 A 
HETATM   21  C22 UNK     1      20.572  -4.181  37.728  1.00  0.00     0.048 C 
ENDBRANCH   9  10
ENDBRANCH   2   9
BRANCH   8  22
HETATM   22  C9  UNK     1      19.005   6.378  31.922  1.00  0.00     0.065 A 
HETATM   23  C14 UNK     1      17.920   7.246  32.060  1.00  0.00     0.086 A 
HETATM   24  C19 UNK     1      17.985   8.302  32.968  1.00  0.00     0.074 A 
HETATM   25  C21 UNK     1      19.132   8.492  33.738  1.00  0.00     0.070 A 
HETATM   26  C20 UNK     1      20.215   7.625  33.600  1.00  0.00     0.038 A 
HETATM   27  C16 UNK     1      20.152   6.567  32.693  1.00  0.00     0.022 A 
BRANCH  23  28
HETATM   28  O3  UNK     1      16.790   7.077  31.317  1.00  0.00    -0.355 OA
HETATM   29  C23 UNK     1      15.546   7.330  31.965  1.00  0.00     0.210 C 
ENDBRANCH  23  28
BRANCH  25  30
HETATM   30  O5  UNK     1      19.194   9.523  34.624  1.00  0.00    -0.356 OA
HETATM   31  C24 UNK     1      18.835  10.816  34.141  1.00  0.00     0.210 C 
ENDBRANCH  25  30
ENDBRANCH   8  22
TORSDOF 5
ENDMDL
MODEL 7
REMARK VINA RESULT:      -8.4      1.129      3.002
REMARK  5 active torsions:
REMARK  status: ('A' for Active; 'I' for Inactive)
REMARK    1  A    between atoms: C14_21  and  O3_3 
REMARK    2  A    between atoms: C21_28  and  O5_5 
REMARK    3  A    between atoms: C5_12  and  N1_6 
REMARK       I    between atoms: C7_14  and  N2_7 
REMARK    4  A    between atoms: C5_12  and  C6_13 
REMARK    5  A    between atoms: C7_14  and  C9_16 
ROOT
HETATM    1  O2  UNK     1      20.507  -7.949  39.324  1.00  0.00    -0.267 OA
HETATM    2  N1  UNK     1      19.992  -3.991  36.337  1.00  0.00     0.095 N 
HETATM    3  N2  UNK     1      20.183  -6.638  37.415  1.00  0.00    -0.345 N 
HETATM    4  C1  UNK     1      20.836  -5.000  35.683  1.00  0.00     0.292 C 
HETATM    5  C2  UNK     1      19.967  -4.208  37.791  1.00  0.00     0.292 C 
HETATM    6  C3  UNK     1      20.330  -6.415  35.973  1.00  0.00     0.156 C 
HETATM    7  C4  UNK     1      19.432  -5.601  38.119  1.00  0.00     0.156 C 
HETATM    8  C7  UNK     1      20.631  -7.762  38.114  1.00  0.00     0.256 C 
ENDROOT
BRANCH   2   9
HETATM    9  C5  UNK     1      20.467  -2.643  36.028  1.00  0.00     0.312 C 
BRANCH   9  10
HETATM   10  C6  UNK     1      19.583  -1.946  35.053  1.00  0.00    -0.011 A 
HETATM   11  C10 UNK     1      19.812  -2.017  33.734  1.00  0.00     0.092 A 
HETATM   12  C13 UNK     1      18.966  -1.345  32.735  1.00  0.00     0.288 A 
HETATM   13  O1  UNK     1      17.892  -0.613  33.218  1.00  0.00    -0.275 OA
HETATM   14  O4  UNK     1      19.206  -1.433  31.536  1.00  0.00    -0.260 OA
HETATM   15  C11 UNK     1      17.626  -0.520  34.599  1.00  0.00     0.090 A 
HETATM   16  C8  UNK     1      18.438  -1.163  35.535  1.00  0.00     0.006 A 
HETATM   17  C15 UNK     1      16.519   0.244  34.971  1.00  0.00     0.045 A 
HETATM   18  C12 UNK     1      18.106  -1.019  36.889  1.00  0.00     0.015 A 
HETATM   19  C18 UNK     1      16.999  -0.257  37.278  1.00  0.00     0.007 A 
HETATM   20  C17 UNK     1      16.206   0.374  36.321  1.00  0.00    -0.059 A 
HETATM   21  C22 UNK     1      15.028   1.184  36.742  1.00  0.00     0.048 C 
ENDBRANCH   9  10
ENDBRANCH   2   9
BRANCH   8  22
HETATM   22  C9  UNK     1      21.301  -8.828  37.357  1.00  0.00     0.065 A 
HETATM   23  C14 UNK     1      22.681  -8.802  37.152  1.00  0.00     0.086 A 
HETATM   24  C19 UNK     1      23.298  -9.824  36.431  1.00  0.00     0.074 A 
HETATM   25  C21 UNK     1      22.536 -10.871  35.915  1.00  0.00     0.070 A 
HETATM   26  C20 UNK     1      21.157 -10.898  36.120  1.00  0.00     0.038 A 
HETATM   27  C16 UNK     1      20.539  -9.876  36.841  1.00  0.00     0.022 A 
BRANCH  23  28
HETATM   28  O3  UNK     1      23.443  -7.786  37.649  1.00  0.00    -0.355 OA
HETATM   29  C23 UNK     1      24.310  -8.100  38.736  1.00  0.00     0.210 C 
ENDBRANCH  23  28
BRANCH  25  30
HETATM   30  O5  UNK     1      23.139 -11.868  35.211  1.00  0.00    -0.356 OA
HETATM   31  C24 UNK     1      24.388 -12.348  35.705  1.00  0.00     0.210 C 
ENDBRANCH  25  30
ENDBRANCH   8  22
TORSDOF 5
ENDMDL
MODEL 8
REMARK VINA RESULT:      -8.3      9.494     15.968
REMARK  5 active torsions:
REMARK  status: ('A' for Active; 'I' for Inactive)
REMARK    1  A    between atoms: C14_21  and  O3_3 
REMARK    2  A    between atoms: C21_28  and  O5_5 
REMARK    3  A    between atoms: C5_12  and  N1_6 
REMARK       I    between atoms: C7_14  and  N2_7 
REMARK    4  A    between atoms: C5_12  and  C6_13 
REMARK    5  A    between atoms: C7_14  and  C9_16 
ROOT
HETATM    1  O2  UNK     1      13.783  10.124  33.058  1.00  0.00    -0.267 OA
HETATM    2  N1  UNK     1      17.199   6.530  33.570  1.00  0.00     0.095 N 
HETATM    3  N2  UNK     1      15.339   8.662  34.012  1.00  0.00    -0.345 N 
HETATM    4  C1  UNK     1      17.589   7.702  34.366  1.00  0.00     0.292 C 
HETATM    5  C2  UNK     1      16.245   6.917  32.520  1.00  0.00     0.292 C 
HETATM    6  C3  UNK     1      16.368   8.360  35.013  1.00  0.00     0.156 C 
HETATM    7  C4  UNK     1      14.995   7.546  33.134  1.00  0.00     0.156 C 
HETATM    8  C7  UNK     1      14.647   9.870  33.897  1.00  0.00     0.256 C 
ENDROOT
BRANCH   2   9
HETATM    9  C5  UNK     1      18.377   5.892  32.982  1.00  0.00     0.312 C 
BRANCH   9  10
HETATM   10  C6  UNK     1      18.334   4.409  33.108  1.00  0.00    -0.011 A 
HETATM   11  C10 UNK     1      18.209   3.817  34.304  1.00  0.00     0.092 A 
HETATM   12  C13 UNK     1      18.163   2.356  34.477  1.00  0.00     0.288 A 
HETATM   13  O1  UNK     1      18.255   1.589  33.325  1.00  0.00    -0.275 OA
HETATM   14  O4  UNK     1      18.047   1.850  35.587  1.00  0.00    -0.260 OA
HETATM   15  C11 UNK     1      18.387   2.183  32.054  1.00  0.00     0.090 A 
HETATM   16  C8  UNK     1      18.430   3.570  31.905  1.00  0.00     0.006 A 
HETATM   17  C15 UNK     1      18.472   1.313  30.965  1.00  0.00     0.045 A 
HETATM   18  C12 UNK     1      18.564   4.081  30.607  1.00  0.00     0.015 A 
HETATM   19  C18 UNK     1      18.650   3.223  29.506  1.00  0.00     0.007 A 
HETATM   20  C17 UNK     1      18.604   1.840  29.684  1.00  0.00    -0.059 A 
HETATM   21  C22 UNK     1      18.696   0.932  28.506  1.00  0.00     0.048 C 
ENDBRANCH   9  10
ENDBRANCH   2   9
BRANCH   8  22
HETATM   22  C9  UNK     1      14.953  10.940  34.857  1.00  0.00     0.065 A 
HETATM   23  C14 UNK     1      16.081  11.745  34.695  1.00  0.00     0.086 A 
HETATM   24  C19 UNK     1      16.354  12.755  35.617  1.00  0.00     0.074 A 
HETATM   25  C21 UNK     1      15.501  12.960  36.700  1.00  0.00     0.070 A 
HETATM   26  C20 UNK     1      14.374  12.155  36.863  1.00  0.00     0.038 A 
HETATM   27  C16 UNK     1      14.099  11.145  35.941  1.00  0.00     0.022 A 
BRANCH  23  28
HETATM   28  O3  UNK     1      16.927  11.561  33.642  1.00  0.00    -0.355 OA
HETATM   29  C23 UNK     1      18.299  11.327  33.948  1.00  0.00     0.210 C 
ENDBRANCH  23  28
BRANCH  25  30
HETATM   30  O5  UNK     1      15.768  13.946  37.600  1.00  0.00    -0.356 OA
HETATM   31  C24 UNK     1      14.728  14.292  38.512  1.00  0.00     0.210 C 
ENDBRANCH  25  30
ENDBRANCH   8  22
TORSDOF 5
ENDMDL
MODEL 9
REMARK VINA RESULT:      -8.3     10.462     15.314
REMARK  5 active torsions:
REMARK  status: ('A' for Active; 'I' for Inactive)
REMARK    1  A    between atoms: C14_21  and  O3_3 
REMARK    2  A    between atoms: C21_28  and  O5_5 
REMARK    3  A    between atoms: C5_12  and  N1_6 
REMARK       I    between atoms: C7_14  and  N2_7 
REMARK    4  A    between atoms: C5_12  and  C6_13 
REMARK    5  A    between atoms: C7_14  and  C9_16 
ROOT
HETATM    1  O2  UNK     1      19.726   6.453  33.847  1.00  0.00    -0.267 OA
HETATM    2  N1  UNK     1      15.549   9.172  33.731  1.00  0.00     0.095 N 
HETATM    3  N2  UNK     1      17.499   7.083  33.520  1.00  0.00    -0.345 N 
HETATM    4  C1  UNK     1      15.664   8.385  32.495  1.00  0.00     0.292 C 
HETATM    5  C2  UNK     1      16.864   9.310  34.375  1.00  0.00     0.292 C 
HETATM    6  C3  UNK     1      16.237   6.994  32.777  1.00  0.00     0.156 C 
HETATM    7  C4  UNK     1      17.450   7.938  34.704  1.00  0.00     0.156 C 
HETATM    8  C7  UNK     1      18.667   6.378  33.224  1.00  0.00     0.256 C 
ENDROOT
BRANCH   2   9
HETATM    9  C5  UNK     1      14.973  10.487  33.452  1.00  0.00     0.312 C 
BRANCH   9  10
HETATM   10  C6  UNK     1      14.190  11.012  34.605  1.00  0.00    -0.011 A 
HETATM   11  C10 UNK     1      14.517  10.699  35.866  1.00  0.00     0.092 A 
HETATM   12  C13 UNK     1      13.772  11.193  37.036  1.00  0.00     0.288 A 
HETATM   13  O1  UNK     1      12.688  12.020  36.781  1.00  0.00    -0.275 OA
HETATM   14  O4  UNK     1      14.101  10.887  38.176  1.00  0.00    -0.260 OA
HETATM   15  C11 UNK     1      12.321  12.367  35.465  1.00  0.00     0.090 A 
HETATM   16  C8  UNK     1      13.036  11.890  34.366  1.00  0.00     0.006 A 
HETATM   17  C15 UNK     1      11.212  13.204  35.327  1.00  0.00     0.045 A 
HETATM   18  C12 UNK     1      12.605  12.280  33.091  1.00  0.00     0.015 A 
HETATM   19  C18 UNK     1      11.496  13.119  32.936  1.00  0.00     0.007 A 
HETATM   20  C17 UNK     1      10.800  13.581  34.052  1.00  0.00    -0.059 A 
HETATM   21  C22 UNK     1       9.620  14.475  33.880  1.00  0.00     0.048 C 
ENDBRANCH   9  10
ENDBRANCH   2   9
BRANCH   8  22
HETATM   22  C9  UNK     1      18.651   5.456  32.080  1.00  0.00     0.065 A 
HETATM   23  C14 UNK     1      18.240   4.132  32.234  1.00  0.00     0.086 A 
HETATM   24  C19 UNK     1      18.231   3.273  31.136  1.00  0.00     0.074 A 
HETATM   25  C21 UNK     1      18.633   3.737  29.884  1.00  0.00     0.070 A 
HETATM   26  C20 UNK     1      19.044   5.061  29.730  1.00  0.00     0.038 A 
HETATM   27  C16 UNK     1      19.052   5.921  30.828  1.00  0.00     0.022 A 
BRANCH  23  28
HETATM   28  O3  UNK     1      17.843   3.659  33.449  1.00  0.00    -0.355 OA
HETATM   29  C23 UNK     1      18.182   2.310  33.762  1.00  0.00     0.210 C 
ENDBRANCH  23  28
BRANCH  25  30
HETATM   30  O5  UNK     1      18.624   2.898  28.812  1.00  0.00    -0.356 OA
HETATM   31  C24 UNK     1      17.865   1.697  28.934  1.00  0.00     0.210 C 
ENDBRANCH  25  30
ENDBRANCH   8  22
TORSDOF 5
ENDMDL
MODEL 10
REMARK VINA RESULT:      -8.3     28.699     33.258
REMARK  5 active torsions:
REMARK  status: ('A' for Active; 'I' for Inactive)
REMARK    1  A    between atoms: C14_21  and  O3_3 
REMARK    2  A    between atoms: C21_28  and  O5_5 
REMARK    3  A    between atoms: C5_12  and  N1_6 
REMARK       I    between atoms: C7_14  and  N2_7 
REMARK    4  A    between atoms: C5_12  and  C6_13 
REMARK    5  A    between atoms: C7_14  and  C9_16 
ROOT
HETATM    1  O2  UNK     1      18.540  13.434   8.839  1.00  0.00    -0.267 OA
HETATM    2  N1  UNK     1      15.620   9.428   9.362  1.00  0.00     0.095 N 
HETATM    3  N2  UNK     1      16.856  11.854   8.473  1.00  0.00    -0.345 N 
HETATM    4  C1  UNK     1      14.799  10.600   9.027  1.00  0.00     0.292 C 
HETATM    5  C2  UNK     1      16.916   9.850   9.913  1.00  0.00     0.292 C 
HETATM    6  C3  UNK     1      15.509  11.499   8.012  1.00  0.00     0.156 C 
HETATM    7  C4  UNK     1      17.670  10.722   8.909  1.00  0.00     0.156 C 
HETATM    8  C7  UNK     1      17.410  13.136   8.452  1.00  0.00     0.256 C 
ENDROOT
BRANCH   2   9
HETATM    9  C5  UNK     1      14.918   8.562  10.309  1.00  0.00     0.312 C 
BRANCH   9  10
HETATM   10  C6  UNK     1      14.664   7.207   9.748  1.00  0.00    -0.011 A 
HETATM   11  C10 UNK     1      15.465   6.173  10.041  1.00  0.00     0.092 A 
HETATM   12  C13 UNK     1      15.254   4.817   9.509  1.00  0.00     0.288 A 
HETATM   13  O1  UNK     1      14.164   4.639   8.671  1.00  0.00    -0.275 OA
HETATM   14  O4  UNK     1      16.008   3.895   9.799  1.00  0.00    -0.260 OA
HETATM   15  C11 UNK     1      13.303   5.706   8.345  1.00  0.00     0.090 A 
HETATM   16  C8  UNK     1      13.517   6.987   8.856  1.00  0.00     0.006 A 
HETATM   17  C15 UNK     1      12.239   5.411   7.491  1.00  0.00     0.045 A 
HETATM   18  C12 UNK     1      12.616   7.994   8.484  1.00  0.00     0.015 A 
HETATM   19  C18 UNK     1      11.544   7.714   7.629  1.00  0.00     0.007 A 
HETATM   20  C17 UNK     1      11.355   6.425   7.133  1.00  0.00    -0.059 A 
HETATM   21  C22 UNK     1      10.211   6.134   6.224  1.00  0.00     0.048 C 
ENDBRANCH   9  10
ENDBRANCH   2   9
BRANCH   8  22
HETATM   22  C9  UNK     1      16.595  14.236   7.919  1.00  0.00     0.065 A 
HETATM   23  C14 UNK     1      16.723  14.644   6.591  1.00  0.00     0.086 A 
HETATM   24  C19 UNK     1      15.940  15.690   6.105  1.00  0.00     0.074 A 
HETATM   25  C21 UNK     1      15.029  16.328   6.945  1.00  0.00     0.070 A 
HETATM   26  C20 UNK     1      14.900  15.920   8.273  1.00  0.00     0.038 A 
HETATM   27  C16 UNK     1      15.683  14.874   8.760  1.00  0.00     0.022 A 
BRANCH  23  28
HETATM   28  O3  UNK     1      17.608  14.033   5.754  1.00  0.00    -0.355 OA
HETATM   29  C23 UNK     1      18.738  14.796   5.337  1.00  0.00     0.210 C 
ENDBRANCH  23  28
BRANCH  25  30
HETATM   30  O5  UNK     1      14.264  17.349   6.470  1.00  0.00    -0.356 OA
HETATM   31  C24 UNK     1      13.982  18.422   7.368  1.00  0.00     0.210 C 
ENDBRANCH  25  30
ENDBRANCH   8  22
TORSDOF 5
ENDMDL
