MODEL 1
REMARK VINA RESULT:      -8.6      0.000      0.000
REMARK  3 active torsions:
REMARK  status: ('A' for Active; 'I' for Inactive)
REMARK    1  A    between atoms: C5_10  and  N1_4 
REMARK    2  A    between atoms: C1_6  and  C9_14 
REMARK    3  A    between atoms: C11_16  and  C7_12 
ROOT
HETATM    1  O2  UNK     1      32.294  -7.557  38.636  1.00  0.00    -0.267 OA
HETATM    2  N1  UNK     1      30.581  -6.971  37.126  1.00  0.00    -0.262 N 
HETATM    3  N2  UNK     1      31.127  -5.594  35.256  1.00  0.00    -0.230 NA
HETATM    4  C1  UNK     1      30.268  -6.285  35.945  1.00  0.00     0.138 A 
HETATM    5  C2  UNK     1      32.896  -6.249  36.810  1.00  0.00     0.061 A 
HETATM    6  C3  UNK     1      31.909  -7.008  37.607  1.00  0.00     0.266 A 
HETATM    7  C4  UNK     1      32.457  -5.551  35.685  1.00  0.00     0.074 A 
HETATM    8  C13 UNK     1      34.242  -6.207  37.195  1.00  0.00     0.019 A 
HETATM    9  C15 UNK     1      33.382  -4.807  34.945  1.00  0.00     0.032 A 
HETATM   10  C21 UNK     1      35.154  -5.463  36.448  1.00  0.00     0.001 A 
HETATM   11  C22 UNK     1      34.725  -4.762  35.324  1.00  0.00     0.002 A 
ENDROOT
BRANCH   4  12
HETATM   12  C9  UNK     1      28.899  -6.403  35.387  1.00  0.00     0.052 C 
HETATM   13  C11 UNK     1      28.720  -7.135  34.285  1.00  0.00     0.021 C 
BRANCH  13  14
HETATM   14  C7  UNK     1      29.797  -7.815  33.616  1.00  0.00     0.037 A 
HETATM   15  C10 UNK     1      30.462  -7.197  32.437  1.00  0.00     0.197 A 
HETATM   16  O3  UNK     1      30.133  -6.104  31.993  1.00  0.00    -0.286 OA
HETATM   17  C6  UNK     1      31.555  -7.973  31.820  1.00  0.00     0.049 A 
HETATM   18  C12 UNK     1      32.244  -7.477  30.710  1.00  0.00     0.025 A 
HETATM   19  C8  UNK     1      31.895  -9.214  32.360  1.00  0.00     0.089 A 
HETATM   20  C14 UNK     1      33.273  -8.230  30.144  1.00  0.00    -0.061 A 
HETATM   21  C20 UNK     1      33.613  -9.471  30.683  1.00  0.00     0.009 A 
HETATM   22  C23 UNK     1      34.014  -7.705  28.959  1.00  0.00     0.048 C 
HETATM   23  C16 UNK     1      32.925  -9.964  31.791  1.00  0.00     0.039 A 
HETATM   24  O1  UNK     1      31.254  -9.749  33.447  1.00  0.00    -0.321 OA
HETATM   25  C19 UNK     1      30.240  -9.015  34.013  1.00  0.00     0.158 A 
ENDBRANCH  13  14
ENDBRANCH   4  12
BRANCH   2  26
HETATM   26  C5  UNK     1      29.576  -7.599  37.944  1.00  0.00     0.044 A 
HETATM   27  C17 UNK     1      29.388  -8.972  37.866  1.00  0.00     0.030 A 
HETATM   28  C24 UNK     1      28.415  -9.581  38.659  1.00  0.00     0.002 A 
HETATM   29  C26 UNK     1      27.638  -8.809  39.523  1.00  0.00     0.000 A 
HETATM   30  C25 UNK     1      27.835  -7.430  39.594  1.00  0.00     0.002 A 
HETATM   31  C18 UNK     1      28.808  -6.822  38.802  1.00  0.00     0.030 A 
ENDBRANCH   2  26
TORSDOF 3
ENDMDL
MODEL 2
REMARK VINA RESULT:      -8.6      1.911      2.825
REMARK  3 active torsions:
REMARK  status: ('A' for Active; 'I' for Inactive)
REMARK    1  A    between atoms: C5_10  and  N1_4 
REMARK    2  A    between atoms: C1_6  and  C9_14 
REMARK    3  A    between atoms: C11_16  and  C7_12 
ROOT
HETATM    1  O2  UNK     1      28.937  -5.031  38.258  1.00  0.00    -0.267 OA
HETATM    2  N1  UNK     1      29.637  -7.133  37.454  1.00  0.00    -0.262 N 
HETATM    3  N2  UNK     1      31.611  -7.249  36.120  1.00  0.00    -0.230 NA
HETATM    4  C1  UNK     1      30.610  -7.823  36.718  1.00  0.00     0.138 A 
HETATM    5  C2  UNK     1      30.893  -5.085  37.000  1.00  0.00     0.061 A 
HETATM    6  C3  UNK     1      29.739  -5.738  37.652  1.00  0.00     0.266 A 
HETATM    7  C4  UNK     1      31.764  -5.864  36.239  1.00  0.00     0.074 A 
HETATM    8  C13 UNK     1      31.092  -3.704  37.121  1.00  0.00     0.019 A 
HETATM    9  C15 UNK     1      32.842  -5.245  35.596  1.00  0.00     0.032 A 
HETATM   10  C21 UNK     1      32.170  -3.099  36.477  1.00  0.00     0.001 A 
HETATM   11  C22 UNK     1      33.044  -3.869  35.712  1.00  0.00     0.002 A 
ENDROOT
BRANCH   4  12
HETATM   12  C9  UNK     1      30.557  -9.304  36.667  1.00  0.00     0.052 C 
HETATM   13  C11 UNK     1      30.142  -9.889  35.541  1.00  0.00     0.021 C 
BRANCH  13  14
HETATM   14  C7  UNK     1      29.743  -9.145  34.376  1.00  0.00     0.037 A 
HETATM   15  C10 UNK     1      30.708  -8.901  33.270  1.00  0.00     0.197 A 
HETATM   16  O3  UNK     1      31.861  -9.314  33.299  1.00  0.00    -0.286 OA
HETATM   17  C6  UNK     1      30.204  -8.128  32.119  1.00  0.00     0.049 A 
HETATM   18  C12 UNK     1      31.033  -7.848  31.029  1.00  0.00     0.025 A 
HETATM   19  C8  UNK     1      28.884  -7.677  32.130  1.00  0.00     0.089 A 
HETATM   20  C14 UNK     1      30.533  -7.115  29.953  1.00  0.00    -0.061 A 
HETATM   21  C20 UNK     1      29.213  -6.663  29.964  1.00  0.00     0.009 A 
HETATM   22  C23 UNK     1      31.412  -6.814  28.785  1.00  0.00     0.048 C 
HETATM   23  C16 UNK     1      28.387  -6.944  31.052  1.00  0.00     0.039 A 
HETATM   24  O1  UNK     1      28.027  -7.922  33.171  1.00  0.00    -0.321 OA
HETATM   25  C19 UNK     1      28.509  -8.645  34.236  1.00  0.00     0.158 A 
ENDBRANCH  13  14
ENDBRANCH   4  12
BRANCH   2  26
HETATM   26  C5  UNK     1      28.460  -7.780  37.973  1.00  0.00     0.044 A 
HETATM   27  C17 UNK     1      27.306  -7.827  37.202  1.00  0.00     0.030 A 
HETATM   28  C24 UNK     1      26.166  -8.455  37.706  1.00  0.00     0.002 A 
HETATM   29  C26 UNK     1      26.191  -9.029  38.976  1.00  0.00     0.000 A 
HETATM   30  C25 UNK     1      27.355  -8.977  39.743  1.00  0.00     0.002 A 
HETATM   31  C18 UNK     1      28.494  -8.349  39.239  1.00  0.00     0.030 A 
ENDBRANCH   2  26
TORSDOF 3
ENDMDL
MODEL 3
REMARK VINA RESULT:      -8.5      2.075      3.231
REMARK  3 active torsions:
REMARK  status: ('A' for Active; 'I' for Inactive)
REMARK    1  A    between atoms: C5_10  and  N1_4 
REMARK    2  A    between atoms: C1_6  and  C9_14 
REMARK    3  A    between atoms: C11_16  and  C7_12 
ROOT
HETATM    1  O2  UNK     1      29.125  -5.683  37.968  1.00  0.00    -0.267 OA
HETATM    2  N1  UNK     1      30.117  -7.630  37.087  1.00  0.00    -0.262 N 
HETATM    3  N2  UNK     1      32.143  -7.420  35.845  1.00  0.00    -0.230 NA
HETATM    4  C1  UNK     1      31.200  -8.149  36.363  1.00  0.00     0.138 A 
HETATM    5  C2  UNK     1      31.120  -5.419  36.804  1.00  0.00     0.061 A 
HETATM    6  C3  UNK     1      30.033  -6.248  37.364  1.00  0.00     0.266 A 
HETATM    7  C4  UNK     1      32.114  -6.036  36.044  1.00  0.00     0.074 A 
HETATM    8  C13 UNK     1      31.137  -4.033  37.007  1.00  0.00     0.019 A 
HETATM    9  C15 UNK     1      33.128  -5.251  35.487  1.00  0.00     0.032 A 
HETATM   10  C21 UNK     1      32.154  -3.262  36.448  1.00  0.00     0.001 A 
HETATM   11  C22 UNK     1      33.149  -3.870  35.686  1.00  0.00     0.002 A 
ENDROOT
BRANCH   4  12
HETATM   12  C9  UNK     1      31.338  -9.619  36.231  1.00  0.00     0.052 C 
HETATM   13  C11 UNK     1      31.192 -10.167  35.021  1.00  0.00     0.021 C 
BRANCH  13  14
HETATM   14  C7  UNK     1      30.907  -9.393  33.843  1.00  0.00     0.037 A 
HETATM   15  C10 UNK     1      29.500  -9.138  33.430  1.00  0.00     0.197 A 
HETATM   16  O3  UNK     1      28.541  -9.564  34.061  1.00  0.00    -0.286 OA
HETATM   17  C6  UNK     1      29.312  -8.335  32.206  1.00  0.00     0.049 A 
HETATM   18  C12 UNK     1      28.029  -8.038  31.738  1.00  0.00     0.025 A 
HETATM   19  C8  UNK     1      30.434  -7.872  31.519  1.00  0.00     0.089 A 
HETATM   20  C14 UNK     1      27.877  -7.277  30.579  1.00  0.00    -0.061 A 
HETATM   21  C20 UNK     1      28.999  -6.814  29.891  1.00  0.00     0.009 A 
HETATM   22  C23 UNK     1      26.510  -6.955  30.073  1.00  0.00     0.048 C 
HETATM   23  C16 UNK     1      30.279  -7.110  30.361  1.00  0.00     0.039 A 
HETATM   24  O1  UNK     1      31.715  -8.131  31.933  1.00  0.00    -0.321 OA
HETATM   25  C19 UNK     1      31.876  -8.879  33.074  1.00  0.00     0.158 A 
ENDBRANCH  13  14
ENDBRANCH   4  12
BRANCH   2  26
HETATM   26  C5  UNK     1      29.012  -8.449  37.515  1.00  0.00     0.044 A 
HETATM   27  C17 UNK     1      27.866  -8.514  36.735  1.00  0.00     0.030 A 
HETATM   28  C24 UNK     1      26.795  -9.308  37.150  1.00  0.00     0.002 A 
HETATM   29  C26 UNK     1      26.882 -10.028  38.341  1.00  0.00     0.000 A 
HETATM   30  C25 UNK     1      28.039  -9.955  39.117  1.00  0.00     0.002 A 
HETATM   31  C18 UNK     1      29.108  -9.162  38.703  1.00  0.00     0.030 A 
ENDBRANCH   2  26
TORSDOF 3
ENDMDL
MODEL 4
REMARK VINA RESULT:      -8.4      2.539      4.316
REMARK  3 active torsions:
REMARK  status: ('A' for Active; 'I' for Inactive)
REMARK    1  A    between atoms: C5_10  and  N1_4 
REMARK    2  A    between atoms: C1_6  and  C9_14 
REMARK    3  A    between atoms: C11_16  and  C7_12 
ROOT
HETATM    1  O2  UNK     1      30.486  -9.352  37.134  1.00  0.00    -0.267 OA
HETATM    2  N1  UNK     1      31.514  -7.675  35.835  1.00  0.00    -0.262 N 
HETATM    3  N2  UNK     1      32.724  -8.321  33.883  1.00  0.00    -0.230 NA
HETATM    4  C1  UNK     1      32.270  -7.405  34.686  1.00  0.00     0.138 A 
HETATM    5  C2  UNK     1      31.614 -10.039  35.220  1.00  0.00     0.061 A 
HETATM    6  C3  UNK     1      31.128  -8.997  36.148  1.00  0.00     0.266 A 
HETATM    7  C4  UNK     1      32.415  -9.660  34.143  1.00  0.00     0.074 A 
HETATM    8  C13 UNK     1      31.301 -11.387  35.435  1.00  0.00     0.019 A 
HETATM    9  C15 UNK     1      32.902 -10.646  33.279  1.00  0.00     0.032 A 
HETATM   10  C21 UNK     1      31.791 -12.360  34.567  1.00  0.00     0.001 A 
HETATM   11  C22 UNK     1      32.594 -11.991  33.489  1.00  0.00     0.002 A 
ENDROOT
BRANCH   4  12
HETATM   12  C9  UNK     1      32.519  -5.994  34.304  1.00  0.00     0.052 C 
HETATM   13  C11 UNK     1      31.762  -5.450  33.348  1.00  0.00     0.021 C 
BRANCH  13  14
HETATM   14  C7  UNK     1      30.717  -6.172  32.673  1.00  0.00     0.037 A 
HETATM   15  C10 UNK     1      31.013  -6.951  31.440  1.00  0.00     0.197 A 
HETATM   16  O3  UNK     1      32.136  -7.013  30.955  1.00  0.00    -0.286 OA
HETATM   17  C6  UNK     1      29.875  -7.656  30.822  1.00  0.00     0.049 A 
HETATM   18  C12 UNK     1      30.052  -8.417  29.662  1.00  0.00     0.025 A 
HETATM   19  C8  UNK     1      28.614  -7.556  31.409  1.00  0.00     0.089 A 
HETATM   20  C14 UNK     1      28.959  -9.075  29.096  1.00  0.00    -0.061 A 
HETATM   21  C20 UNK     1      27.698  -8.974  29.683  1.00  0.00     0.009 A 
HETATM   22  C23 UNK     1      29.141  -9.890  27.859  1.00  0.00     0.048 C 
HETATM   23  C16 UNK     1      27.524  -8.216  30.840  1.00  0.00     0.039 A 
HETATM   24  O1  UNK     1      28.383  -6.825  32.546  1.00  0.00    -0.321 OA
HETATM   25  C19 UNK     1      29.452  -6.175  33.112  1.00  0.00     0.158 A 
ENDBRANCH  13  14
ENDBRANCH   4  12
BRANCH   2  26
HETATM   26  C5  UNK     1      31.158  -6.651  36.783  1.00  0.00     0.044 A 
HETATM   27  C17 UNK     1      32.072  -6.272  37.757  1.00  0.00     0.030 A 
HETATM   28  C24 UNK     1      31.728  -5.279  38.675  1.00  0.00     0.002 A 
HETATM   29  C26 UNK     1      30.472  -4.675  38.611  1.00  0.00     0.000 A 
HETATM   30  C25 UNK     1      29.561  -5.064  37.628  1.00  0.00     0.002 A 
HETATM   31  C18 UNK     1      29.906  -6.056  36.711  1.00  0.00     0.030 A 
ENDBRANCH   2  26
TORSDOF 3
ENDMDL
MODEL 5
REMARK VINA RESULT:      -8.4      2.301      7.255
REMARK  3 active torsions:
REMARK  status: ('A' for Active; 'I' for Inactive)
REMARK    1  A    between atoms: C5_10  and  N1_4 
REMARK    2  A    between atoms: C1_6  and  C9_14 
REMARK    3  A    between atoms: C11_16  and  C7_12 
ROOT
HETATM    1  O2  UNK     1      30.947  -5.845  32.631  1.00  0.00    -0.267 OA
HETATM    2  N1  UNK     1      32.209  -6.842  34.354  1.00  0.00    -0.262 N 
HETATM    3  N2  UNK     1      31.822  -9.138  34.873  1.00  0.00    -0.230 NA
HETATM    4  C1  UNK     1      32.462  -8.023  35.065  1.00  0.00     0.138 A 
HETATM    5  C2  UNK     1      30.556  -8.097  33.061  1.00  0.00     0.061 A 
HETATM    6  C3  UNK     1      31.264  -6.823  33.304  1.00  0.00     0.266 A 
HETATM    7  C4  UNK     1      30.845  -9.192  33.874  1.00  0.00     0.074 A 
HETATM    8  C13 UNK     1      29.590  -8.194  32.051  1.00  0.00     0.019 A 
HETATM    9  C15 UNK     1      30.155 -10.392  33.667  1.00  0.00     0.032 A 
HETATM   10  C21 UNK     1      28.912  -9.395  31.853  1.00  0.00     0.001 A 
HETATM   11  C22 UNK     1      29.192 -10.494  32.662  1.00  0.00     0.002 A 
ENDROOT
BRANCH   4  12
HETATM   12  C9  UNK     1      33.571  -8.047  36.048  1.00  0.00     0.052 C 
HETATM   13  C11 UNK     1      33.280  -7.887  37.342  1.00  0.00     0.021 C 
BRANCH  13  14
HETATM   14  C7  UNK     1      31.938  -7.694  37.823  1.00  0.00     0.037 A 
HETATM   15  C10 UNK     1      31.076  -8.863  38.143  1.00  0.00     0.197 A 
HETATM   16  O3  UNK     1      31.461 -10.019  38.017  1.00  0.00    -0.286 OA
HETATM   17  C6  UNK     1      29.716  -8.561  38.629  1.00  0.00     0.049 A 
HETATM   18  C12 UNK     1      28.831  -9.591  38.959  1.00  0.00     0.025 A 
HETATM   19  C8  UNK     1      29.321  -7.229  38.756  1.00  0.00     0.089 A 
HETATM   20  C14 UNK     1      27.550  -9.279  39.416  1.00  0.00    -0.061 A 
HETATM   21  C20 UNK     1      27.155  -7.947  39.543  1.00  0.00     0.009 A 
HETATM   22  C23 UNK     1      26.600 -10.374  39.772  1.00  0.00     0.048 C 
HETATM   23  C16 UNK     1      28.040  -6.921  39.214  1.00  0.00     0.039 A 
HETATM   24  O1  UNK     1      30.148  -6.180  38.448  1.00  0.00    -0.321 OA
HETATM   25  C19 UNK     1      31.411  -6.475  37.999  1.00  0.00     0.158 A 
ENDBRANCH  13  14
ENDBRANCH   4  12
BRANCH   2  26
HETATM   26  C5  UNK     1      32.828  -5.588  34.696  1.00  0.00     0.044 A 
HETATM   27  C17 UNK     1      34.098  -5.298  34.217  1.00  0.00     0.030 A 
HETATM   28  C24 UNK     1      34.697  -4.081  34.547  1.00  0.00     0.002 A 
HETATM   29  C26 UNK     1      34.020  -3.167  35.354  1.00  0.00     0.000 A 
HETATM   30  C25 UNK     1      32.744  -3.469  35.830  1.00  0.00     0.002 A 
HETATM   31  C18 UNK     1      32.146  -4.684  35.500  1.00  0.00     0.030 A 
ENDBRANCH   2  26
TORSDOF 3
ENDMDL
MODEL 6
REMARK VINA RESULT:      -8.4      2.827      5.124
REMARK  3 active torsions:
REMARK  status: ('A' for Active; 'I' for Inactive)
REMARK    1  A    between atoms: C5_10  and  N1_4 
REMARK    2  A    between atoms: C1_6  and  C9_14 
REMARK    3  A    between atoms: C11_16  and  C7_12 
ROOT
HETATM    1  O2  UNK     1      27.886 -10.146  35.585  1.00  0.00    -0.267 OA
HETATM    2  N1  UNK     1      28.114  -8.245  36.961  1.00  0.00    -0.262 N 
HETATM    3  N2  UNK     1      28.614  -6.148  35.940  1.00  0.00    -0.230 NA
HETATM    4  C1  UNK     1      28.354  -6.865  36.992  1.00  0.00     0.138 A 
HETATM    5  C2  UNK     1      28.330  -8.123  34.528  1.00  0.00     0.061 A 
HETATM    6  C3  UNK     1      28.066  -8.940  35.731  1.00  0.00     0.266 A 
HETATM    7  C4  UNK     1      28.620  -6.768  34.686  1.00  0.00     0.074 A 
HETATM    8  C13 UNK     1      28.318  -8.706  33.255  1.00  0.00     0.019 A 
HETATM    9  C15 UNK     1      28.900  -5.997  33.552  1.00  0.00     0.032 A 
HETATM   10  C21 UNK     1      28.596  -7.927  32.133  1.00  0.00     0.001 A 
HETATM   11  C22 UNK     1      28.889  -6.573  32.281  1.00  0.00     0.002 A 
ENDROOT
BRANCH   4  12
HETATM   12  C9  UNK     1      28.236  -6.144  38.283  1.00  0.00     0.052 C 
HETATM   13  C11 UNK     1      29.337  -5.609  38.817  1.00  0.00     0.021 C 
BRANCH  13  14
HETATM   14  C7  UNK     1      30.631  -5.701  38.195  1.00  0.00     0.037 A 
HETATM   15  C10 UNK     1      31.113  -4.621  37.292  1.00  0.00     0.197 A 
HETATM   16  O3  UNK     1      30.446  -3.625  37.043  1.00  0.00    -0.286 OA
HETATM   17  C6  UNK     1      32.453  -4.809  36.703  1.00  0.00     0.049 A 
HETATM   18  C12 UNK     1      32.995  -3.849  35.844  1.00  0.00     0.025 A 
HETATM   19  C8  UNK     1      33.176  -5.960  37.015  1.00  0.00     0.089 A 
HETATM   20  C14 UNK     1      34.264  -4.049  35.300  1.00  0.00    -0.061 A 
HETATM   21  C20 UNK     1      34.988  -5.201  35.610  1.00  0.00     0.009 A 
HETATM   22  C23 UNK     1      34.851  -3.028  34.383  1.00  0.00     0.048 C 
HETATM   23  C16 UNK     1      34.445  -6.157  36.469  1.00  0.00     0.039 A 
HETATM   24  O1  UNK     1      32.694  -6.933  37.851  1.00  0.00    -0.321 OA
HETATM   25  C19 UNK     1      31.446  -6.745  38.394  1.00  0.00     0.158 A 
ENDBRANCH  13  14
ENDBRANCH   4  12
BRANCH   2  26
HETATM   26  C5  UNK     1      27.981  -9.033  38.159  1.00  0.00     0.044 A 
HETATM   27  C17 UNK     1      29.110  -9.602  38.733  1.00  0.00     0.030 A 
HETATM   28  C24 UNK     1      28.981 -10.364  39.895  1.00  0.00     0.002 A 
HETATM   29  C26 UNK     1      27.724 -10.552  40.470  1.00  0.00     0.000 A 
HETATM   30  C25 UNK     1      26.596  -9.976  39.885  1.00  0.00     0.002 A 
HETATM   31  C18 UNK     1      26.726  -9.213  38.724  1.00  0.00     0.030 A 
ENDBRANCH   2  26
TORSDOF 3
ENDMDL
MODEL 7
REMARK VINA RESULT:      -8.3      2.066      7.038
REMARK  3 active torsions:
REMARK  status: ('A' for Active; 'I' for Inactive)
REMARK    1  A    between atoms: C5_10  and  N1_4 
REMARK    2  A    between atoms: C1_6  and  C9_14 
REMARK    3  A    between atoms: C11_16  and  C7_12 
ROOT
HETATM    1  O2  UNK     1      32.432  -8.794  32.035  1.00  0.00    -0.267 OA
HETATM    2  N1  UNK     1      32.740  -6.901  33.405  1.00  0.00    -0.262 N 
HETATM    3  N2  UNK     1      30.844  -5.555  33.938  1.00  0.00    -0.230 NA
HETATM    4  C1  UNK     1      32.112  -5.823  34.043  1.00  0.00     0.138 A 
HETATM    5  C2  UNK     1      30.540  -7.547  32.555  1.00  0.00     0.061 A 
HETATM    6  C3  UNK     1      31.988  -7.829  32.651  1.00  0.00     0.266 A 
HETATM    7  C4  UNK     1      30.035  -6.406  33.179  1.00  0.00     0.074 A 
HETATM    8  C13 UNK     1      29.696  -8.393  31.826  1.00  0.00     0.019 A 
HETATM    9  C15 UNK     1      28.670  -6.119  33.066  1.00  0.00     0.032 A 
HETATM   10  C21 UNK     1      28.338  -8.097  31.722  1.00  0.00     0.001 A 
HETATM   11  C22 UNK     1      27.825  -6.960  32.340  1.00  0.00     0.002 A 
ENDROOT
BRANCH   4  12
HETATM   12  C9  UNK     1      32.906  -4.965  34.955  1.00  0.00     0.052 C 
HETATM   13  C11 UNK     1      32.912  -5.255  36.258  1.00  0.00     0.021 C 
BRANCH  13  14
HETATM   14  C7  UNK     1      32.182  -6.362  36.816  1.00  0.00     0.037 A 
HETATM   15  C10 UNK     1      30.777  -6.186  37.272  1.00  0.00     0.197 A 
HETATM   16  O3  UNK     1      30.189  -5.114  37.193  1.00  0.00    -0.286 OA
HETATM   17  C6  UNK     1      30.114  -7.380  37.829  1.00  0.00     0.049 A 
HETATM   18  C12 UNK     1      28.793  -7.317  38.282  1.00  0.00     0.025 A 
HETATM   19  C8  UNK     1      30.823  -8.579  37.899  1.00  0.00     0.089 A 
HETATM   20  C14 UNK     1      28.189  -8.461  38.805  1.00  0.00    -0.061 A 
HETATM   21  C20 UNK     1      28.898  -9.660  38.876  1.00  0.00     0.009 A 
HETATM   22  C23 UNK     1      26.778  -8.402  39.289  1.00  0.00     0.048 C 
HETATM   23  C16 UNK     1      30.215  -9.721  38.423  1.00  0.00     0.039 A 
HETATM   24  O1  UNK     1      32.119  -8.699  37.470  1.00  0.00    -0.321 OA
HETATM   25  C19 UNK     1      32.724  -7.579  36.951  1.00  0.00     0.158 A 
ENDBRANCH  13  14
ENDBRANCH   4  12
BRANCH   2  26
HETATM   26  C5  UNK     1      34.169  -7.080  33.418  1.00  0.00     0.044 A 
HETATM   27  C17 UNK     1      34.746  -7.918  34.363  1.00  0.00     0.030 A 
HETATM   28  C24 UNK     1      36.131  -8.092  34.374  1.00  0.00     0.002 A 
HETATM   29  C26 UNK     1      36.925  -7.424  33.441  1.00  0.00     0.000 A 
HETATM   30  C25 UNK     1      36.335  -6.585  32.496  1.00  0.00     0.002 A 
HETATM   31  C18 UNK     1      34.951  -6.412  32.485  1.00  0.00     0.030 A 
ENDBRANCH   2  26
TORSDOF 3
ENDMDL
MODEL 8
REMARK VINA RESULT:      -8.3      2.493      6.876
REMARK  3 active torsions:
REMARK  status: ('A' for Active; 'I' for Inactive)
REMARK    1  A    between atoms: C5_10  and  N1_4 
REMARK    2  A    between atoms: C1_6  and  C9_14 
REMARK    3  A    between atoms: C11_16  and  C7_12 
ROOT
HETATM    1  O2  UNK     1      29.132 -10.215  32.274  1.00  0.00    -0.267 OA
HETATM    2  N1  UNK     1      31.234  -9.564  33.120  1.00  0.00    -0.262 N 
HETATM    3  N2  UNK     1      31.719  -7.236  33.311  1.00  0.00    -0.230 NA
HETATM    4  C1  UNK     1      32.054  -8.482  33.469  1.00  0.00     0.138 A 
HETATM    5  C2  UNK     1      29.530  -7.933  32.478  1.00  0.00     0.061 A 
HETATM    6  C3  UNK     1      29.927  -9.348  32.630  1.00  0.00     0.266 A 
HETATM    7  C4  UNK     1      30.453  -6.937  32.799  1.00  0.00     0.074 A 
HETATM    8  C13 UNK     1      28.259  -7.597  31.993  1.00  0.00     0.019 A 
HETATM    9  C15 UNK     1      30.091  -5.597  32.628  1.00  0.00     0.032 A 
HETATM   10  C21 UNK     1      27.911  -6.258  31.829  1.00  0.00     0.001 A 
HETATM   11  C22 UNK     1      28.827  -5.257  32.145  1.00  0.00     0.002 A 
ENDROOT
BRANCH   4  12
HETATM   12  C9  UNK     1      33.354  -8.750  34.129  1.00  0.00     0.052 C 
HETATM   13  C11 UNK     1      33.429  -8.643  35.458  1.00  0.00     0.021 C 
BRANCH  13  14
HETATM   14  C7  UNK     1      32.304  -8.281  36.277  1.00  0.00     0.037 A 
HETATM   15  C10 UNK     1      32.155  -6.889  36.782  1.00  0.00     0.197 A 
HETATM   16  O3  UNK     1      32.965  -6.007  36.528  1.00  0.00    -0.286 OA
HETATM   17  C6  UNK     1      30.967  -6.618  37.615  1.00  0.00     0.049 A 
HETATM   18  C12 UNK     1      30.737  -5.341  38.134  1.00  0.00     0.025 A 
HETATM   19  C8  UNK     1      30.072  -7.654  37.878  1.00  0.00     0.089 A 
HETATM   20  C14 UNK     1      29.607  -5.109  38.919  1.00  0.00    -0.061 A 
HETATM   21  C20 UNK     1      28.712  -6.146  39.183  1.00  0.00     0.009 A 
HETATM   22  C23 UNK     1      29.354  -3.747  39.475  1.00  0.00     0.048 C 
HETATM   23  C16 UNK     1      28.943  -7.419  38.663  1.00  0.00     0.039 A 
HETATM   24  O1  UNK     1      30.247  -8.925  37.395  1.00  0.00    -0.321 OA
HETATM   25  C19 UNK     1      31.356  -9.164  36.620  1.00  0.00     0.158 A 
ENDBRANCH  13  14
ENDBRANCH   4  12
BRANCH   2  26
HETATM   26  C5  UNK     1      31.695 -10.928  33.165  1.00  0.00     0.044 A 
HETATM   27  C17 UNK     1      31.386 -11.719  34.264  1.00  0.00     0.030 A 
HETATM   28  C24 UNK     1      31.831 -13.041  34.307  1.00  0.00     0.002 A 
HETATM   29  C26 UNK     1      32.583 -13.558  33.252  1.00  0.00     0.000 A 
HETATM   30  C25 UNK     1      32.887 -12.755  32.153  1.00  0.00     0.002 A 
HETATM   31  C18 UNK     1      32.442 -11.434  32.110  1.00  0.00     0.030 A 
ENDBRANCH   2  26
TORSDOF 3
ENDMDL
MODEL 9
REMARK VINA RESULT:      -8.3      2.471      7.100
REMARK  3 active torsions:
REMARK  status: ('A' for Active; 'I' for Inactive)
REMARK    1  A    between atoms: C5_10  and  N1_4 
REMARK    2  A    between atoms: C1_6  and  C9_14 
REMARK    3  A    between atoms: C11_16  and  C7_12 
ROOT
HETATM    1  O2  UNK     1      29.159 -10.379  32.380  1.00  0.00    -0.267 OA
HETATM    2  N1  UNK     1      31.167  -9.612  33.345  1.00  0.00    -0.262 N 
HETATM    3  N2  UNK     1      31.482  -7.263  33.616  1.00  0.00    -0.230 NA
HETATM    4  C1  UNK     1      31.893  -8.487  33.761  1.00  0.00     0.138 A 
HETATM    5  C2  UNK     1      29.388  -8.082  32.658  1.00  0.00     0.061 A 
HETATM    6  C3  UNK     1      29.874  -9.471  32.796  1.00  0.00     0.266 A 
HETATM    7  C4  UNK     1      30.224  -7.036  33.048  1.00  0.00     0.074 A 
HETATM    8  C13 UNK     1      28.123  -7.820  32.118  1.00  0.00     0.019 A 
HETATM    9  C15 UNK     1      29.781  -5.718  32.892  1.00  0.00     0.032 A 
HETATM   10  C21 UNK     1      27.692  -6.503  31.969  1.00  0.00     0.001 A 
HETATM   11  C22 UNK     1      28.521  -5.452  32.354  1.00  0.00     0.002 A 
ENDROOT
BRANCH   4  12
HETATM   12  C9  UNK     1      33.175  -8.684  34.479  1.00  0.00     0.052 C 
HETATM   13  C11 UNK     1      33.202  -8.496  35.800  1.00  0.00     0.021 C 
BRANCH  13  14
HETATM   14  C7  UNK     1      32.042  -8.110  36.558  1.00  0.00     0.037 A 
HETATM   15  C10 UNK     1      31.174  -9.142  37.187  1.00  0.00     0.197 A 
HETATM   16  O3  UNK     1      31.403 -10.342  37.092  1.00  0.00    -0.286 OA
HETATM   17  C6  UNK     1      30.008  -8.646  37.942  1.00  0.00     0.049 A 
HETATM   18  C12 UNK     1      29.134  -9.537  38.572  1.00  0.00     0.025 A 
HETATM   19  C8  UNK     1      29.786  -7.272  38.023  1.00  0.00     0.089 A 
HETATM   20  C14 UNK     1      28.038  -9.043  39.280  1.00  0.00    -0.061 A 
HETATM   21  C20 UNK     1      27.816  -7.668  39.360  1.00  0.00     0.009 A 
HETATM   22  C23 UNK     1      27.101  -9.989  39.956  1.00  0.00     0.048 C 
HETATM   23  C16 UNK     1      28.690  -6.781  38.732  1.00  0.00     0.039 A 
HETATM   24  O1  UNK     1      30.610  -6.353  37.426  1.00  0.00    -0.321 OA
HETATM   25  C19 UNK     1      31.693  -6.828  36.727  1.00  0.00     0.158 A 
ENDBRANCH  13  14
ENDBRANCH   4  12
BRANCH   2  26
HETATM   26  C5  UNK     1      31.718 -10.942  33.382  1.00  0.00     0.044 A 
HETATM   27  C17 UNK     1      31.334 -11.815  34.391  1.00  0.00     0.030 A 
HETATM   28  C24 UNK     1      31.866 -13.105  34.425  1.00  0.00     0.002 A 
HETATM   29  C26 UNK     1      32.778 -13.508  33.449  1.00  0.00     0.000 A 
HETATM   30  C25 UNK     1      33.157 -12.623  32.440  1.00  0.00     0.002 A 
HETATM   31  C18 UNK     1      32.624 -11.335  32.406  1.00  0.00     0.030 A 
ENDBRANCH   2  26
TORSDOF 3
ENDMDL
MODEL 10
REMARK VINA RESULT:      -8.2      1.816      2.827
REMARK  3 active torsions:
REMARK  status: ('A' for Active; 'I' for Inactive)
REMARK    1  A    between atoms: C5_10  and  N1_4 
REMARK    2  A    between atoms: C1_6  and  C9_14 
REMARK    3  A    between atoms: C11_16  and  C7_12 
ROOT
HETATM    1  O2  UNK     1      31.788  -6.507  38.714  1.00  0.00    -0.267 OA
HETATM    2  N1  UNK     1      31.196  -8.315  37.323  1.00  0.00    -0.262 N 
HETATM    3  N2  UNK     1      32.615  -8.856  35.483  1.00  0.00    -0.230 NA
HETATM    4  C1  UNK     1      31.563  -9.086  36.211  1.00  0.00     0.138 A 
HETATM    5  C2  UNK     1      33.234  -7.013  36.964  1.00  0.00     0.061 A 
HETATM    6  C3  UNK     1      32.019  -7.258  37.770  1.00  0.00     0.266 A 
HETATM    7  C4  UNK     1      33.465  -7.804  35.838  1.00  0.00     0.074 A 
HETATM    8  C13 UNK     1      34.121  -5.985  37.307  1.00  0.00     0.019 A 
HETATM    9  C15 UNK     1      34.598  -7.556  35.056  1.00  0.00     0.032 A 
HETATM   10  C21 UNK     1      35.247  -5.749  36.520  1.00  0.00     0.001 A 
HETATM   11  C22 UNK     1      35.485  -6.532  35.393  1.00  0.00     0.002 A 
ENDROOT
BRANCH   4  12
HETATM   12  C9  UNK     1      30.759 -10.284  35.870  1.00  0.00     0.052 C 
HETATM   13  C11 UNK     1      29.886 -10.201  34.863  1.00  0.00     0.021 C 
BRANCH  13  14
HETATM   14  C7  UNK     1      29.691  -9.000  34.095  1.00  0.00     0.037 A 
HETATM   15  C10 UNK     1      30.456  -8.774  32.839  1.00  0.00     0.197 A 
HETATM   16  O3  UNK     1      31.268  -9.584  32.409  1.00  0.00    -0.286 OA
HETATM   17  C6  UNK     1      30.186  -7.512  32.125  1.00  0.00     0.049 A 
HETATM   18  C12 UNK     1      30.852  -7.209  30.934  1.00  0.00     0.025 A 
HETATM   19  C8  UNK     1      29.252  -6.620  32.653  1.00  0.00     0.089 A 
HETATM   20  C14 UNK     1      30.579  -6.009  30.277  1.00  0.00    -0.061 A 
HETATM   21  C20 UNK     1      29.646  -5.116  30.805  1.00  0.00     0.009 A 
HETATM   22  C23 UNK     1      31.285  -5.680  29.004  1.00  0.00     0.048 C 
HETATM   23  C16 UNK     1      28.982  -5.421  31.993  1.00  0.00     0.039 A 
HETATM   24  O1  UNK     1      28.570  -6.865  33.816  1.00  0.00    -0.321 OA
HETATM   25  C19 UNK     1      28.830  -8.045  34.470  1.00  0.00     0.158 A 
ENDBRANCH  13  14
ENDBRANCH   4  12
BRANCH   2  26
HETATM   26  C5  UNK     1      29.946  -8.503  38.013  1.00  0.00     0.044 A 
HETATM   27  C17 UNK     1      28.970  -7.517  37.944  1.00  0.00     0.030 A 
HETATM   28  C24 UNK     1      27.759  -7.700  38.612  1.00  0.00     0.002 A 
HETATM   29  C26 UNK     1      27.535  -8.866  39.343  1.00  0.00     0.000 A 
HETATM   30  C25 UNK     1      28.522  -9.851  39.406  1.00  0.00     0.002 A 
HETATM   31  C18 UNK     1      29.732  -9.668  38.738  1.00  0.00     0.030 A 
ENDBRANCH   2  26
TORSDOF 3
ENDMDL
