MODEL 1
REMARK VINA RESULT:      -6.8      0.000      0.000
REMARK  0 active torsions:
REMARK  status: ('A' for Active; 'I' for Inactive)
ROOT
HETATM    1 Cl1  UNK     1      19.748   5.073  30.342  1.00  0.00    -0.084 Cl
HETATM    2  O1  UNK     1      17.930   9.066  34.267  1.00  0.00    -0.320 OA
HETATM    3  O2  UNK     1      15.360   7.954  31.297  1.00  0.00    -0.286 OA
HETATM    4  N1  UNK     1      13.433  10.411  33.200  1.00  0.00    -0.191 NA
HETATM    5  C1  UNK     1      17.485   7.718  32.295  1.00  0.00     0.051 A 
HETATM    6  C2  UNK     1      18.317   8.137  33.334  1.00  0.00     0.089 A 
HETATM    7  C3  UNK     1      20.052   6.661  32.535  1.00  0.00    -0.038 A 
HETATM    8  C4  UNK     1      19.603   7.608  33.455  1.00  0.00     0.046 A 
HETATM    9  C5  UNK     1      17.932   6.769  31.374  1.00  0.00     0.042 A 
HETATM   10  C6  UNK     1      19.219   6.242  31.497  1.00  0.00     0.041 A 
HETATM   11  C7  UNK     1      16.129   8.290  32.188  1.00  0.00     0.207 A 
HETATM   12  C8  UNK     1      21.435   6.118  32.696  1.00  0.00     0.050 C 
HETATM   13  C9  UNK     1      15.757   9.290  33.220  1.00  0.00     0.117 A 
HETATM   14  C10 UNK     1      16.665   9.590  34.155  1.00  0.00     0.169 A 
HETATM   15  C11 UNK     1      14.478   9.907  33.209  1.00  0.00     0.105 C 
ENDROOT
TORSDOF 0
ENDMDL
MODEL 2
REMARK VINA RESULT:      -6.8      9.209     10.581
REMARK  0 active torsions:
REMARK  status: ('A' for Active; 'I' for Inactive)
ROOT
HETATM    1 Cl1  UNK     1      16.530   0.529  36.615  1.00  0.00    -0.084 Cl
HETATM    2  O1  UNK     1      20.613  -2.745  33.920  1.00  0.00    -0.320 OA
HETATM    3  O2  UNK     1      18.473  -0.084  31.684  1.00  0.00    -0.286 OA
HETATM    4  N1  UNK     1      20.703  -1.635  29.236  1.00  0.00    -0.191 NA
HETATM    5  C1  UNK     1      18.889  -1.038  33.801  1.00  0.00     0.051 A 
HETATM    6  C2  UNK     1      19.653  -1.963  34.513  1.00  0.00     0.089 A 
HETATM    7  C3  UNK     1      18.494  -1.358  36.541  1.00  0.00    -0.038 A 
HETATM    8  C4  UNK     1      19.457  -2.125  35.884  1.00  0.00     0.046 A 
HETATM    9  C5  UNK     1      17.926  -0.268  34.457  1.00  0.00     0.042 A 
HETATM   10  C6  UNK     1      17.730  -0.432  35.830  1.00  0.00     0.041 A 
HETATM   11  C7  UNK     1      19.116  -0.884  32.351  1.00  0.00     0.207 A 
HETATM   12  C8  UNK     1      18.312  -1.560  38.011  1.00  0.00     0.050 C 
HETATM   13  C9  UNK     1      20.163  -1.750  31.757  1.00  0.00     0.117 A 
HETATM   14  C10 UNK     1      20.813  -2.591  32.569  1.00  0.00     0.169 A 
HETATM   15  C11 UNK     1      20.460  -1.687  30.370  1.00  0.00     0.105 C 
ENDROOT
TORSDOF 0
ENDMDL
MODEL 3
REMARK VINA RESULT:      -6.8      7.579      8.629
REMARK  0 active torsions:
REMARK  status: ('A' for Active; 'I' for Inactive)
ROOT
HETATM    1 Cl1  UNK     1      20.908  -3.156  30.584  1.00  0.00    -0.084 Cl
HETATM    2  O1  UNK     1      18.326   1.763  32.530  1.00  0.00    -0.320 OA
HETATM    3  O2  UNK     1      18.510  -1.454  35.036  1.00  0.00    -0.286 OA
HETATM    4  N1  UNK     1      16.775   1.069  37.034  1.00  0.00    -0.191 NA
HETATM    5  C1  UNK     1      19.013  -0.534  32.922  1.00  0.00     0.051 A 
HETATM    6  C2  UNK     1      18.921   0.599  32.113  1.00  0.00     0.089 A 
HETATM    7  C3  UNK     1      20.061  -0.578  30.341  1.00  0.00    -0.038 A 
HETATM    8  C4  UNK     1      19.445   0.579  30.820  1.00  0.00     0.046 A 
HETATM    9  C5  UNK     1      19.630  -1.692  32.445  1.00  0.00     0.042 A 
HETATM   10  C6  UNK     1      20.153  -1.710  31.150  1.00  0.00     0.041 A 
HETATM   11  C7  UNK     1      18.452  -0.488  34.287  1.00  0.00     0.207 A 
HETATM   12  C8  UNK     1      20.610  -0.562  28.950  1.00  0.00     0.050 C 
HETATM   13  C9  UNK     1      17.820   0.791  34.692  1.00  0.00     0.117 A 
HETATM   14  C10 UNK     1      17.808   1.792  33.803  1.00  0.00     0.169 A 
HETATM   15  C11 UNK     1      17.245   0.944  35.980  1.00  0.00     0.105 C 
ENDROOT
TORSDOF 0
ENDMDL
MODEL 4
REMARK VINA RESULT:      -6.8      7.911      9.126
REMARK  0 active torsions:
REMARK  status: ('A' for Active; 'I' for Inactive)
ROOT
HETATM    1 Cl1  UNK     1      16.870   1.526  37.540  1.00  0.00    -0.084 Cl
HETATM    2  O1  UNK     1      19.428  -1.526  33.204  1.00  0.00    -0.320 OA
HETATM    3  O2  UNK     1      18.003   2.207  32.370  1.00  0.00    -0.286 OA
HETATM    4  N1  UNK     1      19.372   1.096  29.168  1.00  0.00    -0.191 NA
HETATM    5  C1  UNK     1      18.318   0.497  33.965  1.00  0.00     0.051 A 
HETATM    6  C2  UNK     1      18.826  -0.783  34.189  1.00  0.00     0.089 A 
HETATM    7  C3  UNK     1      18.130  -0.653  36.496  1.00  0.00    -0.038 A 
HETATM    8  C4  UNK     1      18.732  -1.360  35.456  1.00  0.00     0.046 A 
HETATM    9  C5  UNK     1      17.716   1.207  35.006  1.00  0.00     0.042 A 
HETATM   10  C6  UNK     1      17.623   0.628  36.272  1.00  0.00     0.041 A 
HETATM   11  C7  UNK     1      18.430   1.087  32.617  1.00  0.00     0.207 A 
HETATM   12  C8  UNK     1      18.047  -1.304  37.840  1.00  0.00     0.050 C 
HETATM   13  C9  UNK     1      19.088   0.246  31.587  1.00  0.00     0.117 A 
HETATM   14  C10 UNK     1      19.525  -0.964  31.954  1.00  0.00     0.169 A 
HETATM   15  C11 UNK     1      19.245   0.714  30.256  1.00  0.00     0.105 C 
ENDROOT
TORSDOF 0
ENDMDL
MODEL 5
REMARK VINA RESULT:      -6.7      7.971      9.286
REMARK  0 active torsions:
REMARK  status: ('A' for Active; 'I' for Inactive)
ROOT
HETATM    1 Cl1  UNK     1      17.936  -1.828  36.746  1.00  0.00    -0.084 Cl
HETATM    2  O1  UNK     1      18.403   1.853  32.175  1.00  0.00    -0.320 OA
HETATM    3  O2  UNK     1      19.818  -1.952  31.755  1.00  0.00    -0.286 OA
HETATM    4  N1  UNK     1      20.524  -0.430  28.507  1.00  0.00    -0.191 NA
HETATM    5  C1  UNK     1      18.778  -0.347  33.136  1.00  0.00     0.051 A 
HETATM    6  C2  UNK     1      18.311   0.965  33.218  1.00  0.00     0.089 A 
HETATM    7  C3  UNK     1      17.602   0.567  35.491  1.00  0.00    -0.038 A 
HETATM    8  C4  UNK     1      17.722   1.424  34.396  1.00  0.00     0.046 A 
HETATM    9  C5  UNK     1      18.657  -1.207  34.229  1.00  0.00     0.042 A 
HETATM   10  C6  UNK     1      18.068  -0.745  35.408  1.00  0.00     0.041 A 
HETATM   11  C7  UNK     1      19.396  -0.810  31.878  1.00  0.00     0.207 A 
HETATM   12  C8  UNK     1      16.966   1.095  36.737  1.00  0.00     0.050 C 
HETATM   13  C9  UNK     1      19.472   0.184  30.781  1.00  0.00     0.117 A 
HETATM   14  C10 UNK     1      18.980   1.408  31.011  1.00  0.00     0.169 A 
HETATM   15  C11 UNK     1      20.051  -0.153  29.530  1.00  0.00     0.105 C 
ENDROOT
TORSDOF 0
ENDMDL
MODEL 6
REMARK VINA RESULT:      -6.6      1.263      2.485
REMARK  0 active torsions:
REMARK  status: ('A' for Active; 'I' for Inactive)
ROOT
HETATM    1 Cl1  UNK     1      21.302   6.186  32.773  1.00  0.00    -0.084 Cl
HETATM    2  O1  UNK     1      15.856   7.944  31.393  1.00  0.00    -0.320 OA
HETATM    3  O2  UNK     1      17.355   8.960  35.051  1.00  0.00    -0.286 OA
HETATM    4  N1  UNK     1      14.007  10.429  35.078  1.00  0.00    -0.191 NA
HETATM    5  C1  UNK     1      17.688   7.868  32.986  1.00  0.00     0.051 A 
HETATM    6  C2  UNK     1      17.122   7.553  31.751  1.00  0.00     0.089 A 
HETATM    7  C3  UNK     1      19.140   6.385  31.127  1.00  0.00    -0.038 A 
HETATM    8  C4  UNK     1      17.848   6.811  30.819  1.00  0.00     0.046 A 
HETATM    9  C5  UNK     1      18.982   7.444  33.296  1.00  0.00     0.042 A 
HETATM   10  C6  UNK     1      19.706   6.700  32.363  1.00  0.00     0.041 A 
HETATM   11  C7  UNK     1      16.902   8.656  33.955  1.00  0.00     0.207 A 
HETATM   12  C8  UNK     1      19.886   5.590  30.104  1.00  0.00     0.050 C 
HETATM   13  C9  UNK     1      15.541   9.055  33.523  1.00  0.00     0.117 A 
HETATM   14  C10 UNK     1      15.135   8.677  32.305  1.00  0.00     0.169 A 
HETATM   15  C11 UNK     1      14.696   9.811  34.379  1.00  0.00     0.105 C 
ENDROOT
TORSDOF 0
ENDMDL
MODEL 7
REMARK VINA RESULT:      -6.6     17.360     18.926
REMARK  0 active torsions:
REMARK  status: ('A' for Active; 'I' for Inactive)
ROOT
HETATM    1 Cl1  UNK     1      18.276  -4.529  14.897  1.00  0.00    -0.084 Cl
HETATM    2  O1  UNK     1      19.503   1.227  15.054  1.00  0.00    -0.320 OA
HETATM    3  O2  UNK     1      18.536  -0.647  18.549  1.00  0.00    -0.286 OA
HETATM    4  N1  UNK     1      19.112   2.812  19.582  1.00  0.00    -0.191 NA
HETATM    5  C1  UNK     1      18.873  -0.810  16.219  1.00  0.00     0.051 A 
HETATM    6  C2  UNK     1      19.211  -0.115  15.058  1.00  0.00     0.089 A 
HETATM    7  C3  UNK     1      18.977  -2.146  13.776  1.00  0.00    -0.038 A 
HETATM    8  C4  UNK     1      19.264  -0.782  13.834  1.00  0.00     0.046 A 
HETATM    9  C5  UNK     1      18.586  -2.176  16.164  1.00  0.00     0.042 A 
HETATM   10  C6  UNK     1      18.639  -2.841  14.938  1.00  0.00     0.041 A 
HETATM   11  C7  UNK     1      18.825  -0.083  17.502  1.00  0.00     0.207 A 
HETATM   12  C8  UNK     1      19.043  -2.827  12.447  1.00  0.00     0.050 C 
HETATM   13  C9  UNK     1      19.148   1.364  17.447  1.00  0.00     0.117 A 
HETATM   14  C10 UNK     1      19.454   1.891  16.256  1.00  0.00     0.169 A 
HETATM   15  C11 UNK     1      19.128   2.161  18.622  1.00  0.00     0.105 C 
ENDROOT
TORSDOF 0
ENDMDL
MODEL 8
REMARK VINA RESULT:      -6.5     17.326     18.865
REMARK  0 active torsions:
REMARK  status: ('A' for Active; 'I' for Inactive)
ROOT
HETATM    1 Cl1  UNK     1      19.252  -2.267  12.219  1.00  0.00    -0.084 Cl
HETATM    2  O1  UNK     1      18.360  -1.015  17.902  1.00  0.00    -0.320 OA
HETATM    3  O2  UNK     1      19.804   1.928  15.470  1.00  0.00    -0.286 OA
HETATM    4  N1  UNK     1      19.584   3.566  18.731  1.00  0.00    -0.191 NA
HETATM    5  C1  UNK     1      19.073  -0.305  15.691  1.00  0.00     0.051 A 
HETATM    6  C2  UNK     1      18.580  -1.269  16.571  1.00  0.00     0.089 A 
HETATM    7  C3  UNK     1      18.494  -2.869  14.766  1.00  0.00    -0.038 A 
HETATM    8  C4  UNK     1      18.289  -2.552  16.109  1.00  0.00     0.046 A 
HETATM    9  C5  UNK     1      19.277  -0.619  14.346  1.00  0.00     0.042 A 
HETATM   10  C6  UNK     1      18.987  -1.905  13.886  1.00  0.00     0.041 A 
HETATM   11  C7  UNK     1      19.372   1.047  16.202  1.00  0.00     0.207 A 
HETATM   12  C8  UNK     1      18.172  -4.255  14.309  1.00  0.00     0.050 C 
HETATM   13  C9  UNK     1      19.117   1.272  17.646  1.00  0.00     0.117 A 
HETATM   14  C10 UNK     1      18.642   0.248  18.364  1.00  0.00     0.169 A 
HETATM   15  C11 UNK     1      19.374   2.534  18.243  1.00  0.00     0.105 C 
ENDROOT
TORSDOF 0
ENDMDL
MODEL 9
REMARK VINA RESULT:      -6.5      4.380      5.935
REMARK  0 active torsions:
REMARK  status: ('A' for Active; 'I' for Inactive)
ROOT
HETATM    1 Cl1  UNK     1      16.764   6.992  35.317  1.00  0.00    -0.084 Cl
HETATM    2  O1  UNK     1      18.884   5.773  29.962  1.00  0.00    -0.320 OA
HETATM    3  O2  UNK     1      17.840   2.663  32.390  1.00  0.00    -0.286 OA
HETATM    4  N1  UNK     1      19.030   1.000  29.359  1.00  0.00    -0.191 NA
HETATM    5  C1  UNK     1      18.013   4.997  32.092  1.00  0.00     0.051 A 
HETATM    6  C2  UNK     1      18.385   6.018  31.217  1.00  0.00     0.089 A 
HETATM    7  C3  UNK     1      17.757   7.661  32.869  1.00  0.00    -0.038 A 
HETATM    8  C4  UNK     1      18.257   7.352  31.604  1.00  0.00     0.046 A 
HETATM    9  C5  UNK     1      17.510   5.305  33.359  1.00  0.00     0.042 A 
HETATM   10  C6  UNK     1      17.384   6.640  33.744  1.00  0.00     0.041 A 
HETATM   11  C7  UNK     1      18.155   3.593  31.660  1.00  0.00     0.207 A 
HETATM   12  C8  UNK     1      17.636   9.102  33.249  1.00  0.00     0.050 C 
HETATM   13  C9  UNK     1      18.698   3.381  30.296  1.00  0.00     0.117 A 
HETATM   14  C10 UNK     1      19.011   4.462  29.572  1.00  0.00     0.169 A 
HETATM   15  C11 UNK     1      18.881   2.071  29.780  1.00  0.00     0.105 C 
ENDROOT
TORSDOF 0
ENDMDL
MODEL 10
REMARK VINA RESULT:      -6.5      8.109      9.345
REMARK  0 active torsions:
REMARK  status: ('A' for Active; 'I' for Inactive)
ROOT
HETATM    1 Cl1  UNK     1      18.969   1.476  29.079  1.00  0.00    -0.084 Cl
HETATM    2  O1  UNK     1      20.229  -2.215  33.489  1.00  0.00    -0.320 OA
HETATM    3  O2  UNK     1      17.515   0.759  34.163  1.00  0.00    -0.286 OA
HETATM    4  N1  UNK     1      17.669  -0.981  37.375  1.00  0.00    -0.191 NA
HETATM    5  C1  UNK     1      18.990  -0.299  32.655  1.00  0.00     0.051 A 
HETATM    6  C2  UNK     1      19.908  -1.335  32.485  1.00  0.00     0.089 A 
HETATM    7  C3  UNK     1      20.259  -0.647  30.199  1.00  0.00    -0.038 A 
HETATM    8  C4  UNK     1      20.544  -1.511  31.256  1.00  0.00     0.046 A 
HETATM    9  C5  UNK     1      18.702   0.567  31.598  1.00  0.00     0.042 A 
HETATM   10  C6  UNK     1      19.340   0.389  30.369  1.00  0.00     0.041 A 
HETATM   11  C7  UNK     1      18.329  -0.133  33.964  1.00  0.00     0.207 A 
HETATM   12  C8  UNK     1      20.960  -0.866  28.897  1.00  0.00     0.050 C 
HETATM   13  C9  UNK     1      18.708  -1.108  35.017  1.00  0.00     0.117 A 
HETATM   14  C10 UNK     1      19.606  -2.049  34.703  1.00  0.00     0.169 A 
HETATM   15  C11 UNK     1      18.137  -1.038  36.314  1.00  0.00     0.105 C 
ENDROOT
TORSDOF 0
ENDMDL
