MODEL 1
REMARK VINA RESULT:      -8.4      0.000      0.000
REMARK  5 active torsions:
REMARK  status: ('A' for Active; 'I' for Inactive)
REMARK    1  A    between atoms: C5_11  and  O2_2 
REMARK    2  A    between atoms: C11_17  and  O4_4 
REMARK    3  A    between atoms: C13_19  and  O5_5 
REMARK    4  A    between atoms: C15_21  and  O6_6 
REMARK    5  A    between atoms: C1_7  and  C4_10 
ROOT
HETATM    1  O1  UNK     1      19.012  -0.147  32.723  1.00  0.00    -0.306 OA
HETATM    2  O3  UNK     1      18.822   2.761  29.875  1.00  0.00    -0.284 OA
HETATM    3  C1  UNK     1      18.465   1.097  32.995  1.00  0.00     0.123 A 
HETATM    4  C2  UNK     1      19.444   0.558  30.440  1.00  0.00     0.051 A 
HETATM    5  C3  UNK     1      19.481  -0.392  31.458  1.00  0.00     0.093 A 
HETATM    6  C5  UNK     1      18.377   2.102  32.106  1.00  0.00     0.152 A 
HETATM    7  C6  UNK     1      18.877   1.885  30.726  1.00  0.00     0.220 A 
HETATM    8  C7  UNK     1      19.938   0.251  29.170  1.00  0.00     0.021 A 
HETATM    9  C8  UNK     1      20.016  -1.658  31.212  1.00  0.00     0.074 A 
HETATM   10  C11 UNK     1      20.512  -1.967  29.946  1.00  0.00     0.068 A 
HETATM   11  C12 UNK     1      20.472  -1.015  28.926  1.00  0.00     0.037 A 
ENDROOT
BRANCH   3  12
HETATM   12  C4  UNK     1      18.001   1.228  34.387  1.00  0.00     0.004 A 
HETATM   13  C10 UNK     1      18.855   1.743  35.363  1.00  0.00     0.017 A 
HETATM   14  C14 UNK     1      18.416   1.866  36.680  1.00  0.00     0.040 A 
HETATM   15  C15 UNK     1      17.123   1.473  37.024  1.00  0.00     0.098 A 
HETATM   16  C13 UNK     1      16.268   0.957  36.050  1.00  0.00     0.099 A 
HETATM   17  C9  UNK     1      16.707   0.835  34.731  1.00  0.00     0.053 A 
BRANCH  15  18
HETATM   18  O6  UNK     1      16.706   1.596  38.316  1.00  0.00    -0.358 OA
HETATM   19  H10 UNK     1      15.895   2.130  38.349  1.00  0.00     0.217 HD
ENDBRANCH  15  18
BRANCH  16  20
HETATM   20  O5  UNK     1      15.002   0.571  36.374  1.00  0.00    -0.358 OA
HETATM   21  H9  UNK     1      14.364   1.030  35.803  1.00  0.00     0.217 HD
ENDBRANCH  16  20
ENDBRANCH   3  12
BRANCH   6  22
HETATM   22  O2  UNK     1      17.856   3.340  32.418  1.00  0.00    -0.355 OA
HETATM   23  H7  UNK     1      16.893   3.333  32.294  1.00  0.00     0.218 HD
ENDBRANCH   6  22
BRANCH  10  24
HETATM   24  O4  UNK     1      21.034  -3.201  29.703  1.00  0.00    -0.361 OA
HETATM   25  H8  UNK     1      20.977  -3.733  30.516  1.00  0.00     0.217 HD
ENDBRANCH  10  24
TORSDOF 5
ENDMDL
MODEL 2
REMARK VINA RESULT:      -8.3     12.877     17.361
REMARK  5 active torsions:
REMARK  status: ('A' for Active; 'I' for Inactive)
REMARK    1  A    between atoms: C5_11  and  O2_2 
REMARK    2  A    between atoms: C11_17  and  O4_4 
REMARK    3  A    between atoms: C13_19  and  O5_5 
REMARK    4  A    between atoms: C15_21  and  O6_6 
REMARK    5  A    between atoms: C1_7  and  C4_10 
ROOT
HETATM    1  O1  UNK     1      19.061  -1.042  17.709  1.00  0.00    -0.306 OA
HETATM    2  O3  UNK     1      19.330   2.245  15.316  1.00  0.00    -0.284 OA
HETATM    3  C1  UNK     1      19.171  -1.157  16.332  1.00  0.00     0.123 A 
HETATM    4  C2  UNK     1      19.150   1.375  17.501  1.00  0.00     0.051 A 
HETATM    5  C3  UNK     1      19.059   0.212  18.262  1.00  0.00     0.093 A 
HETATM    6  C5  UNK     1      19.256  -0.115  15.485  1.00  0.00     0.152 A 
HETATM    7  C6  UNK     1      19.253   1.261  16.038  1.00  0.00     0.220 A 
HETATM    8  C7  UNK     1      19.142   2.627  18.120  1.00  0.00     0.021 A 
HETATM    9  C8  UNK     1      18.958   0.294  19.652  1.00  0.00     0.074 A 
HETATM   10  C11 UNK     1      18.949   1.542  20.274  1.00  0.00     0.068 A 
HETATM   11  C12 UNK     1      19.041   2.707  19.510  1.00  0.00     0.037 A 
ENDROOT
BRANCH   3  12
HETATM   12  C4  UNK     1      19.160  -2.556  15.870  1.00  0.00     0.004 A 
HETATM   13  C10 UNK     1      17.952  -3.174  15.544  1.00  0.00     0.017 A 
HETATM   14  C14 UNK     1      17.941  -4.498  15.108  1.00  0.00     0.040 A 
HETATM   15  C15 UNK     1      19.138  -5.205  14.997  1.00  0.00     0.098 A 
HETATM   16  C13 UNK     1      20.346  -4.589  15.322  1.00  0.00     0.099 A 
HETATM   17  C9  UNK     1      20.357  -3.263  15.758  1.00  0.00     0.053 A 
BRANCH  15  18
HETATM   18  O6  UNK     1      19.114  -6.500  14.570  1.00  0.00    -0.358 OA
HETATM   19  H10 UNK     1      19.537  -7.071  15.233  1.00  0.00     0.217 HD
ENDBRANCH  15  18
BRANCH  16  20
HETATM   20  O5  UNK     1      21.521  -5.270  15.216  1.00  0.00    -0.358 OA
HETATM   21  H9  UNK     1      21.407  -6.028  14.620  1.00  0.00     0.217 HD
ENDBRANCH  16  20
ENDBRANCH   3  12
BRANCH   6  22
HETATM   22  O2  UNK     1      19.332  -0.263  14.116  1.00  0.00    -0.355 OA
HETATM   23  H7  UNK     1      18.679   0.313  13.686  1.00  0.00     0.218 HD
ENDBRANCH   6  22
BRANCH  10  24
HETATM   24  O4  UNK     1      18.851   1.626  21.629  1.00  0.00    -0.361 OA
HETATM   25  H8  UNK     1      18.023   1.201  21.912  1.00  0.00     0.217 HD
ENDBRANCH  10  24
TORSDOF 5
ENDMDL
MODEL 3
REMARK VINA RESULT:      -8.1      3.525      4.694
REMARK  5 active torsions:
REMARK  status: ('A' for Active; 'I' for Inactive)
REMARK    1  A    between atoms: C5_11  and  O2_2 
REMARK    2  A    between atoms: C11_17  and  O4_4 
REMARK    3  A    between atoms: C13_19  and  O5_5 
REMARK    4  A    between atoms: C15_21  and  O6_6 
REMARK    5  A    between atoms: C1_7  and  C4_10 
ROOT
HETATM    1  O1  UNK     1      19.583   1.082  31.374  1.00  0.00    -0.306 OA
HETATM    2  O3  UNK     1      19.045  -0.338  27.593  1.00  0.00    -0.284 OA
HETATM    3  C1  UNK     1      19.032   1.871  30.377  1.00  0.00     0.123 A 
HETATM    4  C2  UNK     1      19.775  -0.753  29.797  1.00  0.00     0.051 A 
HETATM    5  C3  UNK     1      19.935  -0.207  31.068  1.00  0.00     0.093 A 
HETATM    6  C5  UNK     1      18.834   1.469  29.109  1.00  0.00     0.152 A 
HETATM    7  C6  UNK     1      19.204   0.083  28.730  1.00  0.00     0.220 A 
HETATM    8  C7  UNK     1      20.153  -2.074  29.543  1.00  0.00     0.021 A 
HETATM    9  C8  UNK     1      20.476  -0.981  32.096  1.00  0.00     0.074 A 
HETATM   10  C11 UNK     1      20.855  -2.299  31.846  1.00  0.00     0.068 A 
HETATM   11  C12 UNK     1      20.694  -2.845  30.572  1.00  0.00     0.037 A 
ENDROOT
BRANCH   3  12
HETATM   12  C4  UNK     1      18.701   3.231  30.838  1.00  0.00     0.004 A 
HETATM   13  C10 UNK     1      18.096   3.418  32.082  1.00  0.00     0.017 A 
HETATM   14  C14 UNK     1      17.782   4.704  32.518  1.00  0.00     0.040 A 
HETATM   15  C15 UNK     1      18.071   5.804  31.711  1.00  0.00     0.098 A 
HETATM   16  C13 UNK     1      18.675   5.619  30.468  1.00  0.00     0.099 A 
HETATM   17  C9  UNK     1      18.990   4.331  30.032  1.00  0.00     0.053 A 
BRANCH  15  18
HETATM   18  O6  UNK     1      17.757   7.057  32.149  1.00  0.00    -0.358 OA
HETATM   19  H10 UNK     1      16.791   7.160  32.180  1.00  0.00     0.217 HD
ENDBRANCH  15  18
BRANCH  16  20
HETATM   20  O5  UNK     1      18.963   6.686  29.672  1.00  0.00    -0.358 OA
HETATM   21  H9  UNK     1      19.673   7.212  30.074  1.00  0.00     0.217 HD
ENDBRANCH  16  20
ENDBRANCH   3  12
BRANCH   6  22
HETATM   22  O2  UNK     1      18.313   2.290  28.131  1.00  0.00    -0.355 OA
HETATM   23  H7  UNK     1      17.894   1.754  27.439  1.00  0.00     0.218 HD
ENDBRANCH   6  22
BRANCH  10  24
HETATM   24  O4  UNK     1      21.384  -3.056  32.848  1.00  0.00    -0.361 OA
HETATM   25  H8  UNK     1      20.763  -3.065  33.597  1.00  0.00     0.217 HD
ENDBRANCH  10  24
TORSDOF 5
ENDMDL
MODEL 4
REMARK VINA RESULT:      -8.0     23.945     26.250
REMARK  5 active torsions:
REMARK  status: ('A' for Active; 'I' for Inactive)
REMARK    1  A    between atoms: C5_11  and  O2_2 
REMARK    2  A    between atoms: C11_17  and  O4_4 
REMARK    3  A    between atoms: C13_19  and  O5_5 
REMARK    4  A    between atoms: C15_21  and  O6_6 
REMARK    5  A    between atoms: C1_7  and  C4_10 
ROOT
HETATM    1  O1  UNK     1      13.412   7.700   8.788  1.00  0.00    -0.306 OA
HETATM    2  O3  UNK     1      15.308   4.202   9.669  1.00  0.00    -0.284 OA
HETATM    3  C1  UNK     1      12.779   6.476   8.636  1.00  0.00     0.123 A 
HETATM    4  C2  UNK     1      15.401   6.557   9.582  1.00  0.00     0.051 A 
HETATM    5  C3  UNK     1      14.698   7.716   9.261  1.00  0.00     0.093 A 
HETATM    6  C5  UNK     1      13.348   5.286   8.900  1.00  0.00     0.152 A 
HETATM    7  C6  UNK     1      14.741   5.254   9.409  1.00  0.00     0.220 A 
HETATM    8  C7  UNK     1      16.712   6.635  10.059  1.00  0.00     0.021 A 
HETATM    9  C8  UNK     1      15.304   8.964   9.415  1.00  0.00     0.074 A 
HETATM   10  C11 UNK     1      16.612   9.047   9.890  1.00  0.00     0.068 A 
HETATM   11  C12 UNK     1      17.315   7.885  10.212  1.00  0.00     0.037 A 
ENDROOT
BRANCH   3  12
HETATM   12  C4  UNK     1      11.405   6.600   8.121  1.00  0.00     0.004 A 
HETATM   13  C10 UNK     1      10.348   6.841   9.000  1.00  0.00     0.017 A 
HETATM   14  C14 UNK     1       9.048   6.958   8.513  1.00  0.00     0.040 A 
HETATM   15  C15 UNK     1       8.801   6.834   7.146  1.00  0.00     0.098 A 
HETATM   16  C13 UNK     1       9.856   6.594   6.266  1.00  0.00     0.099 A 
HETATM   17  C9  UNK     1      11.158   6.477   6.753  1.00  0.00     0.053 A 
BRANCH  15  18
HETATM   18  O6  UNK     1       7.524   6.949   6.683  1.00  0.00    -0.358 OA
HETATM   19  H10 UNK     1       7.427   7.784   6.195  1.00  0.00     0.217 HD
ENDBRANCH  15  18
BRANCH  16  20
HETATM   20  O5  UNK     1       9.627   6.472   4.928  1.00  0.00    -0.358 OA
HETATM   21  H9  UNK     1      10.362   5.992   4.513  1.00  0.00     0.217 HD
ENDBRANCH  16  20
ENDBRANCH   3  12
BRANCH   6  22
HETATM   22  O2  UNK     1      12.702   4.083   8.706  1.00  0.00    -0.355 OA
HETATM   23  H7  UNK     1      12.116   4.145   7.934  1.00  0.00     0.218 HD
ENDBRANCH   6  22
BRANCH  10  24
HETATM   24  O4  UNK     1      17.206  10.263  10.041  1.00  0.00    -0.361 OA
HETATM   25  H8  UNK     1      18.014  10.289   9.500  1.00  0.00     0.217 HD
ENDBRANCH  10  24
TORSDOF 5
ENDMDL
MODEL 5
REMARK VINA RESULT:      -7.9      1.778      3.363
REMARK  5 active torsions:
REMARK  status: ('A' for Active; 'I' for Inactive)
REMARK    1  A    between atoms: C5_11  and  O2_2 
REMARK    2  A    between atoms: C11_17  and  O4_4 
REMARK    3  A    between atoms: C13_19  and  O5_5 
REMARK    4  A    between atoms: C15_21  and  O6_6 
REMARK    5  A    between atoms: C1_7  and  C4_10 
ROOT
HETATM    1  O1  UNK     1      18.667  -0.069  32.709  1.00  0.00    -0.306 OA
HETATM    2  O3  UNK     1      20.878  -3.455  33.210  1.00  0.00    -0.284 OA
HETATM    3  C1  UNK     1      18.786  -0.678  33.949  1.00  0.00     0.123 A 
HETATM    4  C2  UNK     1      20.099  -1.777  31.747  1.00  0.00     0.051 A 
HETATM    5  C3  UNK     1      19.326  -0.622  31.643  1.00  0.00     0.093 A 
HETATM    6  C5  UNK     1      19.493  -1.799  34.182  1.00  0.00     0.152 A 
HETATM    7  C6  UNK     1      20.219  -2.436  33.057  1.00  0.00     0.220 A 
HETATM    8  C7  UNK     1      20.748  -2.296  30.625  1.00  0.00     0.021 A 
HETATM    9  C8  UNK     1      19.196   0.020  30.411  1.00  0.00     0.074 A 
HETATM   10  C11 UNK     1      19.841  -0.496  29.287  1.00  0.00     0.068 A 
HETATM   11  C12 UNK     1      20.616  -1.652  29.394  1.00  0.00     0.037 A 
ENDROOT
BRANCH   3  12
HETATM   12  C4  UNK     1      18.030   0.016  35.005  1.00  0.00     0.004 A 
HETATM   13  C10 UNK     1      16.648  -0.157  35.104  1.00  0.00     0.017 A 
HETATM   14  C14 UNK     1      15.932   0.501  36.103  1.00  0.00     0.040 A 
HETATM   15  C15 UNK     1      16.596   1.333  37.004  1.00  0.00     0.098 A 
HETATM   16  C13 UNK     1      17.977   1.507  36.906  1.00  0.00     0.099 A 
HETATM   17  C9  UNK     1      18.693   0.848  35.907  1.00  0.00     0.053 A 
BRANCH  15  18
HETATM   18  O6  UNK     1      15.884   1.972  37.975  1.00  0.00    -0.358 OA
HETATM   19  H10 UNK     1      15.537   1.322  38.608  1.00  0.00     0.217 HD
ENDBRANCH  15  18
BRANCH  16  20
HETATM   20  O5  UNK     1      18.636   2.316  37.782  1.00  0.00    -0.358 OA
HETATM   21  H9  UNK     1      18.976   3.096  37.313  1.00  0.00     0.217 HD
ENDBRANCH  16  20
ENDBRANCH   3  12
BRANCH   6  22
HETATM   22  O2  UNK     1      19.564  -2.399  35.421  1.00  0.00    -0.355 OA
HETATM   23  H7  UNK     1      20.484  -2.639  35.619  1.00  0.00     0.218 HD
ENDBRANCH   6  22
BRANCH  10  24
HETATM   24  O4  UNK     1      19.716   0.130  28.084  1.00  0.00    -0.361 OA
HETATM   25  H8  UNK     1      19.165  -0.420  27.499  1.00  0.00     0.217 HD
ENDBRANCH  10  24
TORSDOF 5
ENDMDL
MODEL 6
REMARK VINA RESULT:      -7.9     23.988     26.077
REMARK  5 active torsions:
REMARK  status: ('A' for Active; 'I' for Inactive)
REMARK    1  A    between atoms: C5_11  and  O2_2 
REMARK    2  A    between atoms: C11_17  and  O4_4 
REMARK    3  A    between atoms: C13_19  and  O5_5 
REMARK    4  A    between atoms: C15_21  and  O6_6 
REMARK    5  A    between atoms: C1_7  and  C4_10 
ROOT
HETATM    1  O1  UNK     1      13.332   7.688   8.754  1.00  0.00    -0.306 OA
HETATM    2  O3  UNK     1      15.220   4.193   9.662  1.00  0.00    -0.284 OA
HETATM    3  C1  UNK     1      12.692   6.466   8.624  1.00  0.00     0.123 A 
HETATM    4  C2  UNK     1      15.324   6.546   9.543  1.00  0.00     0.051 A 
HETATM    5  C3  UNK     1      14.624   7.704   9.214  1.00  0.00     0.093 A 
HETATM    6  C5  UNK     1      13.257   5.276   8.899  1.00  0.00     0.152 A 
HETATM    7  C6  UNK     1      14.655   5.244   9.395  1.00  0.00     0.220 A 
HETATM    8  C7  UNK     1      16.640   6.623  10.006  1.00  0.00     0.021 A 
HETATM    9  C8  UNK     1      15.238   8.951   9.344  1.00  0.00     0.074 A 
HETATM   10  C11 UNK     1      16.551   9.032   9.805  1.00  0.00     0.068 A 
HETATM   11  C12 UNK     1      17.251   7.871  10.136  1.00  0.00     0.037 A 
ENDROOT
BRANCH   3  12
HETATM   12  C4  UNK     1      11.313   6.591   8.122  1.00  0.00     0.004 A 
HETATM   13  C10 UNK     1      11.024   6.285   6.791  1.00  0.00     0.017 A 
HETATM   14  C14 UNK     1       9.719   6.404   6.316  1.00  0.00     0.040 A 
HETATM   15  C15 UNK     1       8.701   6.829   7.169  1.00  0.00     0.098 A 
HETATM   16  C13 UNK     1       8.989   7.136   8.500  1.00  0.00     0.099 A 
HETATM   17  C9  UNK     1      10.295   7.016   8.976  1.00  0.00     0.053 A 
BRANCH  15  18
HETATM   18  O6  UNK     1       7.430   6.944   6.691  1.00  0.00    -0.358 OA
HETATM   19  H10 UNK     1       7.378   7.692   6.074  1.00  0.00     0.217 HD
ENDBRANCH  15  18
BRANCH  16  20
HETATM   20  O5  UNK     1       8.003   7.552   9.342  1.00  0.00    -0.358 OA
HETATM   21  H9  UNK     1       7.660   6.794   9.844  1.00  0.00     0.217 HD
ENDBRANCH  16  20
ENDBRANCH   3  12
BRANCH   6  22
HETATM   22  O2  UNK     1      12.603   4.075   8.728  1.00  0.00    -0.355 OA
HETATM   23  H7  UNK     1      12.294   3.742   9.587  1.00  0.00     0.218 HD
ENDBRANCH   6  22
BRANCH  10  24
HETATM   24  O4  UNK     1      17.152  10.247   9.933  1.00  0.00    -0.361 OA
HETATM   25  H8  UNK     1      16.967  10.599  10.822  1.00  0.00     0.217 HD
ENDBRANCH  10  24
TORSDOF 5
ENDMDL
MODEL 7
REMARK VINA RESULT:      -7.9      3.449      5.362
REMARK  5 active torsions:
REMARK  status: ('A' for Active; 'I' for Inactive)
REMARK    1  A    between atoms: C5_11  and  O2_2 
REMARK    2  A    between atoms: C11_17  and  O4_4 
REMARK    3  A    between atoms: C13_19  and  O5_5 
REMARK    4  A    between atoms: C15_21  and  O6_6 
REMARK    5  A    between atoms: C1_7  and  C4_10 
ROOT
HETATM    1  O1  UNK     1      18.091   3.302  33.220  1.00  0.00    -0.306 OA
HETATM    2  O3  UNK     1      19.257   1.735  29.645  1.00  0.00    -0.284 OA
HETATM    3  C1  UNK     1      18.286   4.106  32.107  1.00  0.00     0.123 A 
HETATM    4  C2  UNK     1      18.680   1.353  31.899  1.00  0.00     0.051 A 
HETATM    5  C3  UNK     1      18.284   1.951  33.093  1.00  0.00     0.093 A 
HETATM    6  C5  UNK     1      18.677   3.655  30.902  1.00  0.00     0.152 A 
HETATM    7  C6  UNK     1      18.903   2.201  30.718  1.00  0.00     0.220 A 
HETATM    8  C7  UNK     1      18.863  -0.030  31.829  1.00  0.00     0.021 A 
HETATM    9  C8  UNK     1      18.068   1.168  34.228  1.00  0.00     0.074 A 
HETATM   10  C11 UNK     1      18.250  -0.213  34.162  1.00  0.00     0.068 A 
HETATM   11  C12 UNK     1      18.646  -0.812  32.965  1.00  0.00     0.037 A 
ENDROOT
BRANCH   3  12
HETATM   12  C4  UNK     1      18.046   5.533  32.381  1.00  0.00     0.004 A 
HETATM   13  C10 UNK     1      18.630   6.139  33.495  1.00  0.00     0.017 A 
HETATM   14  C14 UNK     1      18.402   7.490  33.754  1.00  0.00     0.040 A 
HETATM   15  C15 UNK     1      17.590   8.236  32.901  1.00  0.00     0.098 A 
HETATM   16  C13 UNK     1      17.006   7.632  31.787  1.00  0.00     0.099 A 
HETATM   17  C9  UNK     1      17.234   6.281  31.527  1.00  0.00     0.053 A 
BRANCH  15  18
HETATM   18  O6  UNK     1      17.374   9.556  33.166  1.00  0.00    -0.358 OA
HETATM   19  H10 UNK     1      17.087   9.661  34.088  1.00  0.00     0.217 HD
ENDBRANCH  15  18
BRANCH  16  20
HETATM   20  O5  UNK     1      16.212   8.352  30.946  1.00  0.00    -0.358 OA
HETATM   21  H9  UNK     1      15.490   7.791  30.619  1.00  0.00     0.217 HD
ENDBRANCH  16  20
ENDBRANCH   3  12
BRANCH   6  22
HETATM   22  O2  UNK     1      18.895   4.486  29.823  1.00  0.00    -0.355 OA
HETATM   23  H7  UNK     1      18.128   4.460  29.227  1.00  0.00     0.218 HD
ENDBRANCH   6  22
BRANCH  10  24
HETATM   24  O4  UNK     1      18.040  -0.980  35.268  1.00  0.00    -0.361 OA
HETATM   25  H8  UNK     1      18.640  -0.685  35.975  1.00  0.00     0.217 HD
ENDBRANCH  10  24
TORSDOF 5
ENDMDL
MODEL 8
REMARK VINA RESULT:      -7.8      5.931      9.118
REMARK  5 active torsions:
REMARK  status: ('A' for Active; 'I' for Inactive)
REMARK    1  A    between atoms: C5_11  and  O2_2 
REMARK    2  A    between atoms: C11_17  and  O4_4 
REMARK    3  A    between atoms: C13_19  and  O5_5 
REMARK    4  A    between atoms: C15_21  and  O6_6 
REMARK    5  A    between atoms: C1_7  and  C4_10 
ROOT
HETATM    1  O1  UNK     1      16.588   7.447  32.226  1.00  0.00    -0.306 OA
HETATM    2  O3  UNK     1      19.140   9.652  34.513  1.00  0.00    -0.284 OA
HETATM    3  C1  UNK     1      17.901   7.053  32.430  1.00  0.00     0.123 A 
HETATM    4  C2  UNK     1      16.971   9.396  33.621  1.00  0.00     0.051 A 
HETATM    5  C3  UNK     1      16.151   8.599  32.827  1.00  0.00     0.093 A 
HETATM    6  C5  UNK     1      18.796   7.735  33.166  1.00  0.00     0.152 A 
HETATM    7  C6  UNK     1      18.370   8.991  33.831  1.00  0.00     0.220 A 
HETATM    8  C7  UNK     1      16.471  10.561  34.208  1.00  0.00     0.021 A 
HETATM    9  C8  UNK     1      14.821   8.964  32.612  1.00  0.00     0.074 A 
HETATM   10  C11 UNK     1      14.318  10.126  33.195  1.00  0.00     0.068 A 
HETATM   11  C12 UNK     1      15.141  10.924  33.992  1.00  0.00     0.037 A 
ENDROOT
BRANCH   3  12
HETATM   12  C4  UNK     1      18.240   5.802  31.729  1.00  0.00     0.004 A 
HETATM   13  C10 UNK     1      18.869   5.846  30.485  1.00  0.00     0.017 A 
HETATM   14  C14 UNK     1      19.189   4.662  29.822  1.00  0.00     0.040 A 
HETATM   15  C15 UNK     1      18.879   3.433  30.401  1.00  0.00     0.098 A 
HETATM   16  C13 UNK     1      18.249   3.386  31.645  1.00  0.00     0.099 A 
HETATM   17  C9  UNK     1      17.930   4.571  32.309  1.00  0.00     0.053 A 
BRANCH  15  18
HETATM   18  O6  UNK     1      19.195   2.282  29.742  1.00  0.00    -0.358 OA
HETATM   19  H10 UNK     1      18.542   1.594  29.953  1.00  0.00     0.217 HD
ENDBRANCH  15  18
BRANCH  16  20
HETATM   20  O5  UNK     1      17.942   2.191  32.221  1.00  0.00    -0.358 OA
HETATM   21  H9  UNK     1      17.792   1.524  31.531  1.00  0.00     0.217 HD
ENDBRANCH  16  20
ENDBRANCH   3  12
BRANCH   6  22
HETATM   22  O2  UNK     1      20.106   7.333  33.322  1.00  0.00    -0.355 OA
HETATM   23  H7  UNK     1      20.628   8.053  33.710  1.00  0.00     0.218 HD
ENDBRANCH   6  22
BRANCH  10  24
HETATM   24  O4  UNK     1      13.021  10.485  32.987  1.00  0.00    -0.361 OA
HETATM   25  H8  UNK     1      12.664  10.867  33.808  1.00  0.00     0.217 HD
ENDBRANCH  10  24
TORSDOF 5
ENDMDL
MODEL 9
REMARK VINA RESULT:      -7.8     12.912     16.342
REMARK  5 active torsions:
REMARK  status: ('A' for Active; 'I' for Inactive)
REMARK    1  A    between atoms: C5_11  and  O2_2 
REMARK    2  A    between atoms: C11_17  and  O4_4 
REMARK    3  A    between atoms: C13_19  and  O5_5 
REMARK    4  A    between atoms: C15_21  and  O6_6 
REMARK    5  A    between atoms: C1_7  and  C4_10 
ROOT
HETATM    1  O1  UNK     1      18.590  -1.743  16.870  1.00  0.00    -0.306 OA
HETATM    2  O3  UNK     1      19.664  -0.317  13.207  1.00  0.00    -0.284 OA
HETATM    3  C1  UNK     1      19.017  -0.435  16.700  1.00  0.00     0.123 A 
HETATM    4  C2  UNK     1      18.870  -2.130  14.490  1.00  0.00     0.051 A 
HETATM    5  C3  UNK     1      18.519  -2.556  15.769  1.00  0.00     0.093 A 
HETATM    6  C5  UNK     1      19.393   0.097  15.523  1.00  0.00     0.152 A 
HETATM    7  C6  UNK     1      19.337  -0.747  14.304  1.00  0.00     0.220 A 
HETATM    8  C7  UNK     1      18.778  -3.004  13.404  1.00  0.00     0.021 A 
HETATM    9  C8  UNK     1      18.074  -3.863  15.971  1.00  0.00     0.074 A 
HETATM   10  C11 UNK     1      17.982  -4.739  14.890  1.00  0.00     0.068 A 
HETATM   11  C12 UNK     1      18.333  -4.311  13.608  1.00  0.00     0.037 A 
ENDROOT
BRANCH   3  12
HETATM   12  C4  UNK     1      19.048   0.327  17.960  1.00  0.00     0.004 A 
HETATM   13  C10 UNK     1      18.793   1.699  17.953  1.00  0.00     0.017 A 
HETATM   14  C14 UNK     1      18.822   2.421  19.145  1.00  0.00     0.040 A 
HETATM   15  C15 UNK     1      19.107   1.772  20.346  1.00  0.00     0.098 A 
HETATM   16  C13 UNK     1      19.362   0.401  20.355  1.00  0.00     0.099 A 
HETATM   17  C9  UNK     1      19.332  -0.321  19.162  1.00  0.00     0.053 A 
BRANCH  15  18
HETATM   18  O6  UNK     1      19.134   2.490  21.505  1.00  0.00    -0.358 OA
HETATM   19  H10 UNK     1      19.483   3.380  21.330  1.00  0.00     0.217 HD
ENDBRANCH  15  18
BRANCH  16  20
HETATM   20  O5  UNK     1      19.641  -0.243  21.522  1.00  0.00    -0.358 OA
HETATM   21  H9  UNK     1      20.091   0.364  22.132  1.00  0.00     0.217 HD
ENDBRANCH  16  20
ENDBRANCH   3  12
BRANCH   6  22
HETATM   22  O2  UNK     1      19.845   1.393  15.393  1.00  0.00    -0.355 OA
HETATM   23  H7  UNK     1      20.082   1.748  16.265  1.00  0.00     0.218 HD
ENDBRANCH   6  22
BRANCH  10  24
HETATM   24  O4  UNK     1      17.548  -6.015  15.084  1.00  0.00    -0.361 OA
HETATM   25  H8  UNK     1      18.275  -6.542  15.461  1.00  0.00     0.217 HD
ENDBRANCH  10  24
TORSDOF 5
ENDMDL
MODEL 10
REMARK VINA RESULT:      -7.7     23.753     25.801
REMARK  5 active torsions:
REMARK  status: ('A' for Active; 'I' for Inactive)
REMARK    1  A    between atoms: C5_11  and  O2_2 
REMARK    2  A    between atoms: C11_17  and  O4_4 
REMARK    3  A    between atoms: C13_19  and  O5_5 
REMARK    4  A    between atoms: C15_21  and  O6_6 
REMARK    5  A    between atoms: C1_7  and  C4_10 
ROOT
HETATM    1  O1  UNK     1      11.402   5.550   9.719  1.00  0.00    -0.306 OA
HETATM    2  O3  UNK     1       9.967   6.760   6.103  1.00  0.00    -0.284 OA
HETATM    3  C1  UNK     1      12.209   6.210   8.805  1.00  0.00     0.123 A 
HETATM    4  C2  UNK     1       9.539   5.710   8.171  1.00  0.00     0.051 A 
HETATM    5  C3  UNK     1      10.092   5.320   9.389  1.00  0.00     0.093 A 
HETATM    6  C5  UNK     1      11.802   6.630   7.594  1.00  0.00     0.152 A 
HETATM    7  C6  UNK     1      10.393   6.399   7.191  1.00  0.00     0.220 A 
HETATM    8  C7  UNK     1       8.197   5.449   7.889  1.00  0.00     0.021 A 
HETATM    9  C8  UNK     1       9.303   4.663  10.334  1.00  0.00     0.074 A 
HETATM   10  C11 UNK     1       7.962   4.400  10.056  1.00  0.00     0.068 A 
HETATM   11  C12 UNK     1       7.409   4.792   8.835  1.00  0.00     0.037 A 
ENDROOT
BRANCH   3  12
HETATM   12  C4  UNK     1      13.590   6.391   9.284  1.00  0.00     0.004 A 
HETATM   13  C10 UNK     1      13.984   7.610   9.837  1.00  0.00     0.017 A 
HETATM   14  C14 UNK     1      15.291   7.781  10.289  1.00  0.00     0.040 A 
HETATM   15  C15 UNK     1      16.207   6.734  10.189  1.00  0.00     0.098 A 
HETATM   16  C13 UNK     1      15.814   5.514   9.637  1.00  0.00     0.099 A 
HETATM   17  C9  UNK     1      14.506   5.343   9.185  1.00  0.00     0.053 A 
BRANCH  15  18
HETATM   18  O6  UNK     1      17.483   6.915  10.634  1.00  0.00    -0.358 OA
HETATM   19  H10 UNK     1      17.563   6.581  11.543  1.00  0.00     0.217 HD
ENDBRANCH  15  18
BRANCH  16  20
HETATM   20  O5  UNK     1      16.700   4.484   9.535  1.00  0.00    -0.358 OA
HETATM   21  H9  UNK     1      16.231   3.639   9.635  1.00  0.00     0.217 HD
ENDBRANCH  16  20
ENDBRANCH   3  12
BRANCH   6  22
HETATM   22  O2  UNK     1      12.638   7.255   6.694  1.00  0.00    -0.355 OA
HETATM   23  H7  UNK     1      12.181   7.373   5.846  1.00  0.00     0.218 HD
ENDBRANCH   6  22
BRANCH  10  24
HETATM   24  O4  UNK     1       7.190   3.759  10.976  1.00  0.00    -0.361 OA
HETATM   25  H8  UNK     1       7.768   3.266  11.585  1.00  0.00     0.217 HD
ENDBRANCH  10  24
TORSDOF 5
ENDMDL
