MODEL 1
REMARK VINA RESULT:     -10.1      0.000      0.000
REMARK  5 active torsions:
REMARK  status: ('A' for Active; 'I' for Inactive)
REMARK    1  A    between atoms: C1_12  and  N1_8 
REMARK       I    between atoms: C11_22  and  N3_10 
REMARK    2  A    between atoms: C4_15  and  N3_10 
REMARK    3  A    between atoms: C15_26  and  N4_11 
REMARK    4  A    between atoms: C1_12  and  C2_13 
REMARK    5  A    between atoms: C11_22  and  C5_16 
ROOT
HETATM    1  O2  UNK     1      20.909  -2.155  35.318  1.00  0.00    -0.267 OA
HETATM    2  N3  UNK     1      20.106  -4.254  34.612  1.00  0.00    -0.306 N 
HETATM    3  C11 UNK     1      20.513  -2.936  34.453  1.00  0.00     0.263 C 
HETATM    4  H7  UNK     1      19.783  -4.782  33.806  1.00  0.00     0.170 HD
ENDROOT
BRANCH   2   5
HETATM    5  C4  UNK     1      20.053  -5.004  35.812  1.00  0.00     0.151 A 
HETATM    6  C9  UNK     1      18.983  -4.947  36.694  1.00  0.00     0.071 A 
HETATM    7  C7  UNK     1      19.353  -5.814  37.694  1.00  0.00     0.116 A 
HETATM    8  N1  UNK     1      20.576  -6.300  37.333  1.00  0.00    -0.275 N 
HETATM    9  N2  UNK     1      21.031  -5.811  36.167  1.00  0.00    -0.154 NA
BRANCH   8  10
HETATM   10  C1  UNK     1      21.372  -7.250  38.072  1.00  0.00     0.194 C 
BRANCH  10  11
HETATM   11  C2  UNK     1      20.767  -8.628  38.022  1.00  0.00     0.022 A 
HETATM   12  C12 UNK     1      21.060  -9.504  36.985  1.00  0.00     0.045 A 
HETATM   13  C18 UNK     1      20.482 -10.774  36.971  1.00  0.00     0.024 A 
HETATM   14 Cl1  UNK     1      22.127  -9.067  35.701  1.00  0.00    -0.084 Cl
HETATM   15  C20 UNK     1      19.615 -11.157  37.994  1.00  0.00     0.005 A 
HETATM   16  C19 UNK     1      19.327 -10.271  39.032  1.00  0.00     0.043 A 
HETATM   17  C13 UNK     1      19.905  -9.002  39.047  1.00  0.00     0.126 A 
HETATM   18  F1  UNK     1      19.622  -8.159  40.049  1.00  0.00    -0.205 F 
ENDBRANCH  10  11
ENDBRANCH   8  10
ENDBRANCH   2   5
BRANCH   3  19
HETATM   19  C5  UNK     1      20.433  -2.496  33.056  1.00  0.00     0.108 A 
HETATM   20  C16 UNK     1      21.056  -3.264  31.954  1.00  0.00     0.304 A 
HETATM   21  O1  UNK     1      20.913  -2.744  30.670  1.00  0.00    -0.274 OA
HETATM   22  O3  UNK     1      21.669  -4.306  32.155  1.00  0.00    -0.259 OA
HETATM   23  C6  UNK     1      20.211  -1.547  30.428  1.00  0.00     0.089 A 
HETATM   24  C14 UNK     1      20.120  -1.106  29.109  1.00  0.00     0.041 A 
HETATM   25  C3  UNK     1      19.634  -0.840  31.478  1.00  0.00     0.001 A 
HETATM   26  C17 UNK     1      19.433   0.075  28.838  1.00  0.00     0.039 A 
HETATM   27  C15 UNK     1      18.848   0.799  29.879  1.00  0.00     0.103 A 
HETATM   28  C10 UNK     1      18.947   0.344  31.197  1.00  0.00     0.050 A 
HETATM   29  C8  UNK     1      19.767  -1.357  32.831  1.00  0.00     0.037 A 
BRANCH  27  30
HETATM   30  N4  UNK     1      18.148   2.002  29.597  1.00  0.00    -0.116 N 
HETATM   31  O4  UNK     1      17.469   2.538  30.506  1.00  0.00    -0.532 OA
HETATM   32  O5  UNK     1      18.228   2.496  28.446  1.00  0.00    -0.532 OA
ENDBRANCH  27  30
ENDBRANCH   3  19
TORSDOF 5
ENDMDL
MODEL 2
REMARK VINA RESULT:      -9.7      2.591      3.591
REMARK  5 active torsions:
REMARK  status: ('A' for Active; 'I' for Inactive)
REMARK    1  A    between atoms: C1_12  and  N1_8 
REMARK       I    between atoms: C11_22  and  N3_10 
REMARK    2  A    between atoms: C4_15  and  N3_10 
REMARK    3  A    between atoms: C15_26  and  N4_11 
REMARK    4  A    between atoms: C1_12  and  C2_13 
REMARK    5  A    between atoms: C11_22  and  C5_16 
ROOT
HETATM    1  O2  UNK     1      17.516  -1.753  36.994  1.00  0.00    -0.267 OA
HETATM    2  N3  UNK     1      19.380  -2.591  35.823  1.00  0.00    -0.306 N 
HETATM    3  C11 UNK     1      18.355  -1.695  36.096  1.00  0.00     0.263 C 
HETATM    4  H7  UNK     1      19.995  -2.427  35.032  1.00  0.00     0.170 HD
ENDROOT
BRANCH   2   5
HETATM    5  C4  UNK     1      19.695  -3.783  36.521  1.00  0.00     0.151 A 
HETATM    6  C9  UNK     1      20.754  -3.882  37.412  1.00  0.00     0.071 A 
HETATM    7  C7  UNK     1      20.684  -5.187  37.840  1.00  0.00     0.116 A 
HETATM    8  N1  UNK     1      19.621  -5.737  37.187  1.00  0.00    -0.275 N 
HETATM    9  N2  UNK     1      18.990  -4.884  36.361  1.00  0.00    -0.154 NA
BRANCH   8  10
HETATM   10  C1  UNK     1      19.148  -7.095  37.312  1.00  0.00     0.194 C 
BRANCH  10  11
HETATM   11  C2  UNK     1      20.184  -8.081  36.845  1.00  0.00     0.022 A 
HETATM   12  C12 UNK     1      20.863  -8.891  37.746  1.00  0.00     0.045 A 
HETATM   13  C18 UNK     1      21.817  -9.795  37.279  1.00  0.00     0.024 A 
HETATM   14 Cl1  UNK     1      20.558  -8.813  39.444  1.00  0.00    -0.084 Cl
HETATM   15  C20 UNK     1      22.086  -9.882  35.913  1.00  0.00     0.005 A 
HETATM   16  C19 UNK     1      21.400  -9.065  35.015  1.00  0.00     0.043 A 
HETATM   17  C13 UNK     1      20.445  -8.162  35.482  1.00  0.00     0.126 A 
HETATM   18  F1  UNK     1      19.791  -7.382  34.609  1.00  0.00    -0.205 F 
ENDBRANCH  10  11
ENDBRANCH   8  10
ENDBRANCH   2   5
BRANCH   3  19
HETATM   19  C5  UNK     1      18.339  -0.569  35.156  1.00  0.00     0.108 A 
HETATM   20  C16 UNK     1      17.941   0.795  35.571  1.00  0.00     0.304 A 
HETATM   21  O1  UNK     1      17.966   1.781  34.588  1.00  0.00    -0.274 OA
HETATM   22  O3  UNK     1      17.605   1.051  36.722  1.00  0.00    -0.259 OA
HETATM   23  C6  UNK     1      18.350   1.498  33.262  1.00  0.00     0.089 A 
HETATM   24  C14 UNK     1      18.344   2.550  32.348  1.00  0.00     0.041 A 
HETATM   25  C3  UNK     1      18.719   0.208  32.893  1.00  0.00     0.001 A 
HETATM   26  C17 UNK     1      18.718   2.301  31.030  1.00  0.00     0.039 A 
HETATM   27  C15 UNK     1      19.091   1.013  30.640  1.00  0.00     0.103 A 
HETATM   28  C10 UNK     1      19.093  -0.032  31.568  1.00  0.00     0.050 A 
HETATM   29  C8  UNK     1      18.704  -0.843  33.897  1.00  0.00     0.037 A 
BRANCH  27  30
HETATM   30  N4  UNK     1      19.473   0.765  29.294  1.00  0.00    -0.116 N 
HETATM   31  O4  UNK     1      20.531   0.129  29.070  1.00  0.00    -0.532 OA
HETATM   32  O5  UNK     1      18.741   1.189  28.368  1.00  0.00    -0.532 OA
ENDBRANCH  27  30
ENDBRANCH   3  19
TORSDOF 5
ENDMDL
MODEL 3
REMARK VINA RESULT:      -9.7      7.134     12.492
REMARK  5 active torsions:
REMARK  status: ('A' for Active; 'I' for Inactive)
REMARK    1  A    between atoms: C1_12  and  N1_8 
REMARK       I    between atoms: C11_22  and  N3_10 
REMARK    2  A    between atoms: C4_15  and  N3_10 
REMARK    3  A    between atoms: C15_26  and  N4_11 
REMARK    4  A    between atoms: C1_12  and  C2_13 
REMARK    5  A    between atoms: C11_22  and  C5_16 
ROOT
HETATM    1  O2  UNK     1      16.720   3.088  31.195  1.00  0.00    -0.267 OA
HETATM    2  N3  UNK     1      18.854   4.085  31.204  1.00  0.00    -0.306 N 
HETATM    3  C11 UNK     1      17.935   3.064  31.002  1.00  0.00     0.263 C 
HETATM    4  H7  UNK     1      19.839   3.920  31.018  1.00  0.00     0.170 HD
ENDROOT
BRANCH   2   5
HETATM    5  C4  UNK     1      18.601   5.393  31.682  1.00  0.00     0.151 A 
HETATM    6  C9  UNK     1      18.316   6.464  30.846  1.00  0.00     0.071 A 
HETATM    7  C7  UNK     1      18.146   7.510  31.721  1.00  0.00     0.116 A 
HETATM    8  N1  UNK     1      18.338   6.990  32.967  1.00  0.00    -0.275 N 
HETATM    9  N2  UNK     1      18.623   5.676  32.968  1.00  0.00    -0.154 NA
BRANCH   8  10
HETATM   10  C1  UNK     1      18.262   7.708  34.216  1.00  0.00     0.194 C 
BRANCH  10  11
HETATM   11  C2  UNK     1      17.128   8.698  34.211  1.00  0.00     0.022 A 
HETATM   12  C12 UNK     1      17.366  10.063  34.108  1.00  0.00     0.045 A 
HETATM   13  C18 UNK     1      16.291  10.952  34.106  1.00  0.00     0.024 A 
HETATM   14 Cl1  UNK     1      18.966  10.698  33.979  1.00  0.00    -0.084 Cl
HETATM   15  C20 UNK     1      14.986  10.469  34.209  1.00  0.00     0.005 A 
HETATM   16  C19 UNK     1      14.757   9.098  34.313  1.00  0.00     0.043 A 
HETATM   17  C13 UNK     1      15.831   8.209  34.314  1.00  0.00     0.126 A 
HETATM   18  F1  UNK     1      15.598   6.892  34.412  1.00  0.00    -0.205 F 
ENDBRANCH  10  11
ENDBRANCH   8  10
ENDBRANCH   2   5
BRANCH   3  19
HETATM   19  C5  UNK     1      18.568   1.842  30.493  1.00  0.00     0.108 A 
HETATM   20  C16 UNK     1      18.749   1.595  29.045  1.00  0.00     0.304 A 
HETATM   21  O1  UNK     1      19.362   0.398  28.685  1.00  0.00    -0.274 OA
HETATM   22  O3  UNK     1      18.378   2.402  28.199  1.00  0.00    -0.259 OA
HETATM   23  C6  UNK     1      19.791  -0.535  29.649  1.00  0.00     0.089 A 
HETATM   24  C14 UNK     1      20.395  -1.705  29.193  1.00  0.00     0.041 A 
HETATM   25  C3  UNK     1      19.610  -0.284  31.006  1.00  0.00     0.001 A 
HETATM   26  C17 UNK     1      20.829  -2.647  30.123  1.00  0.00     0.039 A 
HETATM   27  C15 UNK     1      20.656  -2.414  31.489  1.00  0.00     0.103 A 
HETATM   28  C10 UNK     1      20.048  -1.235  31.931  1.00  0.00     0.050 A 
HETATM   29  C8  UNK     1      18.972   0.958  31.413  1.00  0.00     0.037 A 
BRANCH  27  30
HETATM   30  N4  UNK     1      21.101  -3.378  32.432  1.00  0.00    -0.116 N 
HETATM   31  O4  UNK     1      20.947  -3.146  33.656  1.00  0.00    -0.532 OA
HETATM   32  O5  UNK     1      21.635  -4.433  32.016  1.00  0.00    -0.532 OA
ENDBRANCH  27  30
ENDBRANCH   3  19
TORSDOF 5
ENDMDL
MODEL 4
REMARK VINA RESULT:      -9.6      3.085      3.816
REMARK  5 active torsions:
REMARK  status: ('A' for Active; 'I' for Inactive)
REMARK    1  A    between atoms: C1_12  and  N1_8 
REMARK       I    between atoms: C11_22  and  N3_10 
REMARK    2  A    between atoms: C4_15  and  N3_10 
REMARK    3  A    between atoms: C15_26  and  N4_11 
REMARK    4  A    between atoms: C1_12  and  C2_13 
REMARK    5  A    between atoms: C11_22  and  C5_16 
ROOT
HETATM    1  O2  UNK     1      17.393  -1.371  35.931  1.00  0.00    -0.267 OA
HETATM    2  N3  UNK     1      19.521  -2.076  35.206  1.00  0.00    -0.306 N 
HETATM    3  C11 UNK     1      18.376  -1.290  35.195  1.00  0.00     0.263 C 
HETATM    4  H7  UNK     1      20.254  -1.908  34.523  1.00  0.00     0.170 HD
ENDROOT
BRANCH   2   5
HETATM    5  C4  UNK     1      19.818  -3.157  36.071  1.00  0.00     0.151 A 
HETATM    6  C9  UNK     1      20.836  -3.116  37.014  1.00  0.00     0.071 A 
HETATM    7  C7  UNK     1      20.764  -4.352  37.610  1.00  0.00     0.116 A 
HETATM    8  N1  UNK     1      19.739  -5.005  36.992  1.00  0.00    -0.275 N 
HETATM    9  N2  UNK     1      19.136  -4.283  36.032  1.00  0.00    -0.154 NA
BRANCH   8  10
HETATM   10  C1  UNK     1      19.278  -6.343  37.278  1.00  0.00     0.194 C 
BRANCH  10  11
HETATM   11  C2  UNK     1      20.291  -7.373  36.857  1.00  0.00     0.022 A 
HETATM   12  C12 UNK     1      21.161  -7.944  37.777  1.00  0.00     0.045 A 
HETATM   13  C18 UNK     1      22.087  -8.896  37.352  1.00  0.00     0.024 A 
HETATM   14 Cl1  UNK     1      21.131  -7.507  39.447  1.00  0.00    -0.084 Cl
HETATM   15  C20 UNK     1      22.136  -9.271  36.009  1.00  0.00     0.005 A 
HETATM   16  C19 UNK     1      21.259  -8.693  35.092  1.00  0.00     0.043 A 
HETATM   17  C13 UNK     1      20.333  -7.741  35.517  1.00  0.00     0.126 A 
HETATM   18  F1  UNK     1      19.493  -7.193  34.627  1.00  0.00    -0.205 F 
ENDBRANCH  10  11
ENDBRANCH   8  10
ENDBRANCH   2   5
BRANCH   3  19
HETATM   19  C5  UNK     1      18.423  -0.259  34.152  1.00  0.00     0.108 A 
HETATM   20  C16 UNK     1      18.664  -0.591  32.730  1.00  0.00     0.304 A 
HETATM   21  O1  UNK     1      18.686   0.474  31.834  1.00  0.00    -0.274 OA
HETATM   22  O3  UNK     1      18.837  -1.745  32.353  1.00  0.00    -0.259 OA
HETATM   23  C6  UNK     1      18.489   1.804  32.256  1.00  0.00     0.089 A 
HETATM   24  C14 UNK     1      18.528   2.803  31.285  1.00  0.00     0.041 A 
HETATM   25  C3  UNK     1      18.265   2.094  33.598  1.00  0.00     0.001 A 
HETATM   26  C17 UNK     1      18.337   4.128  31.672  1.00  0.00     0.039 A 
HETATM   27  C15 UNK     1      18.111   4.439  33.015  1.00  0.00     0.103 A 
HETATM   28  C10 UNK     1      18.074   3.426  33.977  1.00  0.00     0.050 A 
HETATM   29  C8  UNK     1      18.236   1.002  34.558  1.00  0.00     0.037 A 
BRANCH  27  30
HETATM   30  N4  UNK     1      17.916   5.791  33.404  1.00  0.00    -0.116 N 
HETATM   31  O4  UNK     1      16.856   6.373  33.069  1.00  0.00    -0.532 OA
HETATM   32  O5  UNK     1      18.810   6.365  34.072  1.00  0.00    -0.532 OA
ENDBRANCH  27  30
ENDBRANCH   3  19
TORSDOF 5
ENDMDL
MODEL 5
REMARK VINA RESULT:      -9.6      7.030     10.585
REMARK  5 active torsions:
REMARK  status: ('A' for Active; 'I' for Inactive)
REMARK    1  A    between atoms: C1_12  and  N1_8 
REMARK       I    between atoms: C11_22  and  N3_10 
REMARK    2  A    between atoms: C4_15  and  N3_10 
REMARK    3  A    between atoms: C15_26  and  N4_11 
REMARK    4  A    between atoms: C1_12  and  C2_13 
REMARK    5  A    between atoms: C11_22  and  C5_16 
ROOT
HETATM    1  O2  UNK     1      26.449  -8.957  39.462  1.00  0.00    -0.267 OA
HETATM    2  N3  UNK     1      24.983  -7.291  38.671  1.00  0.00    -0.306 N 
HETATM    3  C11 UNK     1      26.215  -7.839  39.005  1.00  0.00     0.263 C 
HETATM    4  H7  UNK     1      24.935  -6.340  38.316  1.00  0.00     0.170 HD
ENDROOT
BRANCH   2   5
HETATM    5  C4  UNK     1      23.709  -7.899  38.781  1.00  0.00     0.151 A 
HETATM    6  C9  UNK     1      23.038  -8.039  39.989  1.00  0.00     0.071 A 
HETATM    7  C7  UNK     1      21.871  -8.668  39.629  1.00  0.00     0.116 A 
HETATM    8  N1  UNK     1      21.942  -8.844  38.278  1.00  0.00    -0.275 N 
HETATM    9  N2  UNK     1      23.075  -8.374  37.729  1.00  0.00    -0.154 NA
BRANCH   8  10
HETATM   10  C1  UNK     1      20.943  -9.464  37.441  1.00  0.00     0.194 C 
BRANCH  10  11
HETATM   11  C2  UNK     1      19.972  -8.448  36.903  1.00  0.00     0.022 A 
HETATM   12  C12 UNK     1      20.084  -7.964  35.606  1.00  0.00     0.045 A 
HETATM   13  C18 UNK     1      19.167  -7.023  35.139  1.00  0.00     0.024 A 
HETATM   14 Cl1  UNK     1      21.336  -8.498  34.543  1.00  0.00    -0.084 Cl
HETATM   15  C20 UNK     1      18.144  -6.573  35.973  1.00  0.00     0.005 A 
HETATM   16  C19 UNK     1      18.039  -7.063  37.274  1.00  0.00     0.043 A 
HETATM   17  C13 UNK     1      18.956  -8.005  37.741  1.00  0.00     0.126 A 
HETATM   18  F1  UNK     1      18.845  -8.471  38.993  1.00  0.00    -0.205 F 
ENDBRANCH  10  11
ENDBRANCH   8  10
ENDBRANCH   2   5
BRANCH   3  19
HETATM   19  C5  UNK     1      27.322  -6.909  38.751  1.00  0.00     0.108 A 
HETATM   20  C16 UNK     1      27.121  -5.444  38.703  1.00  0.00     0.304 A 
HETATM   21  O1  UNK     1      28.248  -4.666  38.454  1.00  0.00    -0.274 OA
HETATM   22  O3  UNK     1      26.019  -4.934  38.873  1.00  0.00    -0.259 OA
HETATM   23  C6  UNK     1      29.519  -5.241  38.258  1.00  0.00     0.089 A 
HETATM   24  C14 UNK     1      30.588  -4.381  38.015  1.00  0.00     0.041 A 
HETATM   25  C3  UNK     1      29.686  -6.621  38.306  1.00  0.00     0.001 A 
HETATM   26  C17 UNK     1      31.857  -4.921  37.816  1.00  0.00     0.039 A 
HETATM   27  C15 UNK     1      32.044  -6.304  37.861  1.00  0.00     0.103 A 
HETATM   28  C10 UNK     1      30.962  -7.154  38.105  1.00  0.00     0.050 A 
HETATM   29  C8  UNK     1      28.526  -7.461  38.564  1.00  0.00     0.037 A 
BRANCH  27  30
HETATM   30  N4  UNK     1      33.340  -6.849  37.658  1.00  0.00    -0.116 N 
HETATM   31  O4  UNK     1      34.343  -6.164  37.973  1.00  0.00    -0.532 OA
HETATM   32  O5  UNK     1      33.445  -8.000  37.170  1.00  0.00    -0.532 OA
ENDBRANCH  27  30
ENDBRANCH   3  19
TORSDOF 5
ENDMDL
MODEL 6
REMARK VINA RESULT:      -9.6      2.833      4.013
REMARK  5 active torsions:
REMARK  status: ('A' for Active; 'I' for Inactive)
REMARK    1  A    between atoms: C1_12  and  N1_8 
REMARK       I    between atoms: C11_22  and  N3_10 
REMARK    2  A    between atoms: C4_15  and  N3_10 
REMARK    3  A    between atoms: C15_26  and  N4_11 
REMARK    4  A    between atoms: C1_12  and  C2_13 
REMARK    5  A    between atoms: C11_22  and  C5_16 
ROOT
HETATM    1  O2  UNK     1      20.842  -3.802  36.383  1.00  0.00    -0.267 OA
HETATM    2  N3  UNK     1      18.594  -4.472  36.595  1.00  0.00    -0.306 N 
HETATM    3  C11 UNK     1      19.635  -3.567  36.441  1.00  0.00     0.263 C 
HETATM    4  H7  UNK     1      17.636  -4.135  36.645  1.00  0.00     0.170 HD
ENDROOT
BRANCH   2   5
HETATM    5  C4  UNK     1      18.683  -5.879  36.722  1.00  0.00     0.151 A 
HETATM    6  C9  UNK     1      17.972  -6.760  35.919  1.00  0.00     0.071 A 
HETATM    7  C7  UNK     1      18.357  -7.994  36.385  1.00  0.00     0.116 A 
HETATM    8  N1  UNK     1      19.239  -7.751  37.397  1.00  0.00    -0.275 N 
HETATM    9  N2  UNK     1      19.458  -6.445  37.625  1.00  0.00    -0.154 NA
BRANCH   8  10
HETATM   10  C1  UNK     1      19.920  -8.742  38.196  1.00  0.00     0.194 C 
BRANCH  10  11
HETATM   11  C2  UNK     1      21.069  -9.358  37.445  1.00  0.00     0.022 A 
HETATM   12  C12 UNK     1      22.323  -8.761  37.435  1.00  0.00     0.045 A 
HETATM   13  C18 UNK     1      23.366  -9.359  36.728  1.00  0.00     0.024 A 
HETATM   14 Cl1  UNK     1      22.634  -7.288  38.280  1.00  0.00    -0.084 Cl
HETATM   15  C20 UNK     1      23.147 -10.551  36.036  1.00  0.00     0.005 A 
HETATM   16  C19 UNK     1      21.884 -11.143  36.051  1.00  0.00     0.043 A 
HETATM   17  C13 UNK     1      20.842 -10.545  36.758  1.00  0.00     0.126 A 
HETATM   18  F1  UNK     1      19.632 -11.124  36.767  1.00  0.00    -0.205 F 
ENDBRANCH  10  11
ENDBRANCH   8  10
ENDBRANCH   2   5
BRANCH   3  19
HETATM   19  C5  UNK     1      19.157  -2.184  36.340  1.00  0.00     0.108 A 
HETATM   20  C16 UNK     1      18.702  -1.422  37.525  1.00  0.00     0.304 A 
HETATM   21  O1  UNK     1      18.271  -0.117  37.302  1.00  0.00    -0.274 OA
HETATM   22  O3  UNK     1      18.703  -1.910  38.650  1.00  0.00    -0.259 OA
HETATM   23  C6  UNK     1      18.266   0.454  36.014  1.00  0.00     0.089 A 
HETATM   24  C14 UNK     1      17.816   1.767  35.890  1.00  0.00     0.041 A 
HETATM   25  C3  UNK     1      18.696  -0.281  34.913  1.00  0.00     0.001 A 
HETATM   26  C17 UNK     1      17.799   2.358  34.628  1.00  0.00     0.039 A 
HETATM   27  C15 UNK     1      18.226   1.636  33.512  1.00  0.00     0.103 A 
HETATM   28  C10 UNK     1      18.675   0.320  33.652  1.00  0.00     0.050 A 
HETATM   29  C8  UNK     1      19.153  -1.647  35.114  1.00  0.00     0.037 A 
BRANCH  27  30
HETATM   30  N4  UNK     1      18.207   2.244  32.228  1.00  0.00    -0.116 N 
HETATM   31  O4  UNK     1      18.569   1.573  31.232  1.00  0.00    -0.532 OA
HETATM   32  O5  UNK     1      17.829   3.436  32.126  1.00  0.00    -0.532 OA
ENDBRANCH  27  30
ENDBRANCH   3  19
TORSDOF 5
ENDMDL
MODEL 7
REMARK VINA RESULT:      -9.5      2.981      3.887
REMARK  5 active torsions:
REMARK  status: ('A' for Active; 'I' for Inactive)
REMARK    1  A    between atoms: C1_12  and  N1_8 
REMARK       I    between atoms: C11_22  and  N3_10 
REMARK    2  A    between atoms: C4_15  and  N3_10 
REMARK    3  A    between atoms: C15_26  and  N4_11 
REMARK    4  A    between atoms: C1_12  and  C2_13 
REMARK    5  A    between atoms: C11_22  and  C5_16 
ROOT
HETATM    1  O2  UNK     1      17.451  -1.904  36.760  1.00  0.00    -0.267 OA
HETATM    2  N3  UNK     1      19.645  -2.072  35.919  1.00  0.00    -0.306 N 
HETATM    3  C11 UNK     1      18.425  -1.454  36.158  1.00  0.00     0.263 C 
HETATM    4  H7  UNK     1      20.361  -1.585  35.387  1.00  0.00     0.170 HD
ENDROOT
BRANCH   2   5
HETATM    5  C4  UNK     1      20.048  -3.371  36.315  1.00  0.00     0.151 A 
HETATM    6  C9  UNK     1      20.547  -3.657  37.578  1.00  0.00     0.071 A 
HETATM    7  C7  UNK     1      20.802  -5.006  37.518  1.00  0.00     0.116 A 
HETATM    8  N1  UNK     1      20.444  -5.398  36.261  1.00  0.00    -0.275 N 
HETATM    9  N2  UNK     1      19.972  -4.399  35.495  1.00  0.00    -0.154 NA
BRANCH   8  10
HETATM   10  C1  UNK     1      20.528  -6.734  35.724  1.00  0.00     0.194 C 
BRANCH  10  11
HETATM   11  C2  UNK     1      20.263  -7.769  36.784  1.00  0.00     0.022 A 
HETATM   12  C12 UNK     1      19.001  -7.917  37.344  1.00  0.00     0.045 A 
HETATM   13  C18 UNK     1      18.790  -8.887  38.324  1.00  0.00     0.024 A 
HETATM   14 Cl1  UNK     1      17.671  -6.928  36.859  1.00  0.00    -0.084 Cl
HETATM   15  C20 UNK     1      19.844  -9.701  38.738  1.00  0.00     0.005 A 
HETATM   16  C19 UNK     1      21.109  -9.546  38.170  1.00  0.00     0.043 A 
HETATM   17  C13 UNK     1      21.319  -8.577  37.190  1.00  0.00     0.126 A 
HETATM   18  F1  UNK     1      22.538  -8.437  36.650  1.00  0.00    -0.205 F 
ENDBRANCH  10  11
ENDBRANCH   8  10
ENDBRANCH   2   5
BRANCH   3  19
HETATM   19  C5  UNK     1      18.371  -0.100  35.594  1.00  0.00     0.108 A 
HETATM   20  C16 UNK     1      18.310   1.106  36.451  1.00  0.00     0.304 A 
HETATM   21  O1  UNK     1      18.261   2.335  35.799  1.00  0.00    -0.274 OA
HETATM   22  O3  UNK     1      18.302   1.032  37.675  1.00  0.00    -0.259 OA
HETATM   23  C6  UNK     1      18.269   2.431  34.394  1.00  0.00     0.089 A 
HETATM   24  C14 UNK     1      18.218   3.705  33.832  1.00  0.00     0.041 A 
HETATM   25  C3  UNK     1      18.325   1.285  33.607  1.00  0.00     0.001 A 
HETATM   26  C17 UNK     1      18.223   3.832  32.445  1.00  0.00     0.039 A 
HETATM   27  C15 UNK     1      18.279   2.693  31.639  1.00  0.00     0.103 A 
HETATM   28  C10 UNK     1      18.330   1.422  32.216  1.00  0.00     0.050 A 
HETATM   29  C8  UNK     1      18.377  -0.014  34.259  1.00  0.00     0.037 A 
BRANCH  27  30
HETATM   30  N4  UNK     1      18.285   2.828  30.224  1.00  0.00    -0.116 N 
HETATM   31  O4  UNK     1      18.998   3.719  29.702  1.00  0.00    -0.532 OA
HETATM   32  O5  UNK     1      17.579   2.052  29.537  1.00  0.00    -0.532 OA
ENDBRANCH  27  30
ENDBRANCH   3  19
TORSDOF 5
ENDMDL
MODEL 8
REMARK VINA RESULT:      -9.5     17.166     20.649
REMARK  5 active torsions:
REMARK  status: ('A' for Active; 'I' for Inactive)
REMARK    1  A    between atoms: C1_12  and  N1_8 
REMARK       I    between atoms: C11_22  and  N3_10 
REMARK    2  A    between atoms: C4_15  and  N3_10 
REMARK    3  A    between atoms: C15_26  and  N4_11 
REMARK    4  A    between atoms: C1_12  and  C2_13 
REMARK    5  A    between atoms: C11_22  and  C5_16 
ROOT
HETATM    1  O2  UNK     1      17.846  -3.452  15.537  1.00  0.00    -0.267 OA
HETATM    2  N3  UNK     1      20.037  -3.317  14.685  1.00  0.00    -0.306 N 
HETATM    3  C11 UNK     1      18.884  -2.839  15.293  1.00  0.00     0.263 C 
HETATM    4  H7  UNK     1      20.821  -2.689  14.529  1.00  0.00     0.170 HD
ENDROOT
BRANCH   2   5
HETATM    5  C4  UNK     1      20.282  -4.626  14.204  1.00  0.00     0.151 A 
HETATM    6  C9  UNK     1      20.694  -5.669  15.022  1.00  0.00     0.071 A 
HETATM    7  C7  UNK     1      20.806  -6.727  14.152  1.00  0.00     0.116 A 
HETATM    8  N1  UNK     1      20.461  -6.238  12.925  1.00  0.00    -0.275 N 
HETATM    9  N2  UNK     1      20.132  -4.935  12.933  1.00  0.00    -0.154 NA
BRANCH   8  10
HETATM   10  C1  UNK     1      20.425  -6.980  11.688  1.00  0.00     0.194 C 
BRANCH  10  11
HETATM   11  C2  UNK     1      19.022  -7.086  11.153  1.00  0.00     0.022 A 
HETATM   12  C12 UNK     1      18.601  -6.310  10.081  1.00  0.00     0.045 A 
HETATM   13  C18 UNK     1      17.294  -6.435   9.610  1.00  0.00     0.024 A 
HETATM   14 Cl1  UNK     1      19.656  -5.186   9.304  1.00  0.00    -0.084 Cl
HETATM   15  C20 UNK     1      16.417  -7.335  10.217  1.00  0.00     0.005 A 
HETATM   16  C19 UNK     1      16.849  -8.110  11.293  1.00  0.00     0.043 A 
HETATM   17  C13 UNK     1      18.156  -7.986  11.763  1.00  0.00     0.126 A 
HETATM   18  F1  UNK     1      18.560  -8.737  12.797  1.00  0.00    -0.205 F 
ENDBRANCH  10  11
ENDBRANCH   8  10
ENDBRANCH   2   5
BRANCH   3  19
HETATM   19  C5  UNK     1      18.997  -1.423  15.661  1.00  0.00     0.108 A 
HETATM   20  C16 UNK     1      19.170  -0.359  14.647  1.00  0.00     0.304 A 
HETATM   21  O1  UNK     1      19.265   0.947  15.119  1.00  0.00    -0.274 OA
HETATM   22  O3  UNK     1      19.226  -0.610  13.447  1.00  0.00    -0.259 OA
HETATM   23  C6  UNK     1      19.202   1.245  16.494  1.00  0.00     0.089 A 
HETATM   24  C14 UNK     1      19.307   2.583  16.872  1.00  0.00     0.041 A 
HETATM   25  C3  UNK     1      19.041   0.230  17.432  1.00  0.00     0.001 A 
HETATM   26  C17 UNK     1      19.248   2.909  18.225  1.00  0.00     0.039 A 
HETATM   27  C15 UNK     1      19.088   1.903  19.180  1.00  0.00     0.103 A 
HETATM   28  C10 UNK     1      18.983   0.566  18.787  1.00  0.00     0.050 A 
HETATM   29  C8  UNK     1      18.938  -1.145  16.969  1.00  0.00     0.037 A 
BRANCH  27  30
HETATM   30  N4  UNK     1      19.028   2.241  20.559  1.00  0.00    -0.116 N 
HETATM   31  O4  UNK     1      20.099   2.411  21.190  1.00  0.00    -0.532 OA
HETATM   32  O5  UNK     1      17.905   2.362  21.106  1.00  0.00    -0.532 OA
ENDBRANCH  27  30
ENDBRANCH   3  19
TORSDOF 5
ENDMDL
MODEL 9
REMARK VINA RESULT:      -9.4      7.261     10.806
REMARK  5 active torsions:
REMARK  status: ('A' for Active; 'I' for Inactive)
REMARK    1  A    between atoms: C1_12  and  N1_8 
REMARK       I    between atoms: C11_22  and  N3_10 
REMARK    2  A    between atoms: C4_15  and  N3_10 
REMARK    3  A    between atoms: C15_26  and  N4_11 
REMARK    4  A    between atoms: C1_12  and  C2_13 
REMARK    5  A    between atoms: C11_22  and  C5_16 
ROOT
HETATM    1  O2  UNK     1      26.545  -8.959  39.523  1.00  0.00    -0.267 OA
HETATM    2  N3  UNK     1      25.141  -7.326  38.570  1.00  0.00    -0.306 N 
HETATM    3  C11 UNK     1      26.344  -7.856  39.017  1.00  0.00     0.263 C 
HETATM    4  H7  UNK     1      25.116  -6.385  38.186  1.00  0.00     0.170 HD
ENDROOT
BRANCH   2   5
HETATM    5  C4  UNK     1      23.864  -7.937  38.597  1.00  0.00     0.151 A 
HETATM    6  C9  UNK     1      23.063  -7.970  39.731  1.00  0.00     0.071 A 
HETATM    7  C7  UNK     1      21.945  -8.648  39.307  1.00  0.00     0.116 A 
HETATM    8  N1  UNK     1      22.167  -8.951  37.996  1.00  0.00    -0.275 N 
HETATM    9  N2  UNK     1      23.353  -8.520  37.533  1.00  0.00    -0.154 NA
BRANCH   8  10
HETATM   10  C1  UNK     1      21.270  -9.662  37.117  1.00  0.00     0.194 C 
BRANCH  10  11
HETATM   11  C2  UNK     1      20.254  -8.736  36.505  1.00  0.00     0.022 A 
HETATM   12  C12 UNK     1      19.034  -8.497  37.125  1.00  0.00     0.045 A 
HETATM   13  C18 UNK     1      18.115  -7.633  36.530  1.00  0.00     0.024 A 
HETATM   14 Cl1  UNK     1      18.616  -9.243  38.625  1.00  0.00    -0.084 Cl
HETATM   15  C20 UNK     1      18.423  -7.014  35.319  1.00  0.00     0.005 A 
HETATM   16  C19 UNK     1      19.650  -7.260  34.703  1.00  0.00     0.043 A 
HETATM   17  C13 UNK     1      20.569  -8.123  35.298  1.00  0.00     0.126 A 
HETATM   18  F1  UNK     1      21.746  -8.351  34.698  1.00  0.00    -0.205 F 
ENDBRANCH  10  11
ENDBRANCH   8  10
ENDBRANCH   2   5
BRANCH   3  19
HETATM   19  C5  UNK     1      27.464  -6.927  38.825  1.00  0.00     0.108 A 
HETATM   20  C16 UNK     1      27.288  -5.459  38.894  1.00  0.00     0.304 A 
HETATM   21  O1  UNK     1      28.425  -4.682  38.694  1.00  0.00    -0.274 OA
HETATM   22  O3  UNK     1      26.196  -4.947  39.116  1.00  0.00    -0.259 OA
HETATM   23  C6  UNK     1      29.684  -5.261  38.439  1.00  0.00     0.089 A 
HETATM   24  C14 UNK     1      30.766  -4.402  38.253  1.00  0.00     0.041 A 
HETATM   25  C3  UNK     1      29.828  -6.643  38.377  1.00  0.00     0.001 A 
HETATM   26  C17 UNK     1      32.023  -4.945  37.997  1.00  0.00     0.039 A 
HETATM   27  C15 UNK     1      32.186  -6.330  37.930  1.00  0.00     0.103 A 
HETATM   28  C10 UNK     1      31.093  -7.179  38.120  1.00  0.00     0.050 A 
HETATM   29  C8  UNK     1      28.657  -7.482  38.581  1.00  0.00     0.037 A 
BRANCH  27  30
HETATM   30  N4  UNK     1      33.471  -6.878  37.671  1.00  0.00    -0.116 N 
HETATM   31  O4  UNK     1      34.489  -6.211  37.974  1.00  0.00    -0.532 OA
HETATM   32  O5  UNK     1      33.551  -8.014  37.145  1.00  0.00    -0.532 OA
ENDBRANCH  27  30
ENDBRANCH   3  19
TORSDOF 5
ENDMDL
MODEL 10
REMARK VINA RESULT:      -9.4      7.283     12.560
REMARK  5 active torsions:
REMARK  status: ('A' for Active; 'I' for Inactive)
REMARK    1  A    between atoms: C1_12  and  N1_8 
REMARK       I    between atoms: C11_22  and  N3_10 
REMARK    2  A    between atoms: C4_15  and  N3_10 
REMARK    3  A    between atoms: C15_26  and  N4_11 
REMARK    4  A    between atoms: C1_12  and  C2_13 
REMARK    5  A    between atoms: C11_22  and  C5_16 
ROOT
HETATM    1  O2  UNK     1      18.993   4.651  29.688  1.00  0.00    -0.267 OA
HETATM    2  N3  UNK     1      17.870   3.886  31.612  1.00  0.00    -0.306 N 
HETATM    3  C11 UNK     1      18.597   3.757  30.436  1.00  0.00     0.263 C 
HETATM    4  H7  UNK     1      17.592   3.054  32.126  1.00  0.00     0.170 HD
ENDROOT
BRANCH   2   5
HETATM    5  C4  UNK     1      17.417   5.081  32.222  1.00  0.00     0.151 A 
HETATM    6  C9  UNK     1      16.508   5.941  31.620  1.00  0.00     0.071 A 
HETATM    7  C7  UNK     1      16.361   6.944  32.548  1.00  0.00     0.116 A 
HETATM    8  N1  UNK     1      17.171   6.606  33.593  1.00  0.00    -0.275 N 
HETATM    9  N2  UNK     1      17.837   5.452  33.413  1.00  0.00    -0.154 NA
BRANCH   8  10
HETATM   10  C1  UNK     1      17.353   7.356  34.812  1.00  0.00     0.194 C 
BRANCH  10  11
HETATM   11  C2  UNK     1      17.715   8.789  34.526  1.00  0.00     0.022 A 
HETATM   12  C12 UNK     1      16.744   9.782  34.491  1.00  0.00     0.045 A 
HETATM   13  C18 UNK     1      17.114  11.099  34.223  1.00  0.00     0.024 A 
HETATM   14 Cl1  UNK     1      15.077   9.431  34.773  1.00  0.00    -0.084 Cl
HETATM   15  C20 UNK     1      18.453  11.414  33.991  1.00  0.00     0.005 A 
HETATM   16  C19 UNK     1      19.421  10.411  34.028  1.00  0.00     0.043 A 
HETATM   17  C13 UNK     1      19.051   9.094  34.296  1.00  0.00     0.126 A 
HETATM   18  F1  UNK     1      19.991   8.138  34.331  1.00  0.00    -0.205 F 
ENDBRANCH  10  11
ENDBRANCH   8  10
ENDBRANCH   2   5
BRANCH   3  19
HETATM   19  C5  UNK     1      18.890   2.356  30.116  1.00  0.00     0.108 A 
HETATM   20  C16 UNK     1      18.553   1.764  28.801  1.00  0.00     0.304 A 
HETATM   21  O1  UNK     1      18.880   0.423  28.617  1.00  0.00    -0.274 OA
HETATM   22  O3  UNK     1      18.013   2.417  27.915  1.00  0.00    -0.259 OA
HETATM   23  C6  UNK     1      19.501  -0.336  29.628  1.00  0.00     0.089 A 
HETATM   24  C14 UNK     1      19.791  -1.670  29.350  1.00  0.00     0.041 A 
HETATM   25  C3  UNK     1      19.808   0.240  30.857  1.00  0.00     0.001 A 
HETATM   26  C17 UNK     1      20.404  -2.446  30.331  1.00  0.00     0.039 A 
HETATM   27  C15 UNK     1      20.719  -1.886  31.571  1.00  0.00     0.103 A 
HETATM   28  C10 UNK     1      20.423  -0.546  31.835  1.00  0.00     0.050 A 
HETATM   29  C8  UNK     1      19.478   1.639  31.080  1.00  0.00     0.037 A 
BRANCH  27  30
HETATM   30  N4  UNK     1      21.345  -2.682  32.567  1.00  0.00    -0.116 N 
HETATM   31  O4  UNK     1      21.328  -3.931  32.447  1.00  0.00    -0.532 OA
HETATM   32  O5  UNK     1      21.898  -2.114  33.540  1.00  0.00    -0.532 OA
ENDBRANCH  27  30
ENDBRANCH   3  19
TORSDOF 5
ENDMDL
