MODEL 1
REMARK VINA RESULT:     -10.6      0.000      0.000
REMARK  3 active torsions:
REMARK  status: ('A' for Active; 'I' for Inactive)
REMARK       I    between atoms: C11_18  and  N1_6 
REMARK    1  A    between atoms: C4_11  and  N1_6 
REMARK       I    between atoms: C8_15  and  N2_7 
REMARK    2  A    between atoms: C2_9  and  C8_15 
REMARK    3  A    between atoms: C11_18  and  C7_14 
ROOT
HETATM    1  S1  UNK     1      21.142  -4.632  37.559  1.00  0.00    -0.075 SA
HETATM    2  C1  UNK     1      20.425  -7.072  37.193  1.00  0.00     0.005 A 
HETATM    3  C2  UNK     1      19.971  -6.351  36.050  1.00  0.00     0.077 A 
HETATM    4  C3  UNK     1      21.077  -6.259  38.092  1.00  0.00    -0.007 A 
HETATM    5  C4  UNK     1      20.299  -5.036  36.140  1.00  0.00     0.094 A 
HETATM    6  C5  UNK     1      20.261  -8.482  37.452  1.00  0.00    -0.024 A 
HETATM    7  C6  UNK     1      21.697  -6.601  39.395  1.00  0.00     0.057 C 
HETATM    8  C9  UNK     1      21.230  -9.381  37.019  1.00  0.00     0.012 A 
HETATM    9  C10 UNK     1      19.135  -8.932  38.134  1.00  0.00     0.012 A 
HETATM   10  C16 UNK     1      21.071 -10.744  37.270  1.00  0.00     0.001 A 
HETATM   11  C17 UNK     1      18.976 -10.294  38.385  1.00  0.00     0.001 A 
HETATM   12  C19 UNK     1      19.944 -11.201  37.953  1.00  0.00     0.000 A 
ENDROOT
BRANCH   5  13
HETATM   13  N1  UNK     1      20.056  -3.979  35.256  1.00  0.00    -0.316 N 
HETATM   14  C11 UNK     1      19.495  -2.753  35.584  1.00  0.00     0.262 C 
HETATM   15  O3  UNK     1      19.106  -2.355  36.680  1.00  0.00    -0.267 OA
HETATM   16  H1  UNK     1      20.350  -4.159  34.300  1.00  0.00     0.169 HD
BRANCH  14  17
HETATM   17  C7  UNK     1      19.382  -1.874  34.414  1.00  0.00     0.108 A 
HETATM   18  C13 UNK     1      20.020  -2.275  33.308  1.00  0.00     0.037 A 
HETATM   19  C12 UNK     1      19.967  -1.471  32.097  1.00  0.00    -0.001 A 
HETATM   20  C14 UNK     1      19.244  -0.283  32.110  1.00  0.00     0.089 A 
HETATM   21  C18 UNK     1      20.618  -1.852  30.922  1.00  0.00     0.014 A 
HETATM   22  O1  UNK     1      18.574   0.135  33.277  1.00  0.00    -0.274 OA
HETATM   23  C20 UNK     1      19.153   0.534  30.985  1.00  0.00     0.038 A 
HETATM   24  C15 UNK     1      18.607  -0.613  34.451  1.00  0.00     0.304 A 
HETATM   25  O4  UNK     1      18.021  -0.241  35.462  1.00  0.00    -0.259 OA
HETATM   26  C22 UNK     1      19.806   0.147  29.816  1.00  0.00     0.003 A 
HETATM   27  C21 UNK     1      20.536  -1.043  29.784  1.00  0.00     0.001 A 
ENDBRANCH  14  17
ENDBRANCH   5  13
BRANCH   3  28
HETATM   28  C8  UNK     1      19.254  -6.913  34.931  1.00  0.00     0.253 C 
HETATM   29  O2  UNK     1      19.814  -7.277  33.880  1.00  0.00    -0.268 OA
HETATM   30  N2  UNK     1      17.878  -7.068  35.066  1.00  0.00    -0.366 N 
HETATM   31  H15 UNK     1      17.383  -6.795  35.909  1.00  0.00     0.159 HD
HETATM   32  H16 UNK     1      17.322  -7.465  34.315  1.00  0.00     0.159 HD
ENDBRANCH   3  28
TORSDOF 3
ENDMDL
MODEL 2
REMARK VINA RESULT:     -10.1      2.152      3.431
REMARK  3 active torsions:
REMARK  status: ('A' for Active; 'I' for Inactive)
REMARK       I    between atoms: C11_18  and  N1_6 
REMARK    1  A    between atoms: C4_11  and  N1_6 
REMARK       I    between atoms: C8_15  and  N2_7 
REMARK    2  A    between atoms: C2_9  and  C8_15 
REMARK    3  A    between atoms: C11_18  and  C7_14 
ROOT
HETATM    1  S1  UNK     1      21.854  -5.372  38.206  1.00  0.00    -0.075 SA
HETATM    2  C1  UNK     1      20.541  -7.567  37.954  1.00  0.00     0.005 A 
HETATM    3  C2  UNK     1      19.726  -6.550  37.377  1.00  0.00     0.077 A 
HETATM    4  C3  UNK     1      21.727  -7.064  38.442  1.00  0.00    -0.007 A 
HETATM    5  C4  UNK     1      20.329  -5.335  37.457  1.00  0.00     0.094 A 
HETATM    6  C5  UNK     1      20.236  -8.972  38.053  1.00  0.00    -0.024 A 
HETATM    7  C6  UNK     1      22.845  -7.771  39.111  1.00  0.00     0.057 C 
HETATM    8  C9  UNK     1      20.611  -9.836  37.029  1.00  0.00     0.012 A 
HETATM    9  C10 UNK     1      19.567  -9.456  39.174  1.00  0.00     0.012 A 
HETATM   10  C16 UNK     1      20.316 -11.196  37.125  1.00  0.00     0.001 A 
HETATM   11  C17 UNK     1      19.272 -10.816  39.271  1.00  0.00     0.001 A 
HETATM   12  C19 UNK     1      19.646 -11.686  38.247  1.00  0.00     0.000 A 
ENDROOT
BRANCH   5  13
HETATM   13  N1  UNK     1      19.896  -4.077  37.024  1.00  0.00    -0.316 N 
HETATM   14  C11 UNK     1      19.942  -3.602  35.721  1.00  0.00     0.262 C 
HETATM   15  O3  UNK     1      20.358  -4.167  34.712  1.00  0.00    -0.267 OA
HETATM   16  H1  UNK     1      19.502  -3.496  37.759  1.00  0.00     0.169 HD
BRANCH  14  17
HETATM   17  C7  UNK     1      19.408  -2.239  35.618  1.00  0.00     0.108 A 
HETATM   18  C13 UNK     1      18.816  -1.750  36.715  1.00  0.00     0.037 A 
HETATM   19  C12 UNK     1      18.256  -0.408  36.710  1.00  0.00    -0.001 A 
HETATM   20  C14 UNK     1      18.346   0.355  35.551  1.00  0.00     0.089 A 
HETATM   21  C18 UNK     1      17.630   0.141  37.832  1.00  0.00     0.014 A 
HETATM   22  O1  UNK     1      18.970  -0.164  34.399  1.00  0.00    -0.274 OA
HETATM   23  C20 UNK     1      17.829   1.647  35.480  1.00  0.00     0.038 A 
HETATM   24  C15 UNK     1      19.515  -1.445  34.373  1.00  0.00     0.304 A 
HETATM   25  O4  UNK     1      20.055  -1.888  33.365  1.00  0.00    -0.259 OA
HETATM   26  C22 UNK     1      17.206   2.187  36.603  1.00  0.00     0.003 A 
HETATM   27  C21 UNK     1      17.107   1.436  37.777  1.00  0.00     0.001 A 
ENDBRANCH  14  17
ENDBRANCH   5  13
BRANCH   3  28
HETATM   28  C8  UNK     1      18.427  -6.750  36.781  1.00  0.00     0.253 C 
HETATM   29  O2  UNK     1      17.367  -6.392  37.327  1.00  0.00    -0.268 OA
HETATM   30  N2  UNK     1      18.385  -7.355  35.528  1.00  0.00    -0.366 N 
HETATM   31  H15 UNK     1      19.225  -7.652  35.043  1.00  0.00     0.159 HD
HETATM   32  H16 UNK     1      17.501  -7.515  35.057  1.00  0.00     0.159 HD
ENDBRANCH   3  28
TORSDOF 3
ENDMDL
MODEL 3
REMARK VINA RESULT:     -10.0     17.100     21.665
REMARK  3 active torsions:
REMARK  status: ('A' for Active; 'I' for Inactive)
REMARK       I    between atoms: C11_18  and  N1_6 
REMARK    1  A    between atoms: C4_11  and  N1_6 
REMARK       I    between atoms: C8_15  and  N2_7 
REMARK    2  A    between atoms: C2_9  and  C8_15 
REMARK    3  A    between atoms: C11_18  and  C7_14 
ROOT
HETATM    1  S1  UNK     1      20.103  -4.619  14.855  1.00  0.00    -0.075 SA
HETATM    2  C1  UNK     1      19.959  -4.337  12.305  1.00  0.00     0.005 A 
HETATM    3  C2  UNK     1      19.824  -3.029  12.856  1.00  0.00     0.077 A 
HETATM    4  C3  UNK     1      20.118  -5.296  13.281  1.00  0.00    -0.007 A 
HETATM    5  C4  UNK     1      19.885  -3.061  14.212  1.00  0.00     0.094 A 
HETATM    6  C5  UNK     1      19.943  -4.698  10.909  1.00  0.00    -0.024 A 
HETATM    7  C6  UNK     1      20.290  -6.761  13.143  1.00  0.00     0.057 C 
HETATM    8  C9  UNK     1      21.133  -4.724  10.188  1.00  0.00     0.012 A 
HETATM    9  C10 UNK     1      18.737  -5.016  10.292  1.00  0.00     0.012 A 
HETATM   10  C16 UNK     1      21.117  -5.073   8.837  1.00  0.00     0.001 A 
HETATM   11  C17 UNK     1      18.721  -5.365   8.942  1.00  0.00     0.001 A 
HETATM   12  C19 UNK     1      19.911  -5.394   8.214  1.00  0.00     0.000 A 
ENDROOT
BRANCH   5  13
HETATM   13  N1  UNK     1      19.800  -2.025  15.148  1.00  0.00    -0.316 N 
HETATM   14  C11 UNK     1      18.701  -1.729  15.943  1.00  0.00     0.262 C 
HETATM   15  O3  UNK     1      17.611  -2.296  15.987  1.00  0.00    -0.267 OA
HETATM   16  H1  UNK     1      20.649  -1.473  15.237  1.00  0.00     0.169 HD
BRANCH  14  17
HETATM   17  C7  UNK     1      18.952  -0.575  16.814  1.00  0.00     0.108 A 
HETATM   18  C13 UNK     1      18.947  -0.815  18.131  1.00  0.00     0.037 A 
HETATM   19  C12 UNK     1      19.185   0.265  19.075  1.00  0.00    -0.001 A 
HETATM   20  C14 UNK     1      19.418   1.546  18.586  1.00  0.00     0.089 A 
HETATM   21  C18 UNK     1      19.188   0.059  20.457  1.00  0.00     0.014 A 
HETATM   22  O1  UNK     1      19.423   1.794  17.199  1.00  0.00    -0.274 OA
HETATM   23  C20 UNK     1      19.653   2.625  19.436  1.00  0.00     0.038 A 
HETATM   24  C15 UNK     1      19.198   0.780  16.272  1.00  0.00     0.304 A 
HETATM   25  O4  UNK     1      19.203   1.005  15.066  1.00  0.00    -0.259 OA
HETATM   26  C22 UNK     1      19.654   2.412  20.813  1.00  0.00     0.003 A 
HETATM   27  C21 UNK     1      19.422   1.132  21.322  1.00  0.00     0.001 A 
ENDBRANCH  14  17
ENDBRANCH   5  13
BRANCH   3  28
HETATM   28  C8  UNK     1      19.642  -1.814  12.100  1.00  0.00     0.253 C 
HETATM   29  O2  UNK     1      18.587  -1.153  12.119  1.00  0.00    -0.268 OA
HETATM   30  N2  UNK     1      20.719  -1.366  11.339  1.00  0.00    -0.366 N 
HETATM   31  H15 UNK     1      21.600  -1.868  11.304  1.00  0.00     0.159 HD
HETATM   32  H16 UNK     1      20.653  -0.514  10.794  1.00  0.00     0.159 HD
ENDBRANCH   3  28
TORSDOF 3
ENDMDL
MODEL 4
REMARK VINA RESULT:      -9.9      8.123     10.955
REMARK  3 active torsions:
REMARK  status: ('A' for Active; 'I' for Inactive)
REMARK       I    between atoms: C11_18  and  N1_6 
REMARK    1  A    between atoms: C4_11  and  N1_6 
REMARK       I    between atoms: C8_15  and  N2_7 
REMARK    2  A    between atoms: C2_9  and  C8_15 
REMARK    3  A    between atoms: C11_18  and  C7_14 
ROOT
HETATM    1  S1  UNK     1      28.607  -9.235  36.534  1.00  0.00    -0.075 SA
HETATM    2  C1  UNK     1      30.624  -7.675  36.857  1.00  0.00     0.005 A 
HETATM    3  C2  UNK     1      29.495  -6.973  37.373  1.00  0.00     0.077 A 
HETATM    4  C3  UNK     1      30.283  -8.917  36.370  1.00  0.00    -0.007 A 
HETATM    5  C4  UNK     1      28.362  -7.713  37.251  1.00  0.00     0.094 A 
HETATM    6  C5  UNK     1      31.989  -7.212  36.814  1.00  0.00    -0.024 A 
HETATM    7  C6  UNK     1      31.142  -9.957  35.755  1.00  0.00     0.057 C 
HETATM    8  C9  UNK     1      32.841  -7.471  37.883  1.00  0.00     0.012 A 
HETATM    9  C10 UNK     1      32.444  -6.508  35.703  1.00  0.00     0.012 A 
HETATM   10  C16 UNK     1      34.161  -7.023  37.841  1.00  0.00     0.001 A 
HETATM   11  C17 UNK     1      33.764  -6.060  35.661  1.00  0.00     0.001 A 
HETATM   12  C19 UNK     1      34.623  -6.317  36.729  1.00  0.00     0.000 A 
ENDROOT
BRANCH   5  13
HETATM   13  N1  UNK     1      27.045  -7.422  37.620  1.00  0.00    -0.316 N 
HETATM   14  C11 UNK     1      26.383  -7.907  38.739  1.00  0.00     0.262 C 
HETATM   15  O3  UNK     1      26.802  -8.669  39.608  1.00  0.00    -0.267 OA
HETATM   16  H1  UNK     1      26.569  -6.777  36.994  1.00  0.00     0.169 HD
BRANCH  14  17
HETATM   17  C7  UNK     1      25.008  -7.402  38.823  1.00  0.00     0.108 A 
HETATM   18  C13 UNK     1      24.045  -8.322  38.951  1.00  0.00     0.037 A 
HETATM   19  C12 UNK     1      22.651  -7.918  39.042  1.00  0.00    -0.001 A 
HETATM   20  C14 UNK     1      22.338  -6.564  38.994  1.00  0.00     0.089 A 
HETATM   21  C18 UNK     1      21.614  -8.845  39.177  1.00  0.00     0.014 A 
HETATM   22  O1  UNK     1      23.356  -5.598  38.858  1.00  0.00    -0.274 OA
HETATM   23  C20 UNK     1      21.023  -6.110  39.076  1.00  0.00     0.038 A 
HETATM   24  C15 UNK     1      24.698  -5.955  38.769  1.00  0.00     0.304 A 
HETATM   25  O4  UNK     1      25.577  -5.107  38.650  1.00  0.00    -0.259 OA
HETATM   26  C22 UNK     1      19.995  -7.042  39.209  1.00  0.00     0.003 A 
HETATM   27  C21 UNK     1      20.290  -8.406  39.260  1.00  0.00     0.001 A 
ENDBRANCH  14  17
ENDBRANCH   5  13
BRANCH   3  28
HETATM   28  C8  UNK     1      29.519  -5.652  37.951  1.00  0.00     0.253 C 
HETATM   29  O2  UNK     1      29.321  -5.437  39.162  1.00  0.00    -0.268 OA
HETATM   30  N2  UNK     1      29.799  -4.586  37.101  1.00  0.00    -0.366 N 
HETATM   31  H15 UNK     1      29.977  -4.718  36.111  1.00  0.00     0.159 HD
HETATM   32  H16 UNK     1      29.837  -3.636  37.453  1.00  0.00     0.159 HD
ENDBRANCH   3  28
TORSDOF 3
ENDMDL
MODEL 5
REMARK VINA RESULT:      -9.7     11.078     15.215
REMARK  3 active torsions:
REMARK  status: ('A' for Active; 'I' for Inactive)
REMARK       I    between atoms: C11_18  and  N1_6 
REMARK    1  A    between atoms: C4_11  and  N1_6 
REMARK       I    between atoms: C8_15  and  N2_7 
REMARK    2  A    between atoms: C2_9  and  C8_15 
REMARK    3  A    between atoms: C11_18  and  C7_14 
ROOT
HETATM    1  S1  UNK     1      19.361   8.687  34.113  1.00  0.00    -0.075 SA
HETATM    2  C1  UNK     1      18.570   6.908  32.435  1.00  0.00     0.005 A 
HETATM    3  C2  UNK     1      17.511   7.857  32.533  1.00  0.00     0.077 A 
HETATM    4  C3  UNK     1      19.637   7.238  33.241  1.00  0.00    -0.007 A 
HETATM    5  C4  UNK     1      17.825   8.852  33.403  1.00  0.00     0.094 A 
HETATM    6  C5  UNK     1      18.599   5.721  31.616  1.00  0.00    -0.024 A 
HETATM    7  C6  UNK     1      20.925   6.530  33.436  1.00  0.00     0.057 C 
HETATM    8  C9  UNK     1      19.100   5.789  30.319  1.00  0.00     0.012 A 
HETATM    9  C10 UNK     1      18.127   4.517  32.128  1.00  0.00     0.012 A 
HETATM   10  C16 UNK     1      19.129   4.641  29.527  1.00  0.00     0.001 A 
HETATM   11  C17 UNK     1      18.156   3.369  31.337  1.00  0.00     0.001 A 
HETATM   12  C19 UNK     1      18.657   3.430  30.036  1.00  0.00     0.000 A 
ENDROOT
BRANCH   5  13
HETATM   13  N1  UNK     1      17.092   9.976  33.799  1.00  0.00    -0.316 N 
HETATM   14  C11 UNK     1      16.087  10.001  34.756  1.00  0.00     0.262 C 
HETATM   15  O3  UNK     1      15.646   9.073  35.431  1.00  0.00    -0.267 OA
HETATM   16  H1  UNK     1      17.364  10.836  33.331  1.00  0.00     0.169 HD
BRANCH  14  17
HETATM   17  C7  UNK     1      15.526  11.347  34.923  1.00  0.00     0.108 A 
HETATM   18  C13 UNK     1      14.192  11.430  34.978  1.00  0.00     0.037 A 
HETATM   19  C12 UNK     1      13.542  12.721  35.142  1.00  0.00    -0.001 A 
HETATM   20  C14 UNK     1      14.330  13.862  35.242  1.00  0.00     0.089 A 
HETATM   21  C18 UNK     1      12.153  12.853  35.204  1.00  0.00     0.014 A 
HETATM   22  O1  UNK     1      15.735  13.770  35.184  1.00  0.00    -0.274 OA
HETATM   23  C20 UNK     1      13.771  15.129  35.400  1.00  0.00     0.038 A 
HETATM   24  C15 UNK     1      16.385  12.549  35.026  1.00  0.00     0.304 A 
HETATM   25  O4  UNK     1      17.608  12.478  34.976  1.00  0.00    -0.259 OA
HETATM   26  C22 UNK     1      12.385  15.252  35.460  1.00  0.00     0.003 A 
HETATM   27  C21 UNK     1      11.577  14.117  35.363  1.00  0.00     0.001 A 
ENDBRANCH  14  17
ENDBRANCH   5  13
BRANCH   3  28
HETATM   28  C8  UNK     1      16.259   7.797  31.819  1.00  0.00     0.253 C 
HETATM   29  O2  UNK     1      16.053   8.414  30.757  1.00  0.00    -0.268 OA
HETATM   30  N2  UNK     1      15.258   6.987  32.348  1.00  0.00    -0.366 N 
HETATM   31  H15 UNK     1      15.388   6.458  33.204  1.00  0.00     0.159 HD
HETATM   32  H16 UNK     1      14.360   6.899  31.885  1.00  0.00     0.159 HD
ENDBRANCH   3  28
TORSDOF 3
ENDMDL
MODEL 6
REMARK VINA RESULT:      -9.4     11.270     15.279
REMARK  3 active torsions:
REMARK  status: ('A' for Active; 'I' for Inactive)
REMARK       I    between atoms: C11_18  and  N1_6 
REMARK    1  A    between atoms: C4_11  and  N1_6 
REMARK       I    between atoms: C8_15  and  N2_7 
REMARK    2  A    between atoms: C2_9  and  C8_15 
REMARK    3  A    between atoms: C11_18  and  C7_14 
ROOT
HETATM    1  S1  UNK     1      18.355   8.034  35.020  1.00  0.00    -0.075 SA
HETATM    2  C1  UNK     1      18.086   6.676  32.855  1.00  0.00     0.005 A 
HETATM    3  C2  UNK     1      16.997   7.595  32.883  1.00  0.00     0.077 A 
HETATM    4  C3  UNK     1      18.903   6.807  33.957  1.00  0.00    -0.007 A 
HETATM    5  C4  UNK     1      17.040   8.370  33.997  1.00  0.00     0.094 A 
HETATM    6  C5  UNK     1      18.371   5.697  31.835  1.00  0.00    -0.024 A 
HETATM    7  C6  UNK     1      20.130   6.058  34.315  1.00  0.00     0.057 C 
HETATM    8  C9  UNK     1      19.177   6.040  30.754  1.00  0.00     0.012 A 
HETATM    9  C10 UNK     1      17.839   4.416  31.939  1.00  0.00     0.012 A 
HETATM   10  C16 UNK     1      19.453   5.093  29.767  1.00  0.00     0.001 A 
HETATM   11  C17 UNK     1      18.114   3.469  30.954  1.00  0.00     0.001 A 
HETATM   12  C19 UNK     1      18.921   3.807  29.867  1.00  0.00     0.000 A 
ENDROOT
BRANCH   5  13
HETATM   13  N1  UNK     1      16.183   9.390  34.426  1.00  0.00    -0.316 N 
HETATM   14  C11 UNK     1      16.393  10.753  34.272  1.00  0.00     0.262 C 
HETATM   15  O3  UNK     1      17.344  11.328  33.745  1.00  0.00    -0.267 OA
HETATM   16  H1  UNK     1      15.331   9.059  34.870  1.00  0.00     0.169 HD
BRANCH  14  17
HETATM   17  C7  UNK     1      15.295  11.543  34.839  1.00  0.00     0.108 A 
HETATM   18  C13 UNK     1      15.641  12.502  35.706  1.00  0.00     0.037 A 
HETATM   19  C12 UNK     1      14.623  13.338  36.322  1.00  0.00    -0.001 A 
HETATM   20  C14 UNK     1      13.288  13.123  35.994  1.00  0.00     0.089 A 
HETATM   21  C18 UNK     1      14.940  14.350  37.231  1.00  0.00     0.014 A 
HETATM   22  O1  UNK     1      12.928  12.112  35.081  1.00  0.00    -0.274 OA
HETATM   23  C20 UNK     1      12.264  13.888  36.549  1.00  0.00     0.038 A 
HETATM   24  C15 UNK     1      13.881  11.297  34.476  1.00  0.00     0.304 A 
HETATM   25  O4  UNK     1      13.558  10.419  33.683  1.00  0.00    -0.259 OA
HETATM   26  C22 UNK     1      12.588  14.895  37.456  1.00  0.00     0.003 A 
HETATM   27  C21 UNK     1      13.923  15.126  37.796  1.00  0.00     0.001 A 
ENDBRANCH  14  17
ENDBRANCH   5  13
BRANCH   3  28
HETATM   28  C8  UNK     1      15.968   7.709  31.879  1.00  0.00     0.253 C 
HETATM   29  O2  UNK     1      16.096   8.398  30.850  1.00  0.00    -0.268 OA
HETATM   30  N2  UNK     1      14.795   6.987  32.080  1.00  0.00    -0.366 N 
HETATM   31  H15 UNK     1      14.653   6.404  32.898  1.00  0.00     0.159 HD
HETATM   32  H16 UNK     1      14.039   7.022  31.404  1.00  0.00     0.159 HD
ENDBRANCH   3  28
TORSDOF 3
ENDMDL
MODEL 7
REMARK VINA RESULT:      -9.4     17.673     21.544
REMARK  3 active torsions:
REMARK  status: ('A' for Active; 'I' for Inactive)
REMARK       I    between atoms: C11_18  and  N1_6 
REMARK    1  A    between atoms: C4_11  and  N1_6 
REMARK       I    between atoms: C8_15  and  N2_7 
REMARK    2  A    between atoms: C2_9  and  C8_15 
REMARK    3  A    between atoms: C11_18  and  C7_14 
ROOT
HETATM    1  S1  UNK     1      17.575  -5.515  15.128  1.00  0.00    -0.075 SA
HETATM    2  C1  UNK     1      18.289  -5.963  12.700  1.00  0.00     0.005 A 
HETATM    3  C2  UNK     1      18.627  -4.604  12.968  1.00  0.00     0.077 A 
HETATM    4  C3  UNK     1      17.710  -6.576  13.790  1.00  0.00    -0.007 A 
HETATM    5  C4  UNK     1      18.289  -4.257  14.236  1.00  0.00     0.094 A 
HETATM    6  C5  UNK     1      18.495  -6.683  11.468  1.00  0.00    -0.024 A 
HETATM    7  C6  UNK     1      17.216  -7.966  13.936  1.00  0.00     0.057 C 
HETATM    8  C9  UNK     1      19.684  -7.375  11.262  1.00  0.00     0.012 A 
HETATM    9  C10 UNK     1      17.502  -6.681  10.493  1.00  0.00     0.012 A 
HETATM   10  C16 UNK     1      19.883  -8.072  10.070  1.00  0.00     0.001 A 
HETATM   11  C17 UNK     1      17.700  -7.377   9.301  1.00  0.00     0.001 A 
HETATM   12  C19 UNK     1      18.890  -8.073   9.089  1.00  0.00     0.000 A 
ENDROOT
BRANCH   5  13
HETATM   13  N1  UNK     1      18.437  -3.042  14.914  1.00  0.00    -0.316 N 
HETATM   14  C11 UNK     1      19.480  -2.702  15.765  1.00  0.00     0.262 C 
HETATM   15  O3  UNK     1      20.456  -3.376  16.090  1.00  0.00    -0.267 OA
HETATM   16  H1  UNK     1      17.702  -2.366  14.724  1.00  0.00     0.169 HD
BRANCH  14  17
HETATM   17  C7  UNK     1      19.322  -1.349  16.309  1.00  0.00     0.108 A 
HETATM   18  C13 UNK     1      19.176  -1.257  17.636  1.00  0.00     0.037 A 
HETATM   19  C12 UNK     1      19.013   0.042  18.269  1.00  0.00    -0.001 A 
HETATM   20  C14 UNK     1      19.013   1.183  17.473  1.00  0.00     0.089 A 
HETATM   21  C18 UNK     1      18.857   0.183  19.650  1.00  0.00     0.014 A 
HETATM   22  O1  UNK     1      19.167   1.081  16.076  1.00  0.00    -0.274 OA
HETATM   23  C20 UNK     1      18.861   2.457  18.016  1.00  0.00     0.038 A 
HETATM   24  C15 UNK     1      19.325  -0.149  15.442  1.00  0.00     0.304 A 
HETATM   25  O4  UNK     1      19.458  -0.227  14.226  1.00  0.00    -0.259 OA
HETATM   26  C22 UNK     1      18.705   2.590  19.394  1.00  0.00     0.003 A 
HETATM   27  C21 UNK     1      18.704   1.455  20.209  1.00  0.00     0.001 A 
ENDBRANCH  14  17
ENDBRANCH   5  13
BRANCH   3  28
HETATM   28  C8  UNK     1      19.245  -3.693  12.036  1.00  0.00     0.253 C 
HETATM   29  O2  UNK     1      18.652  -3.230  11.044  1.00  0.00    -0.268 OA
HETATM   30  N2  UNK     1      20.559  -3.310  12.290  1.00  0.00    -0.366 N 
HETATM   31  H15 UNK     1      21.075  -3.654  13.093  1.00  0.00     0.159 HD
HETATM   32  H16 UNK     1      21.042  -2.665  11.674  1.00  0.00     0.159 HD
ENDBRANCH   3  28
TORSDOF 3
ENDMDL
MODEL 8
REMARK VINA RESULT:      -9.4      8.654     14.173
REMARK  3 active torsions:
REMARK  status: ('A' for Active; 'I' for Inactive)
REMARK       I    between atoms: C11_18  and  N1_6 
REMARK    1  A    between atoms: C4_11  and  N1_6 
REMARK       I    between atoms: C8_15  and  N2_7 
REMARK    2  A    between atoms: C2_9  and  C8_15 
REMARK    3  A    between atoms: C11_18  and  C7_14 
ROOT
HETATM    1  S1  UNK     1      18.291   8.649  33.576  1.00  0.00    -0.075 SA
HETATM    2  C1  UNK     1      15.871   9.511  33.635  1.00  0.00     0.005 A 
HETATM    3  C2  UNK     1      15.790   8.130  33.292  1.00  0.00     0.077 A 
HETATM    4  C3  UNK     1      17.173   9.924  33.818  1.00  0.00    -0.007 A 
HETATM    5  C4  UNK     1      17.026   7.568  33.231  1.00  0.00     0.094 A 
HETATM    6  C5  UNK     1      14.773  10.433  33.791  1.00  0.00    -0.024 A 
HETATM    7  C6  UNK     1      17.694  11.263  34.179  1.00  0.00     0.057 C 
HETATM    8  C9  UNK     1      14.173  10.588  35.037  1.00  0.00     0.012 A 
HETATM    9  C10 UNK     1      14.321  11.161  32.695  1.00  0.00     0.012 A 
HETATM   10  C16 UNK     1      13.111  11.480  35.188  1.00  0.00     0.001 A 
HETATM   11  C17 UNK     1      13.260  12.053  32.846  1.00  0.00     0.001 A 
HETATM   12  C19 UNK     1      12.654  12.213  34.092  1.00  0.00     0.000 A 
ENDROOT
BRANCH   5  13
HETATM   13  N1  UNK     1      17.412   6.257  32.935  1.00  0.00    -0.316 N 
HETATM   14  C11 UNK     1      17.999   5.824  31.754  1.00  0.00     0.262 C 
HETATM   15  O3  UNK     1      18.291   6.481  30.757  1.00  0.00    -0.267 OA
HETATM   16  H1  UNK     1      17.246   5.594  33.687  1.00  0.00     0.169 HD
BRANCH  14  17
HETATM   17  C7  UNK     1      18.274   4.383  31.777  1.00  0.00     0.108 A 
HETATM   18  C13 UNK     1      18.525   3.809  30.595  1.00  0.00     0.037 A 
HETATM   19  C12 UNK     1      18.808   2.385  30.515  1.00  0.00    -0.001 A 
HETATM   20  C14 UNK     1      18.815   1.633  31.685  1.00  0.00     0.089 A 
HETATM   21  C18 UNK     1      19.075   1.745  29.302  1.00  0.00     0.014 A 
HETATM   22  O1  UNK     1      18.551   2.242  32.929  1.00  0.00    -0.274 OA
HETATM   23  C20 UNK     1      19.079   0.265  31.679  1.00  0.00     0.038 A 
HETATM   24  C15 UNK     1      18.275   3.603  33.035  1.00  0.00     0.304 A 
HETATM   25  O4  UNK     1      18.046   4.124  34.122  1.00  0.00    -0.259 OA
HETATM   26  C22 UNK     1      19.343  -0.365  30.464  1.00  0.00     0.003 A 
HETATM   27  C21 UNK     1      19.342   0.373  29.279  1.00  0.00     0.001 A 
ENDBRANCH  14  17
ENDBRANCH   5  13
BRANCH   3  28
HETATM   28  C8  UNK     1      14.575   7.397  33.035  1.00  0.00     0.253 C 
HETATM   29  O2  UNK     1      14.266   6.967  31.908  1.00  0.00    -0.268 OA
HETATM   30  N2  UNK     1      13.734   7.153  34.117  1.00  0.00    -0.366 N 
HETATM   31  H15 UNK     1      13.952   7.477  35.054  1.00  0.00     0.159 HD
HETATM   32  H16 UNK     1      12.869   6.637  33.999  1.00  0.00     0.159 HD
ENDBRANCH   3  28
TORSDOF 3
ENDMDL
MODEL 9
REMARK VINA RESULT:      -9.4     11.502     15.373
REMARK  3 active torsions:
REMARK  status: ('A' for Active; 'I' for Inactive)
REMARK       I    between atoms: C11_18  and  N1_6 
REMARK    1  A    between atoms: C4_11  and  N1_6 
REMARK       I    between atoms: C8_15  and  N2_7 
REMARK    2  A    between atoms: C2_9  and  C8_15 
REMARK    3  A    between atoms: C11_18  and  C7_14 
ROOT
HETATM    1  S1  UNK     1      17.512   8.056  35.276  1.00  0.00    -0.075 SA
HETATM    2  C1  UNK     1      17.715   6.856  33.013  1.00  0.00     0.005 A 
HETATM    3  C2  UNK     1      16.566   7.695  32.914  1.00  0.00     0.077 A 
HETATM    4  C3  UNK     1      18.324   6.956  34.244  1.00  0.00    -0.007 A 
HETATM    5  C4  UNK     1      16.362   8.383  34.067  1.00  0.00     0.094 A 
HETATM    6  C5  UNK     1      18.242   5.981  31.995  1.00  0.00    -0.024 A 
HETATM    7  C6  UNK     1      19.530   6.264  34.758  1.00  0.00     0.057 C 
HETATM    8  C9  UNK     1      19.186   6.460  31.092  1.00  0.00     0.012 A 
HETATM    9  C10 UNK     1      17.802   4.663  31.922  1.00  0.00     0.012 A 
HETATM   10  C16 UNK     1      19.696   5.614  30.108  1.00  0.00     0.001 A 
HETATM   11  C17 UNK     1      18.311   3.816  30.938  1.00  0.00     0.001 A 
HETATM   12  C19 UNK     1      19.258   4.291  30.030  1.00  0.00     0.000 A 
ENDROOT
BRANCH   5  13
HETATM   13  N1  UNK     1      15.369   9.306  34.409  1.00  0.00    -0.316 N 
HETATM   14  C11 UNK     1      15.391  10.668  34.141  1.00  0.00     0.262 C 
HETATM   15  O3  UNK     1      16.260  11.323  33.569  1.00  0.00    -0.267 OA
HETATM   16  H1  UNK     1      14.565   8.899  34.879  1.00  0.00     0.169 HD
BRANCH  14  17
HETATM   17  C7  UNK     1      14.188  11.343  34.640  1.00  0.00     0.108 A 
HETATM   18  C13 UNK     1      13.387  11.885  33.715  1.00  0.00     0.037 A 
HETATM   19  C12 UNK     1      12.170  12.576  34.112  1.00  0.00    -0.001 A 
HETATM   20  C14 UNK     1      11.855  12.662  35.464  1.00  0.00     0.089 A 
HETATM   21  C18 UNK     1      11.306  13.156  33.180  1.00  0.00     0.014 A 
HETATM   22  O1  UNK     1      12.702  12.089  36.434  1.00  0.00    -0.274 OA
HETATM   23  C20 UNK     1      10.705  13.309  35.911  1.00  0.00     0.038 A 
HETATM   24  C15 UNK     1      13.873  11.422  36.084  1.00  0.00     0.304 A 
HETATM   25  O4  UNK     1      14.604  10.927  36.936  1.00  0.00    -0.259 OA
HETATM   26  C22 UNK     1       9.849  13.886  34.975  1.00  0.00     0.003 A 
HETATM   27  C21 UNK     1      10.148  13.810  33.613  1.00  0.00     0.001 A 
ENDBRANCH  14  17
ENDBRANCH   5  13
BRANCH   3  28
HETATM   28  C8  UNK     1      15.713   7.818  31.758  1.00  0.00     0.253 C 
HETATM   29  O2  UNK     1      16.037   8.456  30.739  1.00  0.00    -0.268 OA
HETATM   30  N2  UNK     1      14.484   7.166  31.797  1.00  0.00    -0.366 N 
HETATM   31  H15 UNK     1      14.185   6.626  32.603  1.00  0.00     0.159 HD
HETATM   32  H16 UNK     1      13.845   7.210  31.011  1.00  0.00     0.159 HD
ENDBRANCH   3  28
TORSDOF 3
ENDMDL
MODEL 10
REMARK VINA RESULT:      -9.2      2.517      9.006
REMARK  3 active torsions:
REMARK  status: ('A' for Active; 'I' for Inactive)
REMARK       I    between atoms: C11_18  and  N1_6 
REMARK    1  A    between atoms: C4_11  and  N1_6 
REMARK       I    between atoms: C8_15  and  N2_7 
REMARK    2  A    between atoms: C2_9  and  C8_15 
REMARK    3  A    between atoms: C11_18  and  C7_14 
ROOT
HETATM    1  S1  UNK     1      17.153  -1.916  37.533  1.00  0.00    -0.075 SA
HETATM    2  C1  UNK     1      18.231  -0.154  36.005  1.00  0.00     0.005 A 
HETATM    3  C2  UNK     1      18.905  -1.380  35.731  1.00  0.00     0.077 A 
HETATM    4  C3  UNK     1      17.255  -0.303  36.964  1.00  0.00    -0.007 A 
HETATM    5  C4  UNK     1      18.411  -2.390  36.493  1.00  0.00     0.094 A 
HETATM    6  C5  UNK     1      18.481   1.129  35.395  1.00  0.00    -0.024 A 
HETATM    7  C6  UNK     1      16.331   0.707  37.534  1.00  0.00     0.057 C 
HETATM    8  C9  UNK     1      17.793   1.491  34.241  1.00  0.00     0.012 A 
HETATM    9  C10 UNK     1      19.408   1.995  35.965  1.00  0.00     0.012 A 
HETATM   10  C16 UNK     1      18.034   2.733  33.652  1.00  0.00     0.001 A 
HETATM   11  C17 UNK     1      19.650   3.236  35.376  1.00  0.00     0.001 A 
HETATM   12  C19 UNK     1      18.963   3.606  34.219  1.00  0.00     0.000 A 
ENDROOT
BRANCH   5  13
HETATM   13  N1  UNK     1      18.769  -3.741  36.551  1.00  0.00    -0.316 N 
HETATM   14  C11 UNK     1      19.916  -4.258  37.137  1.00  0.00     0.262 C 
HETATM   15  O3  UNK     1      20.825  -3.657  37.706  1.00  0.00    -0.267 OA
HETATM   16  H1  UNK     1      18.091  -4.371  36.130  1.00  0.00     0.169 HD
BRANCH  14  17
HETATM   17  C7  UNK     1      19.979  -5.720  37.017  1.00  0.00     0.108 A 
HETATM   18  C13 UNK     1      19.845  -6.413  38.154  1.00  0.00     0.037 A 
HETATM   19  C12 UNK     1      19.894  -7.867  38.137  1.00  0.00    -0.001 A 
HETATM   20  C14 UNK     1      20.082  -8.519  36.923  1.00  0.00     0.089 A 
HETATM   21  C18 UNK     1      19.759  -8.629  39.300  1.00  0.00     0.014 A 
HETATM   22  O1  UNK     1      20.223  -7.785  35.729  1.00  0.00    -0.274 OA
HETATM   23  C20 UNK     1      20.139  -9.909  36.838  1.00  0.00     0.038 A 
HETATM   24  C15 UNK     1      20.180  -6.393  35.714  1.00  0.00     0.304 A 
HETATM   25  O4  UNK     1      20.304  -5.762  34.670  1.00  0.00    -0.259 OA
HETATM   26  C22 UNK     1      20.004 -10.663  38.002  1.00  0.00     0.003 A 
HETATM   27  C21 UNK     1      19.813 -10.024  39.230  1.00  0.00     0.001 A 
ENDBRANCH  14  17
ENDBRANCH   5  13
BRANCH   3  28
HETATM   28  C8  UNK     1      19.976  -1.557  34.781  1.00  0.00     0.253 C 
HETATM   29  O2  UNK     1      19.799  -1.537  33.548  1.00  0.00    -0.268 OA
HETATM   30  N2  UNK     1      21.260  -1.735  35.288  1.00  0.00    -0.366 N 
HETATM   31  H15 UNK     1      21.449  -1.747  36.285  1.00  0.00     0.159 HD
HETATM   32  H16 UNK     1      22.053  -1.856  34.668  1.00  0.00     0.159 HD
ENDBRANCH   3  28
TORSDOF 3
ENDMDL
