MODEL 1
REMARK VINA RESULT:      -9.8      0.000      0.000
REMARK  3 active torsions:
REMARK  status: ('A' for Active; 'I' for Inactive)
REMARK    1  A    between atoms: C14_21  and  N1_6 
REMARK    2  A    between atoms: C17_24  and  N2_7 
REMARK       I    between atoms: C22_29  and  N2_7 
REMARK    3  A    between atoms: C11_18  and  C4_11 
ROOT
HETATM    1  O1  UNK     1      17.655   4.159  31.511  1.00  0.00    -0.332 OA
HETATM    2  O2  UNK     1      19.746  -0.234  31.628  1.00  0.00    -0.274 OA
HETATM    3  O3  UNK     1      18.441   3.483  34.968  1.00  0.00    -0.289 OA
HETATM    4  O4  UNK     1      20.798  -2.269  31.618  1.00  0.00    -0.260 OA
HETATM    5  C1  UNK     1      18.197   4.504  32.786  1.00  0.00     0.125 C 
HETATM    6  C2  UNK     1      18.617   1.924  31.653  1.00  0.00     0.048 A 
HETATM    7  C3  UNK     1      18.363   3.326  33.752  1.00  0.00     0.196 C 
HETATM    8  C4  UNK     1      18.460   1.979  33.115  1.00  0.00     0.044 C 
HETATM    9  C5  UNK     1      18.173   3.034  30.922  1.00  0.00     0.084 A 
HETATM   10  C6  UNK     1      19.553   5.199  32.598  1.00  0.00     0.055 C 
HETATM   11  C7  UNK     1      17.201   5.499  33.395  1.00  0.00     0.055 C 
HETATM   12  C8  UNK     1      19.186   0.862  30.927  1.00  0.00     0.103 A 
HETATM   13  C9  UNK     1      19.250   0.868  29.529  1.00  0.00    -0.001 A 
HETATM   14  C10 UNK     1      18.208   3.043  29.523  1.00  0.00     0.039 A 
HETATM   15  C12 UNK     1      18.742   1.961  28.829  1.00  0.00     0.017 A 
HETATM   16  C13 UNK     1      19.845  -0.264  28.836  1.00  0.00     0.020 A 
HETATM   17  C15 UNK     1      20.349  -1.293  29.521  1.00  0.00     0.083 A 
HETATM   18  C16 UNK     1      20.327  -1.326  30.992  1.00  0.00     0.288 A 
ENDROOT
BRANCH   8  19
HETATM   19  C11 UNK     1      18.276   0.918  33.917  1.00  0.00     0.104 C 
HETATM   20  N1  UNK     1      19.201   0.283  34.673  1.00  0.00    -0.363 N 
HETATM   21  H11 UNK     1      20.127   0.690  34.682  1.00  0.00     0.165 HD
BRANCH  20  22
HETATM   22  C14 UNK     1      19.034  -0.829  35.519  1.00  0.00     0.059 A 
HETATM   23  C17 UNK     1      18.037  -0.849  36.499  1.00  0.00     0.061 A 
HETATM   24  C19 UNK     1      17.890  -1.962  37.326  1.00  0.00     0.032 A 
HETATM   25  C21 UNK     1      18.739  -3.058  37.179  1.00  0.00     0.002 A 
HETATM   26  C20 UNK     1      19.735  -3.043  36.203  1.00  0.00     0.002 A 
HETATM   27  C18 UNK     1      19.883  -1.929  35.375  1.00  0.00     0.032 A 
BRANCH  23  28
HETATM   28  N2  UNK     1      17.175   0.238  36.665  1.00  0.00    -0.326 N 
HETATM   29  C22 UNK     1      17.173   1.189  37.693  1.00  0.00     0.218 C 
HETATM   30  C23 UNK     1      16.076   2.207  37.508  1.00  0.00     0.117 C 
HETATM   31  O5  UNK     1      17.935   1.253  38.652  1.00  0.00    -0.274 OA
HETATM   32  H16 UNK     1      16.450   0.344  35.961  1.00  0.00     0.169 HD
ENDBRANCH  23  28
ENDBRANCH  20  22
ENDBRANCH   8  19
TORSDOF 3
ENDMDL
MODEL 2
REMARK VINA RESULT:      -9.5     12.379     14.987
REMARK  3 active torsions:
REMARK  status: ('A' for Active; 'I' for Inactive)
REMARK    1  A    between atoms: C14_21  and  N1_6 
REMARK    2  A    between atoms: C17_24  and  N2_7 
REMARK       I    between atoms: C22_29  and  N2_7 
REMARK    3  A    between atoms: C11_18  and  C4_11 
ROOT
HETATM    1  O1  UNK     1      27.542  -6.813  38.989  1.00  0.00    -0.332 OA
HETATM    2  O2  UNK     1      30.523  -5.884  35.257  1.00  0.00    -0.274 OA
HETATM    3  O3  UNK     1      26.776  -9.240  36.430  1.00  0.00    -0.289 OA
HETATM    4  O4  UNK     1      32.004  -5.457  33.562  1.00  0.00    -0.260 OA
HETATM    5  C1  UNK     1      27.294  -8.141  38.524  1.00  0.00     0.125 C 
HETATM    6  C2  UNK     1      28.935  -6.340  37.046  1.00  0.00     0.048 A 
HETATM    7  C3  UNK     1      27.327  -8.302  37.001  1.00  0.00     0.196 C 
HETATM    8  C4  UNK     1      28.103  -7.264  36.259  1.00  0.00     0.044 C 
HETATM    9  C5  UNK     1      28.581  -6.150  38.388  1.00  0.00     0.084 A 
HETATM   10  C6  UNK     1      28.306  -9.105  39.157  1.00  0.00     0.055 C 
HETATM   11  C7  UNK     1      25.886  -8.490  39.022  1.00  0.00     0.055 C 
HETATM   12  C8  UNK     1      30.062  -5.644  36.574  1.00  0.00     0.103 A 
HETATM   13  C9  UNK     1      30.768  -4.742  37.377  1.00  0.00    -0.001 A 
HETATM   14  C10 UNK     1      29.262  -5.232  39.196  1.00  0.00     0.039 A 
HETATM   15  C12 UNK     1      30.352  -4.528  38.690  1.00  0.00     0.017 A 
HETATM   16  C13 UNK     1      31.922  -4.047  36.828  1.00  0.00     0.020 A 
HETATM   17  C15 UNK     1      32.324  -4.280  35.577  1.00  0.00     0.083 A 
HETATM   18  C16 UNK     1      31.627  -5.241  34.708  1.00  0.00     0.288 A 
ENDROOT
BRANCH   8  19
HETATM   19  C11 UNK     1      27.888  -7.179  34.936  1.00  0.00     0.104 C 
HETATM   20  N1  UNK     1      28.421  -7.949  33.961  1.00  0.00    -0.363 N 
HETATM   21  H11 UNK     1      29.006  -8.716  34.266  1.00  0.00     0.165 HD
BRANCH  20  22
HETATM   22  C14 UNK     1      28.212  -7.880  32.571  1.00  0.00     0.059 A 
HETATM   23  C17 UNK     1      28.541  -8.952  31.736  1.00  0.00     0.061 A 
HETATM   24  C19 UNK     1      28.324  -8.862  30.361  1.00  0.00     0.032 A 
HETATM   25  C21 UNK     1      27.779  -7.700  29.816  1.00  0.00     0.002 A 
HETATM   26  C20 UNK     1      27.449  -6.629  30.644  1.00  0.00     0.002 A 
HETATM   27  C18 UNK     1      27.666  -6.718  32.020  1.00  0.00     0.032 A 
BRANCH  23  28
HETATM   28  N2  UNK     1      29.088 -10.126  32.261  1.00  0.00    -0.326 N 
HETATM   29  C22 UNK     1      30.413 -10.571  32.180  1.00  0.00     0.218 C 
HETATM   30  C23 UNK     1      30.600 -11.894  32.879  1.00  0.00     0.117 C 
HETATM   31  O5  UNK     1      31.357 -10.012  31.630  1.00  0.00    -0.274 OA
HETATM   32  H16 UNK     1      28.442 -10.739  32.749  1.00  0.00     0.169 HD
ENDBRANCH  23  28
ENDBRANCH  20  22
ENDBRANCH   8  19
TORSDOF 3
ENDMDL
MODEL 3
REMARK VINA RESULT:      -9.3     24.692     26.436
REMARK  3 active torsions:
REMARK  status: ('A' for Active; 'I' for Inactive)
REMARK    1  A    between atoms: C14_21  and  N1_6 
REMARK    2  A    between atoms: C17_24  and  N2_7 
REMARK       I    between atoms: C22_29  and  N2_7 
REMARK    3  A    between atoms: C11_18  and  C4_11 
ROOT
HETATM    1  O1  UNK     1       8.866   9.856  11.185  1.00  0.00    -0.332 OA
HETATM    2  O2  UNK     1      11.092   7.585   7.501  1.00  0.00    -0.274 OA
HETATM    3  O3  UNK     1      12.049  11.498  10.734  1.00  0.00    -0.289 OA
HETATM    4  O4  UNK     1      12.061   6.537   5.709  1.00  0.00    -0.260 OA
HETATM    5  C1  UNK     1       9.698  11.009  11.040  1.00  0.00     0.125 C 
HETATM    6  C2  UNK     1      10.079   8.700   9.414  1.00  0.00     0.048 A 
HETATM    7  C3  UNK     1      11.120  10.715  10.551  1.00  0.00     0.196 C 
HETATM    8  C4  UNK     1      11.293   9.434   9.804  1.00  0.00     0.044 C 
HETATM    9  C5  UNK     1       8.919   8.945  10.161  1.00  0.00     0.084 A 
HETATM   10  C6  UNK     1       9.031  12.008  10.086  1.00  0.00     0.055 C 
HETATM   11  C7  UNK     1       9.781  11.627  12.441  1.00  0.00     0.055 C 
HETATM   12  C8  UNK     1       9.977   7.787   8.350  1.00  0.00     0.103 A 
HETATM   13  C9  UNK     1       8.793   7.091   8.079  1.00  0.00    -0.001 A 
HETATM   14  C10 UNK     1       7.736   8.239   9.917  1.00  0.00     0.039 A 
HETATM   15  C12 UNK     1       7.674   7.312   8.880  1.00  0.00     0.017 A 
HETATM   16  C13 UNK     1       8.754   6.153   6.967  1.00  0.00     0.020 A 
HETATM   17  C15 UNK     1       9.826   5.971   6.194  1.00  0.00     0.083 A 
HETATM   18  C16 UNK     1      11.081   6.702   6.427  1.00  0.00     0.288 A 
ENDROOT
BRANCH   8  19
HETATM   19  C11 UNK     1      12.551   8.990   9.651  1.00  0.00     0.104 C 
HETATM   20  N1  UNK     1      13.453   8.711  10.619  1.00  0.00    -0.363 N 
HETATM   21  H11 UNK     1      13.124   8.790  11.573  1.00  0.00     0.165 HD
BRANCH  20  22
HETATM   22  C14 UNK     1      14.774   8.246  10.485  1.00  0.00     0.059 A 
HETATM   23  C17 UNK     1      15.042   6.929  10.101  1.00  0.00     0.061 A 
HETATM   24  C19 UNK     1      16.360   6.490   9.974  1.00  0.00     0.032 A 
HETATM   25  C21 UNK     1      17.415   7.365  10.232  1.00  0.00     0.002 A 
HETATM   26  C20 UNK     1      17.153   8.680  10.615  1.00  0.00     0.002 A 
HETATM   27  C18 UNK     1      15.835   9.120  10.743  1.00  0.00     0.032 A 
BRANCH  23  28
HETATM   28  N2  UNK     1      14.001   6.035   9.837  1.00  0.00    -0.326 N 
HETATM   29  C22 UNK     1      13.734   5.350   8.645  1.00  0.00     0.218 C 
HETATM   30  C23 UNK     1      12.512   4.475   8.767  1.00  0.00     0.117 C 
HETATM   31  O5  UNK     1      14.368   5.401   7.596  1.00  0.00    -0.274 OA
HETATM   32  H16 UNK     1      13.349   5.873  10.599  1.00  0.00     0.169 HD
ENDBRANCH  23  28
ENDBRANCH  20  22
ENDBRANCH   8  19
TORSDOF 3
ENDMDL
MODEL 4
REMARK VINA RESULT:      -9.3      2.638      6.437
REMARK  3 active torsions:
REMARK  status: ('A' for Active; 'I' for Inactive)
REMARK    1  A    between atoms: C14_21  and  N1_6 
REMARK    2  A    between atoms: C17_24  and  N2_7 
REMARK       I    between atoms: C22_29  and  N2_7 
REMARK    3  A    between atoms: C11_18  and  C4_11 
ROOT
HETATM    1  O1  UNK     1      18.252  -0.401  35.098  1.00  0.00    -0.332 OA
HETATM    2  O2  UNK     1      18.529   2.853  31.490  1.00  0.00    -0.274 OA
HETATM    3  O3  UNK     1      17.014   2.718  36.427  1.00  0.00    -0.289 OA
HETATM    4  O4  UNK     1      18.602   4.324  29.736  1.00  0.00    -0.260 OA
HETATM    5  C1  UNK     1      17.303   0.395  35.809  1.00  0.00     0.125 C 
HETATM    6  C2  UNK     1      18.457   1.302  33.366  1.00  0.00     0.048 A 
HETATM    7  C3  UNK     1      17.468   1.907  35.623  1.00  0.00     0.196 C 
HETATM    8  C4  UNK     1      18.186   2.330  34.384  1.00  0.00     0.044 C 
HETATM    9  C5  UNK     1      18.497  -0.030  33.801  1.00  0.00     0.084 A 
HETATM   10  C6  UNK     1      15.881  -0.012  35.399  1.00  0.00     0.055 C 
HETATM   11  C7  UNK     1      17.517   0.057  37.289  1.00  0.00     0.055 C 
HETATM   12  C8  UNK     1      18.665   1.537  31.996  1.00  0.00     0.103 A 
HETATM   13  C9  UNK     1      18.969   0.504  31.102  1.00  0.00    -0.001 A 
HETATM   14  C10 UNK     1      18.826  -1.070  32.924  1.00  0.00     0.039 A 
HETATM   15  C12 UNK     1      19.064  -0.803  31.578  1.00  0.00     0.017 A 
HETATM   16  C13 UNK     1      19.180   0.814  29.697  1.00  0.00     0.020 A 
HETATM   17  C15 UNK     1      19.063   2.066  29.251  1.00  0.00     0.083 A 
HETATM   18  C16 UNK     1      18.717   3.177  30.151  1.00  0.00     0.288 A 
ENDROOT
BRANCH   8  19
HETATM   19  C11 UNK     1      18.634   3.595  34.348  1.00  0.00     0.104 C 
HETATM   20  N1  UNK     1      17.989   4.687  33.879  1.00  0.00    -0.363 N 
HETATM   21  H11 UNK     1      17.035   4.546  33.573  1.00  0.00     0.165 HD
BRANCH  20  22
HETATM   22  C14 UNK     1      18.435   6.021  33.830  1.00  0.00     0.059 A 
HETATM   23  C17 UNK     1      17.585   7.054  33.423  1.00  0.00     0.061 A 
HETATM   24  C19 UNK     1      18.049   8.368  33.383  1.00  0.00     0.032 A 
HETATM   25  C21 UNK     1      19.364   8.655  33.747  1.00  0.00     0.002 A 
HETATM   26  C20 UNK     1      20.216   7.629  34.153  1.00  0.00     0.002 A 
HETATM   27  C18 UNK     1      19.752   6.313  34.193  1.00  0.00     0.032 A 
BRANCH  23  28
HETATM   28  N2  UNK     1      16.263   6.789  33.055  1.00  0.00    -0.326 N 
HETATM   29  C22 UNK     1      15.525   7.371  32.017  1.00  0.00     0.218 C 
HETATM   30  C23 UNK     1      14.127   6.811  31.946  1.00  0.00     0.117 C 
HETATM   31  O5  UNK     1      15.899   8.230  31.224  1.00  0.00    -0.274 OA
HETATM   32  H16 UNK     1      15.773   6.101  33.618  1.00  0.00     0.169 HD
ENDBRANCH  23  28
ENDBRANCH  20  22
ENDBRANCH   8  19
TORSDOF 3
ENDMDL
MODEL 5
REMARK VINA RESULT:      -9.2     12.717     15.742
REMARK  3 active torsions:
REMARK  status: ('A' for Active; 'I' for Inactive)
REMARK    1  A    between atoms: C14_21  and  N1_6 
REMARK    2  A    between atoms: C17_24  and  N2_7 
REMARK       I    between atoms: C22_29  and  N2_7 
REMARK    3  A    between atoms: C11_18  and  C4_11 
ROOT
HETATM    1  O1  UNK     1      32.283  -4.593  36.980  1.00  0.00    -0.332 OA
HETATM    2  O2  UNK     1      32.576  -7.190  32.875  1.00  0.00    -0.274 OA
HETATM    3  O3  UNK     1      29.071  -6.176  36.530  1.00  0.00    -0.289 OA
HETATM    4  O4  UNK     1      32.793  -8.462  30.982  1.00  0.00    -0.260 OA
HETATM    5  C1  UNK     1      31.159  -5.347  37.434  1.00  0.00     0.125 C 
HETATM    6  C2  UNK     1      32.330  -5.833  34.882  1.00  0.00     0.048 A 
HETATM    7  C3  UNK     1      30.240  -5.861  36.321  1.00  0.00     0.196 C 
HETATM    8  C4  UNK     1      30.869  -5.987  34.972  1.00  0.00     0.044 C 
HETATM    9  C5  UNK     1      32.959  -5.109  35.904  1.00  0.00     0.084 A 
HETATM   10  C6  UNK     1      31.642  -6.534  38.278  1.00  0.00     0.055 C 
HETATM   11  C7  UNK     1      30.359  -4.388  38.324  1.00  0.00     0.055 C 
HETATM   12  C8  UNK     1      33.150  -6.362  33.870  1.00  0.00     0.103 A 
HETATM   13  C9  UNK     1      34.529  -6.125  33.832  1.00  0.00    -0.001 A 
HETATM   14  C10 UNK     1      34.332  -4.843  35.865  1.00  0.00     0.039 A 
HETATM   15  C12 UNK     1      35.114  -5.348  34.830  1.00  0.00     0.017 A 
HETATM   16  C13 UNK     1      35.323  -6.695  32.754  1.00  0.00     0.020 A 
HETATM   17  C15 UNK     1      34.752  -7.458  31.819  1.00  0.00     0.083 A 
HETATM   18  C16 UNK     1      33.312  -7.755  31.838  1.00  0.00     0.288 A 
ENDROOT
BRANCH   8  19
HETATM   19  C11 UNK     1      30.036  -6.112  33.927  1.00  0.00     0.104 C 
HETATM   20  N1  UNK     1      29.542  -7.253  33.395  1.00  0.00    -0.363 N 
HETATM   21  H11 UNK     1      29.781  -8.111  33.876  1.00  0.00     0.165 HD
BRANCH  20  22
HETATM   22  C14 UNK     1      28.670  -7.411  32.303  1.00  0.00     0.059 A 
HETATM   23  C17 UNK     1      28.825  -8.466  31.399  1.00  0.00     0.061 A 
HETATM   24  C19 UNK     1      27.948  -8.603  30.324  1.00  0.00     0.032 A 
HETATM   25  C21 UNK     1      26.913  -7.685  30.146  1.00  0.00     0.002 A 
HETATM   26  C20 UNK     1      26.754  -6.631  31.044  1.00  0.00     0.002 A 
HETATM   27  C18 UNK     1      27.632  -6.493  32.120  1.00  0.00     0.032 A 
BRANCH  23  28
HETATM   28  N2  UNK     1      29.854  -9.398  31.558  1.00  0.00    -0.326 N 
HETATM   29  C22 UNK     1      29.893 -10.500  32.421  1.00  0.00     0.218 C 
HETATM   30  C23 UNK     1      31.188 -11.263  32.291  1.00  0.00     0.117 C 
HETATM   31  O5  UNK     1      29.026 -10.864  33.208  1.00  0.00    -0.274 OA
HETATM   32  H16 UNK     1      30.681  -9.250  30.988  1.00  0.00     0.169 HD
ENDBRANCH  23  28
ENDBRANCH  20  22
ENDBRANCH   8  19
TORSDOF 3
ENDMDL
MODEL 6
REMARK VINA RESULT:      -9.2     12.202     14.382
REMARK  3 active torsions:
REMARK  status: ('A' for Active; 'I' for Inactive)
REMARK    1  A    between atoms: C14_21  and  N1_6 
REMARK    2  A    between atoms: C17_24  and  N2_7 
REMARK       I    between atoms: C22_29  and  N2_7 
REMARK    3  A    between atoms: C11_18  and  C4_11 
ROOT
HETATM    1  O1  UNK     1      30.177  -7.012  31.603  1.00  0.00    -0.332 OA
HETATM    2  O2  UNK     1      31.365  -6.749  36.315  1.00  0.00    -0.274 OA
HETATM    3  O3  UNK     1      27.259  -5.779  33.335  1.00  0.00    -0.289 OA
HETATM    4  O4  UNK     1      32.001  -6.565  38.509  1.00  0.00    -0.260 OA
HETATM    5  C1  UNK     1      29.085  -6.108  31.778  1.00  0.00     0.125 C 
HETATM    6  C2  UNK     1      30.673  -6.951  33.989  1.00  0.00     0.048 A 
HETATM    7  C3  UNK     1      28.406  -6.182  33.150  1.00  0.00     0.196 C 
HETATM    8  C4  UNK     1      29.240  -6.742  34.254  1.00  0.00     0.044 C 
HETATM    9  C5  UNK     1      31.059  -7.099  32.650  1.00  0.00     0.084 A 
HETATM   10  C6  UNK     1      29.561  -4.671  31.527  1.00  0.00     0.055 C 
HETATM   11  C7  UNK     1      28.061  -6.495  30.704  1.00  0.00     0.055 C 
HETATM   12  C8  UNK     1      31.689  -6.999  34.960  1.00  0.00     0.103 A 
HETATM   13  C9  UNK     1      33.024  -7.255  34.626  1.00  0.00    -0.001 A 
HETATM   14  C10 UNK     1      32.385  -7.380  32.304  1.00  0.00     0.039 A 
HETATM   15  C12 UNK     1      33.365  -7.460  33.290  1.00  0.00     0.017 A 
HETATM   16  C13 UNK     1      34.028  -7.299  35.678  1.00  0.00     0.020 A 
HETATM   17  C15 UNK     1      33.691  -7.076  36.949  1.00  0.00     0.083 A 
HETATM   18  C16 UNK     1      32.305  -6.777  37.340  1.00  0.00     0.288 A 
ENDROOT
BRANCH   8  19
HETATM   19  C11 UNK     1      28.593  -7.124  35.366  1.00  0.00     0.104 C 
HETATM   20  N1  UNK     1      28.926  -8.122  36.215  1.00  0.00    -0.363 N 
HETATM   21  H11 UNK     1      29.797  -8.600  36.024  1.00  0.00     0.165 HD
BRANCH  20  22
HETATM   22  C14 UNK     1      28.266  -8.541  37.385  1.00  0.00     0.059 A 
HETATM   23  C17 UNK     1      28.313  -7.778  38.556  1.00  0.00     0.061 A 
HETATM   24  C19 UNK     1      27.650  -8.214  39.703  1.00  0.00     0.032 A 
HETATM   25  C21 UNK     1      26.939  -9.413  39.686  1.00  0.00     0.002 A 
HETATM   26  C20 UNK     1      26.889 -10.177  38.521  1.00  0.00     0.002 A 
HETATM   27  C18 UNK     1      27.552  -9.743  37.372  1.00  0.00     0.032 A 
BRANCH  23  28
HETATM   28  N2  UNK     1      29.019  -6.573  38.596  1.00  0.00    -0.326 N 
HETATM   29  C22 UNK     1      28.505  -5.276  38.714  1.00  0.00     0.218 C 
HETATM   30  C23 UNK     1      29.601  -4.241  38.721  1.00  0.00     0.117 C 
HETATM   31  O5  UNK     1      27.328  -4.945  38.808  1.00  0.00    -0.274 OA
HETATM   32  H16 UNK     1      30.029  -6.645  38.515  1.00  0.00     0.169 HD
ENDBRANCH  23  28
ENDBRANCH  20  22
ENDBRANCH   8  19
TORSDOF 3
ENDMDL
MODEL 7
REMARK VINA RESULT:      -8.9     11.832     14.422
REMARK  3 active torsions:
REMARK  status: ('A' for Active; 'I' for Inactive)
REMARK    1  A    between atoms: C14_21  and  N1_6 
REMARK    2  A    between atoms: C17_24  and  N2_7 
REMARK       I    between atoms: C22_29  and  N2_7 
REMARK    3  A    between atoms: C11_18  and  C4_11 
ROOT
HETATM    1  O1  UNK     1      28.219  -8.212  30.540  1.00  0.00    -0.332 OA
HETATM    2  O2  UNK     1      31.297  -8.357  34.306  1.00  0.00    -0.274 OA
HETATM    3  O3  UNK     1      27.045  -5.770  32.925  1.00  0.00    -0.289 OA
HETATM    4  O4  UNK     1      32.821  -8.406  36.016  1.00  0.00    -0.260 OA
HETATM    5  C1  UNK     1      27.749  -6.915  30.911  1.00  0.00     0.125 C 
HETATM    6  C2  UNK     1      29.663  -8.304  32.501  1.00  0.00     0.048 A 
HETATM    7  C3  UNK     1      27.748  -6.642  32.419  1.00  0.00     0.196 C 
HETATM    8  C4  UNK     1      28.684  -7.479  33.227  1.00  0.00     0.044 C 
HETATM    9  C5  UNK     1      29.351  -8.647  31.179  1.00  0.00     0.084 A 
HETATM   10  C6  UNK     1      28.588  -5.842  30.203  1.00  0.00     0.055 C 
HETATM   11  C7  UNK     1      26.305  -6.844  30.400  1.00  0.00     0.055 C 
HETATM   12  C8  UNK     1      30.888  -8.765  33.013  1.00  0.00     0.103 A 
HETATM   13  C9  UNK     1      31.740  -9.592  32.271  1.00  0.00    -0.001 A 
HETATM   14  C10 UNK     1      30.181  -9.493  30.434  1.00  0.00     0.039 A 
HETATM   15  C12 UNK     1      31.371  -9.966  30.980  1.00  0.00     0.017 A 
HETATM   16  C13 UNK     1      32.991 -10.042  32.860  1.00  0.00     0.020 A 
HETATM   17  C15 UNK     1      33.343  -9.655  34.088  1.00  0.00     0.083 A 
HETATM   18  C16 UNK     1      32.491  -8.765  34.892  1.00  0.00     0.288 A 
ENDROOT
BRANCH   8  19
HETATM   19  C11 UNK     1      28.480  -7.503  34.554  1.00  0.00     0.104 C 
HETATM   20  N1  UNK     1      28.808  -6.553  35.458  1.00  0.00    -0.363 N 
HETATM   21  H11 UNK     1      29.201  -5.698  35.087  1.00  0.00     0.165 HD
BRANCH  20  22
HETATM   22  C14 UNK     1      28.605  -6.555  36.851  1.00  0.00     0.059 A 
HETATM   23  C17 UNK     1      29.195  -5.587  37.669  1.00  0.00     0.061 A 
HETATM   24  C19 UNK     1      28.980  -5.608  39.047  1.00  0.00     0.032 A 
HETATM   25  C21 UNK     1      28.176  -6.597  39.612  1.00  0.00     0.002 A 
HETATM   26  C20 UNK     1      27.585  -7.564  38.800  1.00  0.00     0.002 A 
HETATM   27  C18 UNK     1      27.800  -7.544  37.422  1.00  0.00     0.032 A 
BRANCH  23  28
HETATM   28  N2  UNK     1      30.005  -4.587  37.124  1.00  0.00    -0.326 N 
HETATM   29  C22 UNK     1      31.401  -4.487  37.170  1.00  0.00     0.218 C 
HETATM   30  C23 UNK     1      31.895  -3.252  36.459  1.00  0.00     0.117 C 
HETATM   31  O5  UNK     1      32.188  -5.264  37.699  1.00  0.00    -0.274 OA
HETATM   32  H16 UNK     1      29.520  -3.831  36.649  1.00  0.00     0.169 HD
ENDBRANCH  23  28
ENDBRANCH  20  22
ENDBRANCH   8  19
TORSDOF 3
ENDMDL
MODEL 8
REMARK VINA RESULT:      -8.9     12.691     15.887
REMARK  3 active torsions:
REMARK  status: ('A' for Active; 'I' for Inactive)
REMARK    1  A    between atoms: C14_21  and  N1_6 
REMARK    2  A    between atoms: C17_24  and  N2_7 
REMARK       I    between atoms: C22_29  and  N2_7 
REMARK    3  A    between atoms: C11_18  and  C4_11 
ROOT
HETATM    1  O1  UNK     1      31.089 -11.300  29.541  1.00  0.00    -0.332 OA
HETATM    2  O2  UNK     1      28.979  -7.577  31.859  1.00  0.00    -0.274 OA
HETATM    3  O3  UNK     1      32.977 -10.768  32.571  1.00  0.00    -0.289 OA
HETATM    4  O4  UNK     1      27.900  -5.875  32.949  1.00  0.00    -0.260 OA
HETATM    5  C1  UNK     1      31.732 -11.743  30.737  1.00  0.00     0.125 C 
HETATM    6  C2  UNK     1      30.142  -9.378  30.704  1.00  0.00     0.048 A 
HETATM    7  C3  UNK     1      32.109 -10.624  31.714  1.00  0.00     0.196 C 
HETATM    8  C4  UNK     1      31.326  -9.359  31.579  1.00  0.00     0.044 C 
HETATM    9  C5  UNK     1      30.107 -10.355  29.701  1.00  0.00     0.084 A 
HETATM   10  C6  UNK     1      30.837 -12.762  31.456  1.00  0.00     0.055 C 
HETATM   11  C7  UNK     1      33.018 -12.439  30.273  1.00  0.00     0.055 C 
HETATM   12  C8  UNK     1      29.039  -8.511  30.796  1.00  0.00     0.103 A 
HETATM   13  C9  UNK     1      27.975  -8.564  29.889  1.00  0.00    -0.001 A 
HETATM   14  C10 UNK     1      29.063 -10.404  28.771  1.00  0.00     0.039 A 
HETATM   15  C12 UNK     1      28.001  -9.508  28.864  1.00  0.00     0.017 A 
HETATM   16  C13 UNK     1      26.866  -7.634  30.034  1.00  0.00     0.020 A 
HETATM   17  C15 UNK     1      26.844  -6.752  31.035  1.00  0.00     0.083 A 
HETATM   18  C16 UNK     1      27.928  -6.682  32.027  1.00  0.00     0.288 A 
ENDROOT
BRANCH   8  19
HETATM   19  C11 UNK     1      31.833  -8.269  32.176  1.00  0.00     0.104 C 
HETATM   20  N1  UNK     1      31.645  -7.861  33.451  1.00  0.00    -0.363 N 
HETATM   21  H11 UNK     1      31.107  -8.480  34.044  1.00  0.00     0.165 HD
BRANCH  20  22
HETATM   22  C14 UNK     1      32.165  -6.725  34.099  1.00  0.00     0.059 A 
HETATM   23  C17 UNK     1      31.367  -5.944  34.940  1.00  0.00     0.061 A 
HETATM   24  C19 UNK     1      31.903  -4.822  35.572  1.00  0.00     0.032 A 
HETATM   25  C21 UNK     1      33.238  -4.476  35.364  1.00  0.00     0.002 A 
HETATM   26  C20 UNK     1      34.037  -5.251  34.525  1.00  0.00     0.002 A 
HETATM   27  C18 UNK     1      33.502  -6.373  33.893  1.00  0.00     0.032 A 
BRANCH  23  28
HETATM   28  N2  UNK     1      30.027  -6.273  35.164  1.00  0.00    -0.326 N 
HETATM   29  C22 UNK     1      29.480  -6.969  36.249  1.00  0.00     0.218 C 
HETATM   30  C23 UNK     1      27.985  -7.120  36.117  1.00  0.00     0.117 C 
HETATM   31  O5  UNK     1      30.074  -7.426  37.220  1.00  0.00    -0.274 OA
HETATM   32  H16 UNK     1      29.372  -5.985  34.444  1.00  0.00     0.169 HD
ENDBRANCH  23  28
ENDBRANCH  20  22
ENDBRANCH   8  19
TORSDOF 3
ENDMDL
MODEL 9
REMARK VINA RESULT:      -8.8     13.747     17.074
REMARK  3 active torsions:
REMARK  status: ('A' for Active; 'I' for Inactive)
REMARK    1  A    between atoms: C14_21  and  N1_6 
REMARK    2  A    between atoms: C17_24  and  N2_7 
REMARK       I    between atoms: C22_29  and  N2_7 
REMARK    3  A    between atoms: C11_18  and  C4_11 
ROOT
HETATM    1  O1  UNK     1      31.232 -11.214  29.395  1.00  0.00    -0.332 OA
HETATM    2  O2  UNK     1      29.233  -7.482  31.794  1.00  0.00    -0.274 OA
HETATM    3  O3  UNK     1      33.371 -10.542  32.224  1.00  0.00    -0.289 OA
HETATM    4  O4  UNK     1      28.207  -5.779  32.932  1.00  0.00    -0.260 OA
HETATM    5  C1  UNK     1      31.994 -11.604  30.538  1.00  0.00     0.125 C 
HETATM    6  C2  UNK     1      30.339  -9.284  30.587  1.00  0.00     0.048 A 
HETATM    7  C3  UNK     1      32.425 -10.447  31.446  1.00  0.00     0.196 C 
HETATM    8  C4  UNK     1      31.596  -9.208  31.349  1.00  0.00     0.044 C 
HETATM    9  C5  UNK     1      30.242 -10.292  29.618  1.00  0.00     0.084 A 
HETATM   10  C6  UNK     1      31.199 -12.624  31.363  1.00  0.00     0.055 C 
HETATM   11  C7  UNK     1      33.252 -12.279  29.977  1.00  0.00     0.055 C 
HETATM   12  C8  UNK     1      29.224  -8.446  30.756  1.00  0.00     0.103 A 
HETATM   13  C9  UNK     1      28.084  -8.553  29.952  1.00  0.00    -0.001 A 
HETATM   14  C10 UNK     1      29.119 -10.396  28.789  1.00  0.00     0.039 A 
HETATM   15  C12 UNK     1      28.044  -9.526  28.954  1.00  0.00     0.017 A 
HETATM   16  C13 UNK     1      26.965  -7.650  30.172  1.00  0.00     0.020 A 
HETATM   17  C15 UNK     1      27.008  -6.740  31.147  1.00  0.00     0.083 A 
HETATM   18  C16 UNK     1      28.175  -6.611  32.033  1.00  0.00     0.288 A 
ENDROOT
BRANCH   8  19
HETATM   19  C11 UNK     1      32.123  -8.087  31.867  1.00  0.00     0.104 C 
HETATM   20  N1  UNK     1      32.255  -7.762  33.173  1.00  0.00    -0.363 N 
HETATM   21  H11 UNK     1      31.978  -8.470  33.840  1.00  0.00     0.165 HD
BRANCH  20  22
HETATM   22  C14 UNK     1      32.802  -6.597  33.740  1.00  0.00     0.059 A 
HETATM   23  C17 UNK     1      34.180  -6.466  33.937  1.00  0.00     0.061 A 
HETATM   24  C19 UNK     1      34.700  -5.301  34.500  1.00  0.00     0.032 A 
HETATM   25  C21 UNK     1      33.846  -4.263  34.870  1.00  0.00     0.002 A 
HETATM   26  C20 UNK     1      32.471  -4.389  34.676  1.00  0.00     0.002 A 
HETATM   27  C18 UNK     1      31.950  -5.554  34.113  1.00  0.00     0.032 A 
BRANCH  23  28
HETATM   28  N2  UNK     1      35.055  -7.493  33.573  1.00  0.00    -0.326 N 
HETATM   29  C22 UNK     1      35.849  -7.582  32.422  1.00  0.00     0.218 C 
HETATM   30  C23 UNK     1      36.658  -8.855  32.402  1.00  0.00     0.117 C 
HETATM   31  O5  UNK     1      35.931  -6.771  31.507  1.00  0.00    -0.274 OA
HETATM   32  H16 UNK     1      35.112  -8.278  34.214  1.00  0.00     0.169 HD
ENDBRANCH  23  28
ENDBRANCH  20  22
ENDBRANCH   8  19
TORSDOF 3
ENDMDL
MODEL 10
REMARK VINA RESULT:      -8.8     12.630     15.043
REMARK  3 active torsions:
REMARK  status: ('A' for Active; 'I' for Inactive)
REMARK    1  A    between atoms: C14_21  and  N1_6 
REMARK    2  A    between atoms: C17_24  and  N2_7 
REMARK       I    between atoms: C22_29  and  N2_7 
REMARK    3  A    between atoms: C11_18  and  C4_11 
ROOT
HETATM    1  O1  UNK     1      27.091  -6.427  38.399  1.00  0.00    -0.332 OA
HETATM    2  O2  UNK     1      31.081  -6.688  35.625  1.00  0.00    -0.274 OA
HETATM    3  O3  UNK     1      27.120  -9.730  36.942  1.00  0.00    -0.289 OA
HETATM    4  O4  UNK     1      33.014  -6.787  34.400  1.00  0.00    -0.260 OA
HETATM    5  C1  UNK     1      26.983  -7.850  38.463  1.00  0.00     0.125 C 
HETATM    6  C2  UNK     1      29.017  -6.590  36.914  1.00  0.00     0.048 A 
HETATM    7  C3  UNK     1      27.479  -8.586  37.214  1.00  0.00     0.196 C 
HETATM    8  C4  UNK     1      28.456  -7.837  36.369  1.00  0.00     0.044 C 
HETATM    9  C5  UNK     1      28.271  -5.935  37.902  1.00  0.00     0.084 A 
HETATM   10  C6  UNK     1      27.743  -8.369  39.691  1.00  0.00     0.055 C 
HETATM   11  C7  UNK     1      25.487  -8.137  38.637  1.00  0.00     0.055 C 
HETATM   12  C8  UNK     1      30.241  -6.008  36.541  1.00  0.00     0.103 A 
HETATM   13  C9  UNK     1      30.677  -4.790  37.074  1.00  0.00    -0.001 A 
HETATM   14  C10 UNK     1      28.681  -4.704  38.425  1.00  0.00     0.039 A 
HETATM   15  C12 UNK     1      29.881  -4.131  38.009  1.00  0.00     0.017 A 
HETATM   16  C13 UNK     1      31.951  -4.236  36.642  1.00  0.00     0.020 A 
HETATM   17  C15 UNK     1      32.714  -4.890  35.764  1.00  0.00     0.083 A 
HETATM   18  C16 UNK     1      32.307  -6.186  35.201  1.00  0.00     0.288 A 
ENDROOT
BRANCH   8  19
HETATM   19  C11 UNK     1      28.657  -8.299  35.124  1.00  0.00     0.104 C 
HETATM   20  N1  UNK     1      29.729  -8.979  34.658  1.00  0.00    -0.363 N 
HETATM   21  H11 UNK     1      30.437  -9.219  35.338  1.00  0.00     0.165 HD
BRANCH  20  22
HETATM   22  C14 UNK     1      29.962  -9.473  33.361  1.00  0.00     0.059 A 
HETATM   23  C17 UNK     1      30.340  -8.621  32.319  1.00  0.00     0.061 A 
HETATM   24  C19 UNK     1      30.567  -9.133  31.042  1.00  0.00     0.032 A 
HETATM   25  C21 UNK     1      30.416 -10.498  30.800  1.00  0.00     0.002 A 
HETATM   26  C20 UNK     1      30.039 -11.352  31.836  1.00  0.00     0.002 A 
HETATM   27  C18 UNK     1      29.811 -10.840  33.114  1.00  0.00     0.032 A 
BRANCH  23  28
HETATM   28  N2  UNK     1      30.499  -7.250  32.538  1.00  0.00    -0.326 N 
HETATM   29  C22 UNK     1      29.644  -6.210  32.151  1.00  0.00     0.218 C 
HETATM   30  C23 UNK     1      30.173  -4.865  32.579  1.00  0.00     0.117 C 
HETATM   31  O5  UNK     1      28.582  -6.303  31.543  1.00  0.00    -0.274 OA
HETATM   32  H16 UNK     1      31.345  -6.971  33.025  1.00  0.00     0.169 HD
ENDBRANCH  23  28
ENDBRANCH  20  22
ENDBRANCH   8  19
TORSDOF 3
ENDMDL
