MODEL 1
REMARK VINA RESULT:      -7.6      0.000      0.000
REMARK  6 active torsions:
REMARK  status: ('A' for Active; 'I' for Inactive)
REMARK    1  A    between atoms: C11_19  and  S1_2 
REMARK    2  A    between atoms: O2_4  and  S1_2 
REMARK    3  A    between atoms: C2_10  and  O2_4 
REMARK    4  A    between atoms: C12_20  and  O3_5 
REMARK    5  A    between atoms: C22_30  and  O3_5 
REMARK    6  A    between atoms: C1_9  and  C4_12 
ROOT
HETATM    1  O1  UNK     1      32.003  -7.616  32.254  1.00  0.00    -0.306 OA
HETATM    2  O4  UNK     1      35.957  -6.956  32.985  1.00  0.00    -0.284 OA
HETATM    3  C1  UNK     1      32.471  -7.372  33.536  1.00  0.00     0.125 A 
HETATM    4  C2  UNK     1      33.761  -7.154  33.848  1.00  0.00     0.175 A 
HETATM    5  C3  UNK     1      34.265  -7.395  31.401  1.00  0.00     0.051 A 
HETATM    6  C5  UNK     1      32.902  -7.617  31.219  1.00  0.00     0.090 A 
HETATM    7  C6  UNK     1      34.769  -7.150  32.762  1.00  0.00     0.222 A 
HETATM    8  C7  UNK     1      35.135  -7.407  30.309  1.00  0.00     0.018 A 
HETATM    9  C10 UNK     1      32.399  -7.853  29.939  1.00  0.00     0.038 A 
HETATM   10  C15 UNK     1      34.629  -7.644  29.030  1.00  0.00     0.001 A 
HETATM   11  C16 UNK     1      33.264  -7.866  28.845  1.00  0.00     0.003 A 
ENDROOT
BRANCH   4  12
HETATM   12  O2  UNK     1      34.197  -6.946  35.139  1.00  0.00    -0.222 OA
BRANCH  12  13
HETATM   13  S1  UNK     1      34.483  -5.434  35.659  1.00  0.00     0.303 S 
HETATM   14  O5  UNK     1      35.623  -5.442  36.555  1.00  0.00    -0.193 OA
HETATM   15  O6  UNK     1      34.423  -4.542  34.515  1.00  0.00    -0.193 OA
BRANCH  13  16
HETATM   16  C11 UNK     1      33.079  -5.073  36.667  1.00  0.00     0.086 A 
HETATM   17  C17 UNK     1      32.816  -5.866  37.771  1.00  0.00     0.027 A 
HETATM   18  C19 UNK     1      31.707  -5.582  38.567  1.00  0.00     0.020 A 
HETATM   19  C21 UNK     1      30.876  -4.507  38.249  1.00  0.00     0.011 A 
HETATM   20 Br1  UNK     1      29.375  -4.121  39.329  1.00  0.00    -0.051 Br
HETATM   21  C20 UNK     1      31.156  -3.718  37.133  1.00  0.00     0.020 A 
HETATM   22  C18 UNK     1      32.265  -4.003  36.336  1.00  0.00     0.027 A 
ENDBRANCH  13  16
ENDBRANCH  12  13
ENDBRANCH   4  12
BRANCH   3  23
HETATM   23  C4  UNK     1      31.403  -7.398  34.551  1.00  0.00     0.001 A 
HETATM   24  C8  UNK     1      31.403  -8.384  35.538  1.00  0.00     0.017 A 
HETATM   25  C13 UNK     1      30.391  -8.410  36.499  1.00  0.00     0.037 A 
HETATM   26  C12 UNK     1      29.380  -7.450  36.471  1.00  0.00     0.068 A 
HETATM   27  C14 UNK     1      29.380  -6.464  35.484  1.00  0.00     0.037 A 
HETATM   28  C9  UNK     1      30.391  -6.439  34.524  1.00  0.00     0.017 A 
BRANCH  26  29
HETATM   29  O3  UNK     1      28.393  -7.475  37.409  1.00  0.00    -0.352 OA
BRANCH  29  30
HETATM   30  C22 UNK     1      28.760  -7.876  38.728  1.00  0.00     0.171 C 
HETATM   31  C23 UNK     1      27.517  -8.316  39.473  1.00  0.00     0.034 C 
ENDBRANCH  29  30
ENDBRANCH  26  29
ENDBRANCH   3  23
TORSDOF 6
ENDMDL
MODEL 2
REMARK VINA RESULT:      -7.4      2.999      6.876
REMARK  6 active torsions:
REMARK  status: ('A' for Active; 'I' for Inactive)
REMARK    1  A    between atoms: C11_19  and  S1_2 
REMARK    2  A    between atoms: O2_4  and  S1_2 
REMARK    3  A    between atoms: C2_10  and  O2_4 
REMARK    4  A    between atoms: C12_20  and  O3_5 
REMARK    5  A    between atoms: C22_30  and  O3_5 
REMARK    6  A    between atoms: C1_9  and  C4_12 
ROOT
HETATM    1  O1  UNK     1      30.690  -7.204  36.377  1.00  0.00    -0.306 OA
HETATM    2  O4  UNK     1      31.974  -3.341  36.209  1.00  0.00    -0.284 OA
HETATM    3  C1  UNK     1      31.621  -6.791  35.437  1.00  0.00     0.125 A 
HETATM    4  C2  UNK     1      32.082  -5.533  35.321  1.00  0.00     0.175 A 
HETATM    5  C3  UNK     1      30.614  -4.949  37.271  1.00  0.00     0.051 A 
HETATM    6  C5  UNK     1      30.213  -6.283  37.273  1.00  0.00     0.090 A 
HETATM    7  C6  UNK     1      31.590  -4.502  36.265  1.00  0.00     0.222 A 
HETATM    8  C7  UNK     1      30.093  -4.053  38.209  1.00  0.00     0.018 A 
HETATM    9  C10 UNK     1      29.287  -6.732  38.215  1.00  0.00     0.038 A 
HETATM   10  C15 UNK     1      29.167  -4.505  39.150  1.00  0.00     0.001 A 
HETATM   11  C16 UNK     1      28.765  -5.841  39.154  1.00  0.00     0.003 A 
ENDROOT
BRANCH   4  12
HETATM   12  O2  UNK     1      32.984  -5.149  34.353  1.00  0.00    -0.222 OA
BRANCH  12  13
HETATM   13  S1  UNK     1      34.553  -4.976  34.736  1.00  0.00     0.303 S 
HETATM   14  O5  UNK     1      35.078  -3.790  34.089  1.00  0.00    -0.193 OA
HETATM   15  O6  UNK     1      34.697  -5.188  36.165  1.00  0.00    -0.193 OA
BRANCH  13  16
HETATM   16  C11 UNK     1      35.325  -6.346  33.934  1.00  0.00     0.086 A 
HETATM   17  C17 UNK     1      35.003  -6.630  32.617  1.00  0.00     0.027 A 
HETATM   18  C19 UNK     1      35.613  -7.713  31.983  1.00  0.00     0.020 A 
HETATM   19  C21 UNK     1      36.538  -8.496  32.674  1.00  0.00     0.011 A 
HETATM   20 Br1  UNK     1      37.365  -9.960  31.813  1.00  0.00    -0.051 Br
HETATM   21  C20 UNK     1      36.851  -8.196  34.000  1.00  0.00     0.020 A 
HETATM   22  C18 UNK     1      36.241  -7.114  34.634  1.00  0.00     0.027 A 
ENDBRANCH  13  16
ENDBRANCH  12  13
ENDBRANCH   4  12
BRANCH   3  23
HETATM   23  C4  UNK     1      32.051  -7.878  34.539  1.00  0.00     0.001 A 
HETATM   24  C8  UNK     1      32.963  -8.834  34.986  1.00  0.00     0.017 A 
HETATM   25  C13 UNK     1      33.371  -9.861  34.136  1.00  0.00     0.037 A 
HETATM   26  C12 UNK     1      32.866  -9.933  32.837  1.00  0.00     0.068 A 
HETATM   27  C14 UNK     1      31.954  -8.978  32.389  1.00  0.00     0.037 A 
HETATM   28  C9  UNK     1      31.547  -7.950  33.240  1.00  0.00     0.017 A 
BRANCH  26  29
HETATM   29  O3  UNK     1      33.265 -10.936  32.007  1.00  0.00    -0.352 OA
BRANCH  29  30
HETATM   30  C22 UNK     1      33.183 -10.689  30.605  1.00  0.00     0.171 C 
HETATM   31  C23 UNK     1      32.303 -11.745  29.969  1.00  0.00     0.034 C 
ENDBRANCH  29  30
ENDBRANCH  26  29
ENDBRANCH   3  23
TORSDOF 6
ENDMDL
MODEL 3
REMARK VINA RESULT:      -7.4     15.565     17.492
REMARK  6 active torsions:
REMARK  status: ('A' for Active; 'I' for Inactive)
REMARK    1  A    between atoms: C11_19  and  S1_2 
REMARK    2  A    between atoms: O2_4  and  S1_2 
REMARK    3  A    between atoms: C2_10  and  O2_4 
REMARK    4  A    between atoms: C12_20  and  O3_5 
REMARK    5  A    between atoms: C22_30  and  O3_5 
REMARK    6  A    between atoms: C1_9  and  C4_12 
ROOT
HETATM    1  O1  UNK     1      19.019   0.142  32.467  1.00  0.00    -0.306 OA
HETATM    2  O4  UNK     1      18.457   3.070  29.689  1.00  0.00    -0.284 OA
HETATM    3  C1  UNK     1      18.415   1.345  32.796  1.00  0.00     0.125 A 
HETATM    4  C2  UNK     1      18.205   2.355  31.933  1.00  0.00     0.175 A 
HETATM    5  C3  UNK     1      19.250   0.901  30.173  1.00  0.00     0.051 A 
HETATM    6  C5  UNK     1      19.416  -0.057  31.170  1.00  0.00     0.090 A 
HETATM    7  C6  UNK     1      18.623   2.187  30.521  1.00  0.00     0.222 A 
HETATM    8  C7  UNK     1      19.675   0.644  28.868  1.00  0.00     0.018 A 
HETATM    9  C10 UNK     1      20.010  -1.283  30.867  1.00  0.00     0.038 A 
HETATM   10  C15 UNK     1      20.268  -0.583  28.567  1.00  0.00     0.001 A 
HETATM   11  C16 UNK     1      20.435  -1.545  29.565  1.00  0.00     0.003 A 
ENDROOT
BRANCH   4  12
HETATM   12  O2  UNK     1      17.630   3.552  32.301  1.00  0.00    -0.222 OA
BRANCH  12  13
HETATM   13  S1  UNK     1      18.573   4.835  32.618  1.00  0.00     0.303 S 
HETATM   14  O5  UNK     1      19.180   4.675  33.925  1.00  0.00    -0.193 OA
HETATM   15  O6  UNK     1      19.374   5.111  31.439  1.00  0.00    -0.193 OA
BRANCH  13  16
HETATM   16  C11 UNK     1      17.421   6.163  32.779  1.00  0.00     0.086 A 
HETATM   17  C17 UNK     1      16.911   6.470  34.029  1.00  0.00     0.027 A 
HETATM   18  C19 UNK     1      16.000   7.518  34.157  1.00  0.00     0.020 A 
HETATM   19  C21 UNK     1      15.612   8.246  33.032  1.00  0.00     0.011 A 
HETATM   20 Br1  UNK     1      14.379   9.667  33.206  1.00  0.00    -0.051 Br
HETATM   21  C20 UNK     1      16.135   7.924  31.779  1.00  0.00     0.020 A 
HETATM   22  C18 UNK     1      17.045   6.876  31.652  1.00  0.00     0.027 A 
ENDBRANCH  13  16
ENDBRANCH  12  13
ENDBRANCH   4  12
BRANCH   3  23
HETATM   23  C4  UNK     1      18.037   1.427  34.218  1.00  0.00     0.001 A 
HETATM   24  C8  UNK     1      18.898   2.030  35.136  1.00  0.00     0.017 A 
HETATM   25  C13 UNK     1      18.540   2.106  36.482  1.00  0.00     0.037 A 
HETATM   26  C12 UNK     1      17.322   1.580  36.911  1.00  0.00     0.068 A 
HETATM   27  C14 UNK     1      16.461   0.977  35.994  1.00  0.00     0.037 A 
HETATM   28  C9  UNK     1      16.819   0.901  34.648  1.00  0.00     0.017 A 
BRANCH  26  29
HETATM   29  O3  UNK     1      16.973   1.654  38.225  1.00  0.00    -0.352 OA
BRANCH  29  30
HETATM   30  C22 UNK     1      17.804   0.964  39.157  1.00  0.00     0.171 C 
HETATM   31  C23 UNK     1      18.052  -0.441  38.649  1.00  0.00     0.034 C 
ENDBRANCH  29  30
ENDBRANCH  26  29
ENDBRANCH   3  23
TORSDOF 6
ENDMDL
MODEL 4
REMARK VINA RESULT:      -7.4      2.501      3.531
REMARK  6 active torsions:
REMARK  status: ('A' for Active; 'I' for Inactive)
REMARK    1  A    between atoms: C11_19  and  S1_2 
REMARK    2  A    between atoms: O2_4  and  S1_2 
REMARK    3  A    between atoms: C2_10  and  O2_4 
REMARK    4  A    between atoms: C12_20  and  O3_5 
REMARK    5  A    between atoms: C22_30  and  O3_5 
REMARK    6  A    between atoms: C1_9  and  C4_12 
ROOT
HETATM    1  O1  UNK     1      28.698  -9.090  31.666  1.00  0.00    -0.306 OA
HETATM    2  O4  UNK     1      32.652 -10.035  31.402  1.00  0.00    -0.284 OA
HETATM    3  C1  UNK     1      29.531  -9.033  32.772  1.00  0.00     0.125 A 
HETATM    4  C2  UNK     1      30.841  -9.338  32.757  1.00  0.00     0.175 A 
HETATM    5  C3  UNK     1      30.580  -9.791  30.303  1.00  0.00     0.051 A 
HETATM    6  C5  UNK     1      29.236  -9.460  30.461  1.00  0.00     0.090 A 
HETATM    7  C6  UNK     1      31.465  -9.747  31.477  1.00  0.00     0.222 A 
HETATM    8  C7  UNK     1      31.073 -10.161  29.049  1.00  0.00     0.018 A 
HETATM    9  C10 UNK     1      28.375  -9.495  29.363  1.00  0.00     0.038 A 
HETATM   10  C15 UNK     1      30.210 -10.196  27.953  1.00  0.00     0.001 A 
HETATM   11  C16 UNK     1      28.864  -9.864  28.110  1.00  0.00     0.003 A 
ENDROOT
BRANCH   4  12
HETATM   12  O2  UNK     1      31.634  -9.301  33.884  1.00  0.00    -0.222 OA
BRANCH  12  13
HETATM   13  S1  UNK     1      32.622  -8.037  34.133  1.00  0.00     0.303 S 
HETATM   14  O5  UNK     1      33.883  -8.510  34.668  1.00  0.00    -0.193 OA
HETATM   15  O6  UNK     1      32.568  -7.181  32.962  1.00  0.00    -0.193 OA
BRANCH  13  16
HETATM   16  C11 UNK     1      31.839  -7.157  35.449  1.00  0.00     0.086 A 
HETATM   17  C17 UNK     1      31.638  -5.792  35.327  1.00  0.00     0.027 A 
HETATM   18  C19 UNK     1      31.021  -5.097  36.366  1.00  0.00     0.020 A 
HETATM   19  C21 UNK     1      30.611  -5.776  37.514  1.00  0.00     0.011 A 
HETATM   20 Br1  UNK     1      29.773  -4.834  38.921  1.00  0.00    -0.051 Br
HETATM   21  C20 UNK     1      30.821  -7.152  37.622  1.00  0.00     0.020 A 
HETATM   22  C18 UNK     1      31.439  -7.847  36.582  1.00  0.00     0.027 A 
ENDBRANCH  13  16
ENDBRANCH  12  13
ENDBRANCH   4  12
BRANCH   3  23
HETATM   23  C4  UNK     1      28.827  -8.622  34.000  1.00  0.00     0.001 A 
HETATM   24  C8  UNK     1      28.518  -7.278  34.211  1.00  0.00     0.017 A 
HETATM   25  C13 UNK     1      27.854  -6.889  35.374  1.00  0.00     0.037 A 
HETATM   26  C12 UNK     1      27.498  -7.844  36.327  1.00  0.00     0.068 A 
HETATM   27  C14 UNK     1      27.807  -9.188  36.117  1.00  0.00     0.037 A 
HETATM   28  C9  UNK     1      28.472  -9.576  34.953  1.00  0.00     0.017 A 
BRANCH  26  29
HETATM   29  O3  UNK     1      26.850  -7.464  37.462  1.00  0.00    -0.352 OA
BRANCH  29  30
HETATM   30  C22 UNK     1      26.758  -8.427  38.511  1.00  0.00     0.171 C 
HETATM   31  C23 UNK     1      27.759  -8.075  39.591  1.00  0.00     0.034 C 
ENDBRANCH  29  30
ENDBRANCH  26  29
ENDBRANCH   3  23
TORSDOF 6
ENDMDL
MODEL 5
REMARK VINA RESULT:      -7.4      3.439      7.556
REMARK  6 active torsions:
REMARK  status: ('A' for Active; 'I' for Inactive)
REMARK    1  A    between atoms: C11_19  and  S1_2 
REMARK    2  A    between atoms: O2_4  and  S1_2 
REMARK    3  A    between atoms: C2_10  and  O2_4 
REMARK    4  A    between atoms: C12_20  and  O3_5 
REMARK    5  A    between atoms: C22_30  and  O3_5 
REMARK    6  A    between atoms: C1_9  and  C4_12 
ROOT
HETATM    1  O1  UNK     1      27.685  -8.652  35.645  1.00  0.00    -0.306 OA
HETATM    2  O4  UNK     1      29.885  -5.802  37.553  1.00  0.00    -0.284 OA
HETATM    3  C1  UNK     1      28.468  -7.750  34.941  1.00  0.00     0.125 A 
HETATM    4  C2  UNK     1      29.211  -6.782  35.506  1.00  0.00     0.175 A 
HETATM    5  C3  UNK     1      28.406  -7.632  37.726  1.00  0.00     0.051 A 
HETATM    6  C5  UNK     1      27.675  -8.579  37.013  1.00  0.00     0.090 A 
HETATM    7  C6  UNK     1      29.227  -6.662  36.982  1.00  0.00     0.222 A 
HETATM    8  C7  UNK     1      28.357  -7.604  39.121  1.00  0.00     0.018 A 
HETATM    9  C10 UNK     1      26.887  -9.508  37.694  1.00  0.00     0.038 A 
HETATM   10  C15 UNK     1      27.569  -8.535  39.800  1.00  0.00     0.001 A 
HETATM   11  C16 UNK     1      26.835  -9.485  39.088  1.00  0.00     0.003 A 
ENDROOT
BRANCH   4  12
HETATM   12  O2  UNK     1      29.954  -5.881  34.773  1.00  0.00    -0.222 OA
BRANCH  12  13
HETATM   13  S1  UNK     1      31.555  -6.097  34.615  1.00  0.00     0.303 S 
HETATM   14  O5  UNK     1      32.215  -4.806  34.599  1.00  0.00    -0.193 OA
HETATM   15  O6  UNK     1      31.965  -7.146  35.530  1.00  0.00    -0.193 OA
BRANCH  13  16
HETATM   16  C11 UNK     1      31.723  -6.746  32.981  1.00  0.00     0.086 A 
HETATM   17  C17 UNK     1      31.166  -6.055  31.917  1.00  0.00     0.027 A 
HETATM   18  C19 UNK     1      31.298  -6.568  30.627  1.00  0.00     0.020 A 
HETATM   19  C21 UNK     1      31.986  -7.764  30.418  1.00  0.00     0.011 A 
HETATM   20 Br1  UNK     1      32.166  -8.456  28.670  1.00  0.00    -0.051 Br
HETATM   21  C20 UNK     1      32.541  -8.447  31.501  1.00  0.00     0.020 A 
HETATM   22  C18 UNK     1      32.409  -7.934  32.791  1.00  0.00     0.027 A 
ENDBRANCH  13  16
ENDBRANCH  12  13
ENDBRANCH   4  12
BRANCH   3  23
HETATM   23  C4  UNK     1      28.389  -7.939  33.481  1.00  0.00     0.001 A 
HETATM   24  C8  UNK     1      27.777  -6.971  32.684  1.00  0.00     0.017 A 
HETATM   25  C13 UNK     1      27.700  -7.151  31.303  1.00  0.00     0.037 A 
HETATM   26  C12 UNK     1      28.237  -8.298  30.719  1.00  0.00     0.068 A 
HETATM   27  C14 UNK     1      28.849  -9.266  31.515  1.00  0.00     0.037 A 
HETATM   28  C9  UNK     1      28.925  -9.086  32.896  1.00  0.00     0.017 A 
BRANCH  26  29
HETATM   29  O3  UNK     1      28.163  -8.473  29.371  1.00  0.00    -0.352 OA
BRANCH  29  30
HETATM   30  C22 UNK     1      27.799  -9.771  28.904  1.00  0.00     0.171 C 
HETATM   31  C23 UNK     1      28.895 -10.294  27.999  1.00  0.00     0.034 C 
ENDBRANCH  29  30
ENDBRANCH  26  29
ENDBRANCH   3  23
TORSDOF 6
ENDMDL
MODEL 6
REMARK VINA RESULT:      -7.3     32.843     35.609
REMARK  6 active torsions:
REMARK  status: ('A' for Active; 'I' for Inactive)
REMARK    1  A    between atoms: C11_19  and  S1_2 
REMARK    2  A    between atoms: O2_4  and  S1_2 
REMARK    3  A    between atoms: C2_10  and  O2_4 
REMARK    4  A    between atoms: C12_20  and  O3_5 
REMARK    5  A    between atoms: C22_30  and  O3_5 
REMARK    6  A    between atoms: C1_9  and  C4_12 
ROOT
HETATM    1  O1  UNK     1      18.336  10.268   9.678  1.00  0.00    -0.306 OA
HETATM    2  O4  UNK     1      15.323  12.051   7.593  1.00  0.00    -0.284 OA
HETATM    3  C1  UNK     1      18.488  11.528   9.121  1.00  0.00     0.125 A 
HETATM    4  C2  UNK     1      17.539  12.171   8.417  1.00  0.00     0.175 A 
HETATM    5  C3  UNK     1      16.063  10.184   8.830  1.00  0.00     0.051 A 
HETATM    6  C5  UNK     1      17.133   9.628   9.527  1.00  0.00     0.090 A 
HETATM    7  C6  UNK     1      16.225  11.515   8.224  1.00  0.00     0.222 A 
HETATM    8  C7  UNK     1      14.860   9.485   8.708  1.00  0.00     0.018 A 
HETATM    9  C10 UNK     1      17.006   8.366  10.109  1.00  0.00     0.038 A 
HETATM   10  C15 UNK     1      14.735   8.223   9.291  1.00  0.00     0.001 A 
HETATM   11  C16 UNK     1      15.806   7.665   9.991  1.00  0.00     0.003 A 
ENDROOT
BRANCH   4  12
HETATM   12  O2  UNK     1      17.736  13.411   7.849  1.00  0.00    -0.222 OA
BRANCH  12  13
HETATM   13  S1  UNK     1      18.264  13.521   6.317  1.00  0.00     0.303 S 
HETATM   14  O5  UNK     1      18.561  12.195   5.814  1.00  0.00    -0.193 OA
HETATM   15  O6  UNK     1      17.385  14.425   5.598  1.00  0.00    -0.193 OA
BRANCH  13  16
HETATM   16  C11 UNK     1      19.821  14.338   6.477  1.00  0.00     0.086 A 
HETATM   17  C17 UNK     1      20.861  13.986   5.633  1.00  0.00     0.027 A 
HETATM   18  C19 UNK     1      22.091  14.630   5.759  1.00  0.00     0.020 A 
HETATM   19  C21 UNK     1      22.265  15.619   6.727  1.00  0.00     0.011 A 
HETATM   20 Br1  UNK     1      23.931  16.493   6.896  1.00  0.00    -0.051 Br
HETATM   21  C20 UNK     1      21.207  15.962   7.570  1.00  0.00     0.020 A 
HETATM   22  C18 UNK     1      19.977  15.318   7.444  1.00  0.00     0.027 A 
ENDBRANCH  13  16
ENDBRANCH  12  13
ENDBRANCH   4  12
BRANCH   3  23
HETATM   23  C4  UNK     1      19.825  12.102   9.358  1.00  0.00     0.001 A 
HETATM   24  C8  UNK     1      20.018  13.019  10.391  1.00  0.00     0.017 A 
HETATM   25  C13 UNK     1      21.283  13.564  10.614  1.00  0.00     0.037 A 
HETATM   26  C12 UNK     1      22.354  13.192   9.802  1.00  0.00     0.068 A 
HETATM   27  C14 UNK     1      22.162  12.276   8.768  1.00  0.00     0.037 A 
HETATM   28  C9  UNK     1      20.897  11.732   8.546  1.00  0.00     0.017 A 
BRANCH  26  29
HETATM   29  O3  UNK     1      23.589  13.723  10.019  1.00  0.00    -0.352 OA
BRANCH  29  30
HETATM   30  C22 UNK     1      24.279  13.303  11.195  1.00  0.00     0.171 C 
HETATM   31  C23 UNK     1      25.530  12.553  10.789  1.00  0.00     0.034 C 
ENDBRANCH  29  30
ENDBRANCH  26  29
ENDBRANCH   3  23
TORSDOF 6
ENDMDL
MODEL 7
REMARK VINA RESULT:      -7.3      2.058      2.643
REMARK  6 active torsions:
REMARK  status: ('A' for Active; 'I' for Inactive)
REMARK    1  A    between atoms: C11_19  and  S1_2 
REMARK    2  A    between atoms: O2_4  and  S1_2 
REMARK    3  A    between atoms: C2_10  and  O2_4 
REMARK    4  A    between atoms: C12_20  and  O3_5 
REMARK    5  A    between atoms: C22_30  and  O3_5 
REMARK    6  A    between atoms: C1_9  and  C4_12 
ROOT
HETATM    1  O1  UNK     1      34.087 -10.037  33.814  1.00  0.00    -0.306 OA
HETATM    2  O4  UNK     1      36.227  -6.918  32.299  1.00  0.00    -0.284 OA
HETATM    3  C1  UNK     1      33.688  -8.724  34.009  1.00  0.00     0.125 A 
HETATM    4  C2  UNK     1      34.350  -7.649  33.544  1.00  0.00     0.175 A 
HETATM    5  C3  UNK     1      35.993  -9.254  32.532  1.00  0.00     0.051 A 
HETATM    6  C5  UNK     1      35.220 -10.274  33.079  1.00  0.00     0.090 A 
HETATM    7  C6  UNK     1      35.583  -7.857  32.749  1.00  0.00     0.222 A 
HETATM    8  C7  UNK     1      37.139  -9.555  31.792  1.00  0.00     0.018 A 
HETATM    9  C10 UNK     1      35.588 -11.607  32.890  1.00  0.00     0.038 A 
HETATM   10  C15 UNK     1      37.505 -10.888  31.603  1.00  0.00     0.001 A 
HETATM   11  C16 UNK     1      36.731 -11.912  32.151  1.00  0.00     0.003 A 
ENDROOT
BRANCH   4  12
HETATM   12  O2  UNK     1      33.943  -6.355  33.785  1.00  0.00    -0.222 OA
BRANCH  12  13
HETATM   13  S1  UNK     1      34.571  -5.532  35.036  1.00  0.00     0.303 S 
HETATM   14  O5  UNK     1      35.511  -6.379  35.745  1.00  0.00    -0.193 OA
HETATM   15  O6  UNK     1      34.944  -4.210  34.569  1.00  0.00    -0.193 OA
BRANCH  13  16
HETATM   16  C11 UNK     1      33.195  -5.324  36.123  1.00  0.00     0.086 A 
HETATM   17  C17 UNK     1      31.980  -4.907  35.605  1.00  0.00     0.027 A 
HETATM   18  C19 UNK     1      30.893  -4.742  36.463  1.00  0.00     0.020 A 
HETATM   19  C21 UNK     1      31.035  -4.997  37.828  1.00  0.00     0.011 A 
HETATM   20 Br1  UNK     1      29.561  -4.775  38.989  1.00  0.00    -0.051 Br
HETATM   21  C20 UNK     1      32.266  -5.416  38.333  1.00  0.00     0.020 A 
HETATM   22  C18 UNK     1      33.353  -5.581  37.475  1.00  0.00     0.027 A 
ENDBRANCH  13  16
ENDBRANCH  12  13
ENDBRANCH   4  12
BRANCH   3  23
HETATM   23  C4  UNK     1      32.458  -8.611  34.812  1.00  0.00     0.001 A 
HETATM   24  C8  UNK     1      31.260  -8.234  34.205  1.00  0.00     0.017 A 
HETATM   25  C13 UNK     1      30.096  -8.125  34.966  1.00  0.00     0.037 A 
HETATM   26  C12 UNK     1      30.130  -8.393  36.334  1.00  0.00     0.068 A 
HETATM   27  C14 UNK     1      31.327  -8.769  36.942  1.00  0.00     0.037 A 
HETATM   28  C9  UNK     1      32.491  -8.878  36.181  1.00  0.00     0.017 A 
BRANCH  26  29
HETATM   29  O3  UNK     1      28.993  -8.287  37.076  1.00  0.00    -0.352 OA
BRANCH  29  30
HETATM   30  C22 UNK     1      29.100  -8.571  38.470  1.00  0.00     0.171 C 
HETATM   31  C23 UNK     1      28.115  -9.665  38.826  1.00  0.00     0.034 C 
ENDBRANCH  29  30
ENDBRANCH  26  29
ENDBRANCH   3  23
TORSDOF 6
ENDMDL
MODEL 8
REMARK VINA RESULT:      -7.3      2.628      6.981
REMARK  6 active torsions:
REMARK  status: ('A' for Active; 'I' for Inactive)
REMARK    1  A    between atoms: C11_19  and  S1_2 
REMARK    2  A    between atoms: O2_4  and  S1_2 
REMARK    3  A    between atoms: C2_10  and  O2_4 
REMARK    4  A    between atoms: C12_20  and  O3_5 
REMARK    5  A    between atoms: C22_30  and  O3_5 
REMARK    6  A    between atoms: C1_9  and  C4_12 
ROOT
HETATM    1  O1  UNK     1      29.798  -8.488  36.436  1.00  0.00    -0.306 OA
HETATM    2  O4  UNK     1      29.179  -4.921  38.305  1.00  0.00    -0.284 OA
HETATM    3  C1  UNK     1      30.400  -7.322  35.988  1.00  0.00     0.125 A 
HETATM    4  C2  UNK     1      30.234  -6.113  36.552  1.00  0.00     0.175 A 
HETATM    5  C3  UNK     1      28.743  -7.237  38.228  1.00  0.00     0.051 A 
HETATM    6  C5  UNK     1      28.992  -8.424  37.543  1.00  0.00     0.090 A 
HETATM    7  C6  UNK     1      29.367  -5.994  37.748  1.00  0.00     0.222 A 
HETATM    8  C7  UNK     1      27.911  -7.232  39.351  1.00  0.00     0.018 A 
HETATM    9  C10 UNK     1      28.410  -9.616  37.976  1.00  0.00     0.038 A 
HETATM   10  C15 UNK     1      27.331  -8.425  39.783  1.00  0.00     0.001 A 
HETATM   11  C16 UNK     1      27.580  -9.615  39.097  1.00  0.00     0.003 A 
ENDROOT
BRANCH   4  12
HETATM   12  O2  UNK     1      30.823  -4.967  36.062  1.00  0.00    -0.222 OA
BRANCH  12  13
HETATM   13  S1  UNK     1      32.106  -4.330  36.827  1.00  0.00     0.303 S 
HETATM   14  O5  UNK     1      32.235  -2.932  36.465  1.00  0.00    -0.193 OA
HETATM   15  O6  UNK     1      32.063  -4.753  38.214  1.00  0.00    -0.193 OA
BRANCH  13  16
HETATM   16  C11 UNK     1      33.479  -5.151  36.081  1.00  0.00     0.086 A 
HETATM   17  C17 UNK     1      33.865  -4.798  34.798  1.00  0.00     0.027 A 
HETATM   18  C19 UNK     1      34.949  -5.448  34.209  1.00  0.00     0.020 A 
HETATM   19  C21 UNK     1      35.634  -6.441  34.910  1.00  0.00     0.011 A 
HETATM   20 Br1  UNK     1      37.104  -7.318  34.111  1.00  0.00    -0.051 Br
HETATM   21  C20 UNK     1      35.232  -6.785  36.201  1.00  0.00     0.020 A 
HETATM   22  C18 UNK     1      34.148  -6.135  36.790  1.00  0.00     0.027 A 
ENDBRANCH  13  16
ENDBRANCH  12  13
ENDBRANCH   4  12
BRANCH   3  23
HETATM   23  C4  UNK     1      31.239  -7.531  34.794  1.00  0.00     0.001 A 
HETATM   24  C8  UNK     1      31.009  -6.783  33.640  1.00  0.00     0.017 A 
HETATM   25  C13 UNK     1      31.802  -6.982  32.509  1.00  0.00     0.037 A 
HETATM   26  C12 UNK     1      32.825  -7.929  32.534  1.00  0.00     0.068 A 
HETATM   27  C14 UNK     1      33.055  -8.678  33.688  1.00  0.00     0.037 A 
HETATM   28  C9  UNK     1      32.262  -8.479  34.818  1.00  0.00     0.017 A 
BRANCH  26  29
HETATM   29  O3  UNK     1      33.599  -8.124  31.431  1.00  0.00    -0.352 OA
BRANCH  29  30
HETATM   30  C22 UNK     1      33.243  -7.401  30.253  1.00  0.00     0.171 C 
HETATM   31  C23 UNK     1      34.493  -7.137  29.441  1.00  0.00     0.034 C 
ENDBRANCH  29  30
ENDBRANCH  26  29
ENDBRANCH   3  23
TORSDOF 6
ENDMDL
MODEL 9
REMARK VINA RESULT:      -7.3     33.568     36.042
REMARK  6 active torsions:
REMARK  status: ('A' for Active; 'I' for Inactive)
REMARK    1  A    between atoms: C11_19  and  S1_2 
REMARK    2  A    between atoms: O2_4  and  S1_2 
REMARK    3  A    between atoms: C2_10  and  O2_4 
REMARK    4  A    between atoms: C12_20  and  O3_5 
REMARK    5  A    between atoms: C22_30  and  O3_5 
REMARK    6  A    between atoms: C1_9  and  C4_12 
ROOT
HETATM    1  O1  UNK     1      12.647   7.660   7.640  1.00  0.00    -0.306 OA
HETATM    2  O4  UNK     1       9.454   8.221  10.108  1.00  0.00    -0.284 OA
HETATM    3  C1  UNK     1      12.777   8.318   8.854  1.00  0.00     0.125 A 
HETATM    4  C2  UNK     1      11.766   8.542   9.711  1.00  0.00     0.175 A 
HETATM    5  C3  UNK     1      10.283   7.336   8.085  1.00  0.00     0.051 A 
HETATM    6  C5  UNK     1      11.413   7.181   7.286  1.00  0.00     0.090 A 
HETATM    7  C6  UNK     1      10.412   8.047   9.367  1.00  0.00     0.222 A 
HETATM    8  C7  UNK     1       9.050   6.827   7.672  1.00  0.00     0.018 A 
HETATM    9  C10 UNK     1      11.317   6.513   6.064  1.00  0.00     0.038 A 
HETATM   10  C15 UNK     1       8.956   6.159   6.450  1.00  0.00     0.001 A 
HETATM   11  C16 UNK     1      10.087   6.002   5.648  1.00  0.00     0.003 A 
ENDROOT
BRANCH   4  12
HETATM   12  O2  UNK     1      11.924   9.229  10.896  1.00  0.00    -0.222 OA
BRANCH  12  13
HETATM   13  S1  UNK     1      11.412  10.766  11.011  1.00  0.00     0.303 S 
HETATM   14  O5  UNK     1      10.753  11.147   9.777  1.00  0.00    -0.193 OA
HETATM   15  O6  UNK     1      10.764  10.933  12.300  1.00  0.00    -0.193 OA
BRANCH  13  16
HETATM   16  C11 UNK     1      12.912  11.696  11.065  1.00  0.00     0.086 A 
HETATM   17  C17 UNK     1      13.040  12.822  10.270  1.00  0.00     0.027 A 
HETATM   18  C19 UNK     1      14.225  13.557  10.313  1.00  0.00     0.020 A 
HETATM   19  C21 UNK     1      15.266  13.155  11.150  1.00  0.00     0.011 A 
HETATM   20 Br1  UNK     1      16.869  14.152  11.208  1.00  0.00    -0.051 Br
HETATM   21  C20 UNK     1      15.120  12.017  11.944  1.00  0.00     0.020 A 
HETATM   22  C18 UNK     1      13.936  11.283  11.902  1.00  0.00     0.027 A 
ENDBRANCH  13  16
ENDBRANCH  12  13
ENDBRANCH   4  12
BRANCH   3  23
HETATM   23  C4  UNK     1      14.153   8.779   9.113  1.00  0.00     0.001 A 
HETATM   24  C8  UNK     1      14.649   9.900   8.448  1.00  0.00     0.017 A 
HETATM   25  C13 UNK     1      15.952  10.336   8.691  1.00  0.00     0.037 A 
HETATM   26  C12 UNK     1      16.758   9.650   9.600  1.00  0.00     0.068 A 
HETATM   27  C14 UNK     1      16.262   8.528  10.264  1.00  0.00     0.037 A 
HETATM   28  C9  UNK     1      14.959   8.093  10.020  1.00  0.00     0.017 A 
BRANCH  26  29
HETATM   29  O3  UNK     1      18.029  10.075   9.838  1.00  0.00    -0.352 OA
BRANCH  29  30
HETATM   30  C22 UNK     1      18.410  11.330   9.275  1.00  0.00     0.171 C 
HETATM   31  C23 UNK     1      19.666  11.818   9.966  1.00  0.00     0.034 C 
ENDBRANCH  29  30
ENDBRANCH  26  29
ENDBRANCH   3  23
TORSDOF 6
ENDMDL
MODEL 10
REMARK VINA RESULT:      -7.1      3.936      7.758
REMARK  6 active torsions:
REMARK  status: ('A' for Active; 'I' for Inactive)
REMARK    1  A    between atoms: C11_19  and  S1_2 
REMARK    2  A    between atoms: O2_4  and  S1_2 
REMARK    3  A    between atoms: C2_10  and  O2_4 
REMARK    4  A    between atoms: C12_20  and  O3_5 
REMARK    5  A    between atoms: C22_30  and  O3_5 
REMARK    6  A    between atoms: C1_9  and  C4_12 
ROOT
HETATM    1  O1  UNK     1      29.147  -9.430  36.482  1.00  0.00    -0.306 OA
HETATM    2  O4  UNK     1      29.887  -5.423  36.475  1.00  0.00    -0.284 OA
HETATM    3  C1  UNK     1      29.819  -8.820  35.434  1.00  0.00     0.125 A 
HETATM    4  C2  UNK     1      30.090  -7.504  35.365  1.00  0.00     0.175 A 
HETATM    5  C3  UNK     1      28.968  -7.283  37.599  1.00  0.00     0.051 A 
HETATM    6  C5  UNK     1      28.744  -8.656  37.538  1.00  0.00     0.090 A 
HETATM    7  C6  UNK     1      29.668  -6.628  36.482  1.00  0.00     0.222 A 
HETATM    8  C7  UNK     1      28.534  -6.544  38.702  1.00  0.00     0.018 A 
HETATM    9  C10 UNK     1      28.081  -9.301  38.583  1.00  0.00     0.038 A 
HETATM   10  C15 UNK     1      27.871  -7.191  39.745  1.00  0.00     0.001 A 
HETATM   11  C16 UNK     1      27.645  -8.567  39.687  1.00  0.00     0.003 A 
ENDROOT
BRANCH   4  12
HETATM   12  O2  UNK     1      30.732  -6.925  34.292  1.00  0.00    -0.222 OA
BRANCH  12  13
HETATM   13  S1  UNK     1      29.867  -6.140  33.163  1.00  0.00     0.303 S 
HETATM   14  O5  UNK     1      28.469  -6.132  33.548  1.00  0.00    -0.193 OA
HETATM   15  O6  UNK     1      30.568  -4.915  32.825  1.00  0.00    -0.193 OA
BRANCH  13  16
HETATM   16  C11 UNK     1      29.974  -7.198  31.754  1.00  0.00     0.086 A 
HETATM   17  C17 UNK     1      28.824  -7.501  31.044  1.00  0.00     0.027 A 
HETATM   18  C19 UNK     1      28.908  -8.337  29.931  1.00  0.00     0.020 A 
HETATM   19  C21 UNK     1      30.142  -8.859  29.542  1.00  0.00     0.011 A 
HETATM   20 Br1  UNK     1      30.256  -9.990  28.033  1.00  0.00    -0.051 Br
HETATM   21  C20 UNK     1      31.291  -8.544  30.268  1.00  0.00     0.020 A 
HETATM   22  C18 UNK     1      31.207  -7.708  31.381  1.00  0.00     0.027 A 
ENDBRANCH  13  16
ENDBRANCH  12  13
ENDBRANCH   4  12
BRANCH   3  23
HETATM   23  C4  UNK     1      30.197  -9.764  34.367  1.00  0.00     0.001 A 
HETATM   24  C8  UNK     1      29.233 -10.227  33.470  1.00  0.00     0.017 A 
HETATM   25  C13 UNK     1      29.590 -11.121  32.462  1.00  0.00     0.037 A 
HETATM   26  C12 UNK     1      30.912 -11.553  32.349  1.00  0.00     0.068 A 
HETATM   27  C14 UNK     1      31.876 -11.092  33.245  1.00  0.00     0.037 A 
HETATM   28  C9  UNK     1      31.518 -10.197  34.254  1.00  0.00     0.017 A 
BRANCH  26  29
HETATM   29  O3  UNK     1      31.260 -12.427  31.365  1.00  0.00    -0.352 OA
BRANCH  29  30
HETATM   30  C22 UNK     1      31.982 -13.593  31.757  1.00  0.00     0.171 C 
HETATM   31  C23 UNK     1      31.010 -14.604  32.328  1.00  0.00     0.034 C 
ENDBRANCH  29  30
ENDBRANCH  26  29
ENDBRANCH   3  23
TORSDOF 6
ENDMDL
