MODEL 1
REMARK VINA RESULT:      -8.3      0.000      0.000
REMARK  3 active torsions:
REMARK  status: ('A' for Active; 'I' for Inactive)
REMARK    1  A    between atoms: C9_13  and  O2_2 
REMARK    2  A    between atoms: C5_9  and  O3_3 
REMARK    3  A    between atoms: C3_7  and  C6_10 
ROOT
HETATM    1  O1  UNK     1      13.276   7.566   8.460  1.00  0.00    -0.306 OA
HETATM    2  O4  UNK     1      15.229   4.228   9.742  1.00  0.00    -0.284 OA
HETATM    3  C1  UNK     1      15.229   6.575   9.506  1.00  0.00     0.051 A 
HETATM    4  C2  UNK     1      14.511   7.676   9.044  1.00  0.00     0.093 A 
HETATM    5  C3  UNK     1      12.713   6.307   8.333  1.00  0.00     0.123 A 
HETATM    6  C4  UNK     1      14.643   5.233   9.362  1.00  0.00     0.220 A 
HETATM    7  C5  UNK     1      13.305   5.164   8.727  1.00  0.00     0.152 A 
HETATM    8  C7  UNK     1      15.046   8.958   9.167  1.00  0.00     0.075 A 
HETATM    9  C8  UNK     1      16.485   6.747  10.093  1.00  0.00     0.021 A 
HETATM   10  C9  UNK     1      16.300   9.135   9.751  1.00  0.00     0.070 A 
HETATM   11  C10 UNK     1      17.018   8.031  10.214  1.00  0.00     0.038 A 
ENDROOT
BRANCH   5  12
HETATM   12  C6  UNK     1      11.388   6.331   7.689  1.00  0.00     0.001 A 
HETATM   13  C11 UNK     1      11.284   6.249   6.301  1.00  0.00     0.014 A 
HETATM   14  C13 UNK     1      10.030   6.270   5.691  1.00  0.00     0.001 A 
HETATM   15  C15 UNK     1       8.878   6.374   6.471  1.00  0.00     0.000 A 
HETATM   16  C14 UNK     1       8.980   6.455   7.859  1.00  0.00     0.001 A 
HETATM   17  C12 UNK     1      10.234   6.434   8.468  1.00  0.00     0.014 A 
ENDBRANCH   5  12
BRANCH   7  18
HETATM   18  O3  UNK     1      12.733   3.922   8.556  1.00  0.00    -0.355 OA
HETATM   19  H9  UNK     1      12.375   3.844   7.657  1.00  0.00     0.218 HD
ENDBRANCH   7  18
BRANCH  10  20
HETATM   20  O2  UNK     1      16.826  10.384   9.873  1.00  0.00    -0.356 OA
HETATM   21  C16 UNK     1      17.631  10.858   8.794  1.00  0.00     0.210 C 
ENDBRANCH  10  20
TORSDOF 3
ENDMDL
MODEL 2
REMARK VINA RESULT:      -8.3      0.003      1.080
REMARK  3 active torsions:
REMARK  status: ('A' for Active; 'I' for Inactive)
REMARK    1  A    between atoms: C9_13  and  O2_2 
REMARK    2  A    between atoms: C5_9  and  O3_3 
REMARK    3  A    between atoms: C3_7  and  C6_10 
ROOT
HETATM    1  O1  UNK     1      13.275   7.565   8.461  1.00  0.00    -0.306 OA
HETATM    2  O4  UNK     1      15.228   4.229   9.747  1.00  0.00    -0.284 OA
HETATM    3  C1  UNK     1      15.227   6.575   9.509  1.00  0.00     0.051 A 
HETATM    4  C2  UNK     1      14.510   7.676   9.046  1.00  0.00     0.093 A 
HETATM    5  C3  UNK     1      12.713   6.306   8.334  1.00  0.00     0.123 A 
HETATM    6  C4  UNK     1      14.642   5.233   9.365  1.00  0.00     0.220 A 
HETATM    7  C5  UNK     1      13.304   5.163   8.730  1.00  0.00     0.152 A 
HETATM    8  C7  UNK     1      15.045   8.958   9.167  1.00  0.00     0.075 A 
HETATM    9  C8  UNK     1      16.483   6.748  10.096  1.00  0.00     0.021 A 
HETATM   10  C9  UNK     1      16.298   9.136   9.753  1.00  0.00     0.070 A 
HETATM   11  C10 UNK     1      17.016   8.032  10.216  1.00  0.00     0.038 A 
ENDROOT
BRANCH   5  12
HETATM   12  C6  UNK     1      11.387   6.329   7.690  1.00  0.00     0.001 A 
HETATM   13  C11 UNK     1      10.234   6.435   8.468  1.00  0.00     0.014 A 
HETATM   14  C13 UNK     1       8.980   6.459   7.858  1.00  0.00     0.001 A 
HETATM   15  C15 UNK     1       8.879   6.375   6.470  1.00  0.00     0.000 A 
HETATM   16  C14 UNK     1      10.030   6.269   5.691  1.00  0.00     0.001 A 
HETATM   17  C12 UNK     1      11.284   6.246   6.301  1.00  0.00     0.014 A 
ENDBRANCH   5  12
BRANCH   7  18
HETATM   18  O3  UNK     1      12.732   3.921   8.559  1.00  0.00    -0.355 OA
HETATM   19  H9  UNK     1      11.825   4.018   8.228  1.00  0.00     0.218 HD
ENDBRANCH   7  18
BRANCH  10  20
HETATM   20  O2  UNK     1      16.824  10.385   9.874  1.00  0.00    -0.356 OA
HETATM   21  C16 UNK     1      17.638  10.854   8.799  1.00  0.00     0.210 C 
ENDBRANCH  10  20
TORSDOF 3
ENDMDL
MODEL 3
REMARK VINA RESULT:      -8.3     24.495     26.652
REMARK  3 active torsions:
REMARK  status: ('A' for Active; 'I' for Inactive)
REMARK    1  A    between atoms: C9_13  and  O2_2 
REMARK    2  A    between atoms: C5_9  and  O3_3 
REMARK    3  A    between atoms: C3_7  and  C6_10 
ROOT
HETATM    1  O1  UNK     1      18.944  -0.219  33.042  1.00  0.00    -0.306 OA
HETATM    2  O4  UNK     1      21.217  -3.524  32.327  1.00  0.00    -0.284 OA
HETATM    3  C1  UNK     1      20.194  -1.580  31.469  1.00  0.00     0.051 A 
HETATM    4  C2  UNK     1      19.411  -0.470  31.778  1.00  0.00     0.093 A 
HETATM    5  C3  UNK     1      19.274  -1.101  34.057  1.00  0.00     0.123 A 
HETATM    6  C4  UNK     1      20.537  -2.529  32.540  1.00  0.00     0.220 A 
HETATM    7  C5  UNK     1      20.013  -2.214  33.891  1.00  0.00     0.152 A 
HETATM    8  C7  UNK     1      19.069   0.442  30.779  1.00  0.00     0.075 A 
HETATM    9  C8  UNK     1      20.641  -1.786  30.161  1.00  0.00     0.021 A 
HETATM   10  C9  UNK     1      19.512   0.240  29.473  1.00  0.00     0.070 A 
HETATM   11  C10 UNK     1      20.298  -0.872  29.165  1.00  0.00     0.038 A 
ENDROOT
BRANCH   5  12
HETATM   12  C6  UNK     1      18.709  -0.715  35.362  1.00  0.00     0.001 A 
HETATM   13  C11 UNK     1      18.622   0.632  35.714  1.00  0.00     0.014 A 
HETATM   14  C13 UNK     1      18.086   0.998  36.948  1.00  0.00     0.001 A 
HETATM   15  C15 UNK     1      17.637   0.017  37.832  1.00  0.00     0.000 A 
HETATM   16  C14 UNK     1      17.724  -1.330  37.482  1.00  0.00     0.001 A 
HETATM   17  C12 UNK     1      18.260  -1.696  36.248  1.00  0.00     0.014 A 
ENDBRANCH   5  12
BRANCH   7  18
HETATM   18  O3  UNK     1      20.296  -3.090  34.915  1.00  0.00    -0.355 OA
HETATM   19  H9  UNK     1      20.599  -3.938  34.551  1.00  0.00     0.218 HD
ENDBRANCH   7  18
BRANCH  10  20
HETATM   20  O2  UNK     1      19.182   1.128  28.496  1.00  0.00    -0.356 OA
HETATM   21  C16 UNK     1      17.958   1.845  28.657  1.00  0.00     0.210 C 
ENDBRANCH  10  20
TORSDOF 3
ENDMDL
MODEL 4
REMARK VINA RESULT:      -8.1     21.747     24.059
REMARK  3 active torsions:
REMARK  status: ('A' for Active; 'I' for Inactive)
REMARK    1  A    between atoms: C9_13  and  O2_2 
REMARK    2  A    between atoms: C5_9  and  O3_3 
REMARK    3  A    between atoms: C3_7  and  C6_10 
ROOT
HETATM    1  O1  UNK     1      19.491   1.405  31.308  1.00  0.00    -0.306 OA
HETATM    2  O4  UNK     1      18.831  -0.021  27.549  1.00  0.00    -0.284 OA
HETATM    3  C1  UNK     1      19.602  -0.442  29.738  1.00  0.00     0.051 A 
HETATM    4  C2  UNK     1      19.806   0.107  31.002  1.00  0.00     0.093 A 
HETATM    5  C3  UNK     1      18.937   2.203  30.320  1.00  0.00     0.123 A 
HETATM    6  C4  UNK     1      19.027   0.404  28.680  1.00  0.00     0.220 A 
HETATM    7  C5  UNK     1      18.699   1.799  29.058  1.00  0.00     0.152 A 
HETATM    8  C7  UNK     1      20.353  -0.673  32.021  1.00  0.00     0.075 A 
HETATM    9  C8  UNK     1      19.944  -1.772  29.483  1.00  0.00     0.021 A 
HETATM   10  C9  UNK     1      20.696  -2.002  31.771  1.00  0.00     0.070 A 
HETATM   11  C10 UNK     1      20.491  -2.550  30.504  1.00  0.00     0.038 A 
ENDROOT
BRANCH   5  12
HETATM   12  C6  UNK     1      18.647   3.573  30.781  1.00  0.00     0.001 A 
HETATM   13  C11 UNK     1      17.903   3.775  31.943  1.00  0.00     0.014 A 
HETATM   14  C13 UNK     1      17.630   5.071  32.380  1.00  0.00     0.001 A 
HETATM   15  C15 UNK     1      18.101   6.165  31.654  1.00  0.00     0.000 A 
HETATM   16  C14 UNK     1      18.845   5.964  30.492  1.00  0.00     0.001 A 
HETATM   17  C12 UNK     1      19.118   4.668  30.055  1.00  0.00     0.014 A 
ENDBRANCH   5  12
BRANCH   7  18
HETATM   18  O3  UNK     1      18.178   2.628  28.088  1.00  0.00    -0.355 OA
HETATM   19  H9  UNK     1      17.649   2.109  27.461  1.00  0.00     0.218 HD
ENDBRANCH   7  18
BRANCH  10  20
HETATM   20  O2  UNK     1      21.229  -2.766  32.762  1.00  0.00    -0.356 OA
HETATM   21  C16 UNK     1      20.564  -2.748  34.025  1.00  0.00     0.210 C 
ENDBRANCH  10  20
TORSDOF 3
ENDMDL
MODEL 5
REMARK VINA RESULT:      -8.0     23.883     26.114
REMARK  3 active torsions:
REMARK  status: ('A' for Active; 'I' for Inactive)
REMARK    1  A    between atoms: C9_13  and  O2_2 
REMARK    2  A    between atoms: C5_9  and  O3_3 
REMARK    3  A    between atoms: C3_7  and  C6_10 
ROOT
HETATM    1  O1  UNK     1      18.901  -0.270  33.078  1.00  0.00    -0.306 OA
HETATM    2  O4  UNK     1      18.879   2.720  30.310  1.00  0.00    -0.284 OA
HETATM    3  C1  UNK     1      19.456   0.496  30.843  1.00  0.00     0.051 A 
HETATM    4  C2  UNK     1      19.435  -0.483  31.834  1.00  0.00     0.093 A 
HETATM    5  C3  UNK     1      18.349   0.969  33.358  1.00  0.00     0.123 A 
HETATM    6  C4  UNK     1      18.884   1.819  31.138  1.00  0.00     0.220 A 
HETATM    7  C5  UNK     1      18.314   2.002  32.495  1.00  0.00     0.152 A 
HETATM    8  C7  UNK     1      19.975  -1.744  31.580  1.00  0.00     0.075 A 
HETATM    9  C8  UNK     1      20.015   0.223  29.592  1.00  0.00     0.021 A 
HETATM   10  C9  UNK     1      20.535  -2.021  30.333  1.00  0.00     0.070 A 
HETATM   11  C10 UNK     1      20.555  -1.039  29.341  1.00  0.00     0.038 A 
ENDROOT
BRANCH   5  12
HETATM   12  C6  UNK     1      17.812   1.064  34.727  1.00  0.00     0.001 A 
HETATM   13  C11 UNK     1      16.552   0.540  35.021  1.00  0.00     0.014 A 
HETATM   14  C13 UNK     1      16.044   0.629  36.317  1.00  0.00     0.001 A 
HETATM   15  C15 UNK     1      16.795   1.242  37.319  1.00  0.00     0.000 A 
HETATM   16  C14 UNK     1      18.054   1.765  37.027  1.00  0.00     0.001 A 
HETATM   17  C12 UNK     1      18.562   1.677  35.731  1.00  0.00     0.014 A 
ENDBRANCH   5  12
BRANCH   7  18
HETATM   18  O3  UNK     1      17.788   3.234  32.816  1.00  0.00    -0.355 OA
HETATM   19  H9  UNK     1      18.261   3.607  33.577  1.00  0.00     0.218 HD
ENDBRANCH   7  18
BRANCH  10  20
HETATM   20  O2  UNK     1      21.062  -3.250  30.080  1.00  0.00    -0.356 OA
HETATM   21  C16 UNK     1      21.486  -4.019  31.206  1.00  0.00     0.210 C 
ENDBRANCH  10  20
TORSDOF 3
ENDMDL
MODEL 6
REMARK VINA RESULT:      -7.9     25.297     27.373
REMARK  3 active torsions:
REMARK  status: ('A' for Active; 'I' for Inactive)
REMARK    1  A    between atoms: C9_13  and  O2_2 
REMARK    2  A    between atoms: C5_9  and  O3_3 
REMARK    3  A    between atoms: C3_7  and  C6_10 
ROOT
HETATM    1  O1  UNK     1      18.793  -0.604  33.513  1.00  0.00    -0.306 OA
HETATM    2  O4  UNK     1      20.687  -3.505  35.656  1.00  0.00    -0.284 OA
HETATM    3  C1  UNK     1      19.130  -1.735  35.634  1.00  0.00     0.051 A 
HETATM    4  C2  UNK     1      18.519  -0.760  34.846  1.00  0.00     0.093 A 
HETATM    5  C3  UNK     1      19.709  -1.457  32.920  1.00  0.00     0.123 A 
HETATM    6  C4  UNK     1      20.114  -2.635  35.014  1.00  0.00     0.220 A 
HETATM    7  C5  UNK     1      20.376  -2.430  33.569  1.00  0.00     0.152 A 
HETATM    8  C7  UNK     1      17.585   0.108  35.412  1.00  0.00     0.075 A 
HETATM    9  C8  UNK     1      18.812  -1.848  36.989  1.00  0.00     0.021 A 
HETATM   10  C9  UNK     1      17.264  -0.001  36.765  1.00  0.00     0.070 A 
HETATM   11  C10 UNK     1      17.877  -0.978  37.552  1.00  0.00     0.038 A 
ENDROOT
BRANCH   5  12
HETATM   12  C6  UNK     1      19.911  -1.180  31.487  1.00  0.00     0.001 A 
HETATM   13  C11 UNK     1      19.821   0.128  31.009  1.00  0.00     0.014 A 
HETATM   14  C13 UNK     1      20.013   0.391  29.653  1.00  0.00     0.001 A 
HETATM   15  C15 UNK     1      20.295  -0.654  28.774  1.00  0.00     0.000 A 
HETATM   16  C14 UNK     1      20.386  -1.961  29.250  1.00  0.00     0.001 A 
HETATM   17  C12 UNK     1      20.194  -2.224  30.606  1.00  0.00     0.014 A 
ENDBRANCH   5  12
BRANCH   7  18
HETATM   18  O3  UNK     1      21.307  -3.241  32.958  1.00  0.00    -0.355 OA
HETATM   19  H9  UNK     1      21.901  -2.705  32.407  1.00  0.00     0.218 HD
ENDBRANCH   7  18
BRANCH  10  20
HETATM   20  O2  UNK     1      16.353   0.843  37.320  1.00  0.00    -0.356 OA
HETATM   21  C16 UNK     1      15.083   0.941  36.676  1.00  0.00     0.210 C 
ENDBRANCH  10  20
TORSDOF 3
ENDMDL
MODEL 7
REMARK VINA RESULT:      -7.6     11.208     13.228
REMARK  3 active torsions:
REMARK  status: ('A' for Active; 'I' for Inactive)
REMARK    1  A    between atoms: C9_13  and  O2_2 
REMARK    2  A    between atoms: C5_9  and  O3_3 
REMARK    3  A    between atoms: C3_7  and  C6_10 
ROOT
HETATM    1  O1  UNK     1      18.987  -0.860  17.674  1.00  0.00    -0.306 OA
HETATM    2  O4  UNK     1      19.423   2.323  15.168  1.00  0.00    -0.284 OA
HETATM    3  C1  UNK     1      19.166   1.543  17.378  1.00  0.00     0.051 A 
HETATM    4  C2  UNK     1      19.016   0.413  18.180  1.00  0.00     0.093 A 
HETATM    5  C3  UNK     1      19.122  -1.031  16.306  1.00  0.00     0.123 A 
HETATM    6  C4  UNK     1      19.295   1.369  15.923  1.00  0.00     0.220 A 
HETATM    7  C5  UNK     1      19.262  -0.026  15.421  1.00  0.00     0.152 A 
HETATM    8  C7  UNK     1      18.888   0.552  19.563  1.00  0.00     0.075 A 
HETATM    9  C8  UNK     1      19.187   2.817  17.950  1.00  0.00     0.021 A 
HETATM   10  C9  UNK     1      18.908   1.822  20.138  1.00  0.00     0.070 A 
HETATM   11  C10 UNK     1      19.058   2.953  19.333  1.00  0.00     0.038 A 
ENDROOT
BRANCH   5  12
HETATM   12  C6  UNK     1      19.073  -2.445  15.895  1.00  0.00     0.001 A 
HETATM   13  C11 UNK     1      20.246  -3.199  15.844  1.00  0.00     0.014 A 
HETATM   14  C13 UNK     1      20.199  -4.538  15.457  1.00  0.00     0.001 A 
HETATM   15  C15 UNK     1      18.980  -5.124  15.119  1.00  0.00     0.000 A 
HETATM   16  C14 UNK     1      17.807  -4.372  15.169  1.00  0.00     0.001 A 
HETATM   17  C12 UNK     1      17.853  -3.033  15.557  1.00  0.00     0.014 A 
ENDBRANCH   5  12
BRANCH   7  18
HETATM   18  O3  UNK     1      19.360  -0.228  14.062  1.00  0.00    -0.355 OA
HETATM   19  H9  UNK     1      19.234   0.613  13.593  1.00  0.00     0.218 HD
ENDBRANCH   7  18
BRANCH  10  20
HETATM   20  O2  UNK     1      18.784   1.962  21.486  1.00  0.00    -0.356 OA
HETATM   21  C16 UNK     1      19.976   2.236  22.223  1.00  0.00     0.210 C 
ENDBRANCH  10  20
TORSDOF 3
ENDMDL
MODEL 8
REMARK VINA RESULT:      -7.5      2.197      6.648
REMARK  3 active torsions:
REMARK  status: ('A' for Active; 'I' for Inactive)
REMARK    1  A    between atoms: C9_13  and  O2_2 
REMARK    2  A    between atoms: C5_9  and  O3_3 
REMARK    3  A    between atoms: C3_7  and  C6_10 
ROOT
HETATM    1  O1  UNK     1      11.524   7.501   9.139  1.00  0.00    -0.306 OA
HETATM    2  O4  UNK     1      11.584   6.070   5.325  1.00  0.00    -0.284 OA
HETATM    3  C1  UNK     1      10.300   6.736   7.187  1.00  0.00     0.051 A 
HETATM    4  C2  UNK     1      10.348   7.224   8.492  1.00  0.00     0.093 A 
HETATM    5  C3  UNK     1      12.716   7.295   8.464  1.00  0.00     0.123 A 
HETATM    6  C4  UNK     1      11.563   6.503   6.469  1.00  0.00     0.220 A 
HETATM    7  C5  UNK     1      12.809   6.819   7.208  1.00  0.00     0.152 A 
HETATM    8  C7  UNK     1       9.165   7.451   9.195  1.00  0.00     0.075 A 
HETATM    9  C8  UNK     1       9.072   6.472   6.578  1.00  0.00     0.021 A 
HETATM   10  C9  UNK     1       7.936   7.187   8.591  1.00  0.00     0.070 A 
HETATM   11  C10 UNK     1       7.890   6.699   7.284  1.00  0.00     0.038 A 
ENDROOT
BRANCH   5  12
HETATM   12  C6  UNK     1      13.901   7.630   9.273  1.00  0.00     0.001 A 
HETATM   13  C11 UNK     1      14.532   6.642  10.029  1.00  0.00     0.014 A 
HETATM   14  C13 UNK     1      15.655   6.959  10.794  1.00  0.00     0.001 A 
HETATM   15  C15 UNK     1      16.147   8.264  10.803  1.00  0.00     0.000 A 
HETATM   16  C14 UNK     1      15.518   9.252  10.047  1.00  0.00     0.001 A 
HETATM   17  C12 UNK     1      14.395   8.935   9.282  1.00  0.00     0.014 A 
ENDBRANCH   5  12
BRANCH   7  18
HETATM   18  O3  UNK     1      14.012   6.594   6.575  1.00  0.00    -0.355 OA
HETATM   19  H9  UNK     1      14.351   7.425   6.205  1.00  0.00     0.218 HD
ENDBRANCH   7  18
BRANCH  10  20
HETATM   20  O2  UNK     1       6.779   7.407   9.273  1.00  0.00    -0.356 OA
HETATM   21  C16 UNK     1       6.896   7.920  10.600  1.00  0.00     0.210 C 
ENDBRANCH  10  20
TORSDOF 3
ENDMDL
MODEL 9
REMARK VINA RESULT:      -7.5     23.460     25.418
REMARK  3 active torsions:
REMARK  status: ('A' for Active; 'I' for Inactive)
REMARK    1  A    between atoms: C9_13  and  O2_2 
REMARK    2  A    between atoms: C5_9  and  O3_3 
REMARK    3  A    between atoms: C3_7  and  C6_10 
ROOT
HETATM    1  O1  UNK     1      17.872   3.449  33.471  1.00  0.00    -0.306 OA
HETATM    2  O4  UNK     1      19.243   1.908  29.957  1.00  0.00    -0.284 OA
HETATM    3  C1  UNK     1      18.615   3.818  31.190  1.00  0.00     0.051 A 
HETATM    4  C2  UNK     1      18.141   4.282  32.416  1.00  0.00     0.093 A 
HETATM    5  C3  UNK     1      18.089   2.090  33.314  1.00  0.00     0.123 A 
HETATM    6  C4  UNK     1      18.835   2.374  31.012  1.00  0.00     0.220 A 
HETATM    7  C5  UNK     1      18.532   1.514  32.182  1.00  0.00     0.152 A 
HETATM    8  C7  UNK     1      17.921   5.646  32.607  1.00  0.00     0.075 A 
HETATM    9  C8  UNK     1      18.872   4.714  30.149  1.00  0.00     0.021 A 
HETATM   10  C9  UNK     1      18.176   6.543  31.571  1.00  0.00     0.070 A 
HETATM   11  C10 UNK     1      18.651   6.077  30.343  1.00  0.00     0.038 A 
ENDROOT
BRANCH   5  12
HETATM   12  C6  UNK     1      17.759   1.312  34.521  1.00  0.00     0.001 A 
HETATM   13  C11 UNK     1      16.572   0.581  34.578  1.00  0.00     0.014 A 
HETATM   14  C13 UNK     1      16.260  -0.157  35.719  1.00  0.00     0.001 A 
HETATM   15  C15 UNK     1      17.135  -0.164  36.806  1.00  0.00     0.000 A 
HETATM   16  C14 UNK     1      18.321   0.567  36.751  1.00  0.00     0.001 A 
HETATM   17  C12 UNK     1      18.633   1.305  35.609  1.00  0.00     0.014 A 
ENDBRANCH   5  12
BRANCH   7  18
HETATM   18  O3  UNK     1      18.706   0.154  32.047  1.00  0.00    -0.355 OA
HETATM   19  H9  UNK     1      18.971  -0.057  31.137  1.00  0.00     0.218 HD
ENDBRANCH   7  18
BRANCH  10  20
HETATM   20  O2  UNK     1      17.964   7.875  31.754  1.00  0.00    -0.356 OA
HETATM   21  C16 UNK     1      17.672   8.309  33.082  1.00  0.00     0.210 C 
ENDBRANCH  10  20
TORSDOF 3
ENDMDL
MODEL 10
REMARK VINA RESULT:      -7.4     25.371     27.533
REMARK  3 active torsions:
REMARK  status: ('A' for Active; 'I' for Inactive)
REMARK    1  A    between atoms: C9_13  and  O2_2 
REMARK    2  A    between atoms: C5_9  and  O3_3 
REMARK    3  A    between atoms: C3_7  and  C6_10 
ROOT
HETATM    1  O1  UNK     1      19.646  -1.570  33.643  1.00  0.00    -0.306 OA
HETATM    2  O4  UNK     1      17.375   1.273  35.475  1.00  0.00    -0.284 OA
HETATM    3  C1  UNK     1      18.600  -0.733  35.666  1.00  0.00     0.051 A 
HETATM    4  C2  UNK     1      19.367  -1.673  34.981  1.00  0.00     0.093 A 
HETATM    5  C3  UNK     1      19.152  -0.481  32.945  1.00  0.00     0.123 A 
HETATM    6  C4  UNK     1      18.061   0.420  34.928  1.00  0.00     0.220 A 
HETATM    7  C5  UNK     1      18.391   0.490  33.484  1.00  0.00     0.152 A 
HETATM    8  C7  UNK     1      19.887  -2.776  35.657  1.00  0.00     0.075 A 
HETATM    9  C8  UNK     1      18.347  -0.889  37.031  1.00  0.00     0.021 A 
HETATM   10  C9  UNK     1      19.637  -2.936  37.020  1.00  0.00     0.070 A 
HETATM   11  C10 UNK     1      18.868  -1.994  37.706  1.00  0.00     0.038 A 
ENDROOT
BRANCH   5  12
HETATM   12  C6  UNK     1      19.524  -0.494  31.519  1.00  0.00     0.001 A 
HETATM   13  C11 UNK     1      20.043  -1.654  30.943  1.00  0.00     0.014 A 
HETATM   14  C13 UNK     1      20.393  -1.667  29.593  1.00  0.00     0.001 A 
HETATM   15  C15 UNK     1      20.226  -0.519  28.818  1.00  0.00     0.000 A 
HETATM   16  C14 UNK     1      19.707   0.641  29.392  1.00  0.00     0.001 A 
HETATM   17  C12 UNK     1      19.357   0.654  30.742  1.00  0.00     0.014 A 
ENDBRANCH   5  12
BRANCH   7  18
HETATM   18  O3  UNK     1      17.886   1.544  32.755  1.00  0.00    -0.355 OA
HETATM   19  H9  UNK     1      17.177   1.981  33.253  1.00  0.00     0.218 HD
ENDBRANCH   7  18
BRANCH  10  20
HETATM   20  O2  UNK     1      20.143  -4.011  37.685  1.00  0.00    -0.356 OA
HETATM   21  C16 UNK     1      20.099  -5.269  37.012  1.00  0.00     0.210 C 
ENDBRANCH  10  20
TORSDOF 3
ENDMDL
