MODEL 1
REMARK VINA RESULT:      -9.0      0.000      0.000
REMARK  3 active torsions:
REMARK  status: ('A' for Active; 'I' for Inactive)
REMARK    1  A    between atoms: C5_9  and  O2_2 
REMARK    2  A    between atoms: C13_17  and  O4_4 
REMARK    3  A    between atoms: C1_5  and  C4_8 
ROOT
HETATM    1  O1  UNK     1      18.845  -0.259  32.758  1.00  0.00    -0.306 OA
HETATM    2  O3  UNK     1      18.912   2.866  30.142  1.00  0.00    -0.284 OA
HETATM    3  C1  UNK     1      18.308   0.975  33.091  1.00  0.00     0.123 A 
HETATM    4  C2  UNK     1      19.444   0.608  30.571  1.00  0.00     0.051 A 
HETATM    5  C3  UNK     1      19.392  -0.419  31.511  1.00  0.00     0.090 A 
HETATM    6  C5  UNK     1      18.302   2.048  32.280  1.00  0.00     0.152 A 
HETATM    7  C6  UNK     1      18.889   1.924  30.924  1.00  0.00     0.220 A 
HETATM    8  C7  UNK     1      20.014   0.387  29.315  1.00  0.00     0.018 A 
HETATM    9  C8  UNK     1      19.913  -1.675  31.201  1.00  0.00     0.038 A 
HETATM   10  C11 UNK     1      20.534  -0.870  29.007  1.00  0.00     0.001 A 
HETATM   11  C12 UNK     1      20.484  -1.900  29.948  1.00  0.00     0.003 A 
ENDROOT
BRANCH   3  12
HETATM   12  C4  UNK     1      17.753   1.010  34.455  1.00  0.00     0.003 A 
HETATM   13  C10 UNK     1      16.517   0.423  34.721  1.00  0.00     0.014 A 
HETATM   14  C14 UNK     1      15.991   0.454  36.012  1.00  0.00     0.004 A 
HETATM   15  C15 UNK     1      16.702   1.075  37.040  1.00  0.00     0.036 A 
HETATM   16  C13 UNK     1      17.939   1.663  36.775  1.00  0.00     0.066 A 
HETATM   17  C9  UNK     1      18.465   1.630  35.483  1.00  0.00     0.051 A 
BRANCH  16  18
HETATM   18  O4  UNK     1      18.633   2.266  37.779  1.00  0.00    -0.361 OA
HETATM   19  H10 UNK     1      18.652   1.673  38.549  1.00  0.00     0.217 HD
ENDBRANCH  16  18
ENDBRANCH   3  12
BRANCH   6  20
HETATM   20  O2  UNK     1      17.790   3.272  32.655  1.00  0.00    -0.355 OA
HETATM   21  H9  UNK     1      18.262   3.983  32.193  1.00  0.00     0.218 HD
ENDBRANCH   6  20
TORSDOF 3
ENDMDL
MODEL 2
REMARK VINA RESULT:      -8.9      1.406      2.833
REMARK  3 active torsions:
REMARK  status: ('A' for Active; 'I' for Inactive)
REMARK    1  A    between atoms: C5_9  and  O2_2 
REMARK    2  A    between atoms: C13_17  and  O4_4 
REMARK    3  A    between atoms: C1_5  and  C4_8 
ROOT
HETATM    1  O1  UNK     1      18.625   0.257  32.490  1.00  0.00    -0.306 OA
HETATM    2  O3  UNK     1      20.890  -3.130  32.583  1.00  0.00    -0.284 OA
HETATM    3  C1  UNK     1      18.734  -0.509  33.641  1.00  0.00     0.123 A 
HETATM    4  C2  UNK     1      20.106  -1.284  31.340  1.00  0.00     0.051 A 
HETATM    5  C3  UNK     1      19.313  -0.140  31.373  1.00  0.00     0.090 A 
HETATM    6  C5  UNK     1      19.459  -1.639  33.739  1.00  0.00     0.152 A 
HETATM    7  C6  UNK     1      20.215  -2.110  32.554  1.00  0.00     0.220 A 
HETATM    8  C7  UNK     1      20.785  -1.639  30.172  1.00  0.00     0.018 A 
HETATM    9  C8  UNK     1      19.192   0.658  30.235  1.00  0.00     0.038 A 
HETATM   10  C11 UNK     1      20.663  -0.840  29.035  1.00  0.00     0.001 A 
HETATM   11  C12 UNK     1      19.868   0.307  29.066  1.00  0.00     0.003 A 
ENDROOT
BRANCH   3  12
HETATM   12  C4  UNK     1      17.948   0.028  34.765  1.00  0.00     0.003 A 
HETATM   13  C10 UNK     1      16.586  -0.258  34.864  1.00  0.00     0.014 A 
HETATM   14  C14 UNK     1      15.842   0.248  35.928  1.00  0.00     0.004 A 
HETATM   15  C15 UNK     1      16.459   1.042  36.896  1.00  0.00     0.036 A 
HETATM   16  C13 UNK     1      17.821   1.328  36.799  1.00  0.00     0.066 A 
HETATM   17  C9  UNK     1      18.566   0.820  35.733  1.00  0.00     0.051 A 
BRANCH  16  18
HETATM   18  O4  UNK     1      18.422   2.100  37.744  1.00  0.00    -0.361 OA
HETATM   19  H10 UNK     1      19.155   2.589  37.333  1.00  0.00     0.217 HD
ENDBRANCH  16  18
ENDBRANCH   3  12
BRANCH   6  20
HETATM   20  O2  UNK     1      19.520  -2.395  34.890  1.00  0.00    -0.355 OA
HETATM   21  H9  UNK     1      19.153  -3.279  34.723  1.00  0.00     0.218 HD
ENDBRANCH   6  20
TORSDOF 3
ENDMDL
MODEL 3
REMARK VINA RESULT:      -8.4     23.949     26.164
REMARK  3 active torsions:
REMARK  status: ('A' for Active; 'I' for Inactive)
REMARK    1  A    between atoms: C5_9  and  O2_2 
REMARK    2  A    between atoms: C13_17  and  O4_4 
REMARK    3  A    between atoms: C1_5  and  C4_8 
ROOT
HETATM    1  O1  UNK     1      13.260   7.574   8.472  1.00  0.00    -0.306 OA
HETATM    2  O3  UNK     1      15.253   4.249   9.729  1.00  0.00    -0.284 OA
HETATM    3  C1  UNK     1      12.708   6.308   8.343  1.00  0.00     0.123 A 
HETATM    4  C2  UNK     1      15.227   6.597   9.505  1.00  0.00     0.051 A 
HETATM    5  C3  UNK     1      14.496   7.693   9.052  1.00  0.00     0.090 A 
HETATM    6  C5  UNK     1      13.313   5.170   8.731  1.00  0.00     0.152 A 
HETATM    7  C6  UNK     1      14.655   5.249   9.357  1.00  0.00     0.220 A 
HETATM    8  C7  UNK     1      16.483   6.778  10.088  1.00  0.00     0.018 A 
HETATM    9  C8  UNK     1      15.018   8.980   9.179  1.00  0.00     0.038 A 
HETATM   10  C11 UNK     1      17.004   8.067  10.214  1.00  0.00     0.001 A 
HETATM   11  C12 UNK     1      16.273   9.166   9.760  1.00  0.00     0.003 A 
ENDROOT
BRANCH   3  12
HETATM   12  C4  UNK     1      11.380   6.322   7.708  1.00  0.00     0.003 A 
HETATM   13  C10 UNK     1      11.270   6.247   6.319  1.00  0.00     0.014 A 
HETATM   14  C14 UNK     1      10.013   6.258   5.716  1.00  0.00     0.004 A 
HETATM   15  C15 UNK     1       8.863   6.345   6.502  1.00  0.00     0.036 A 
HETATM   16  C13 UNK     1       8.972   6.421   7.891  1.00  0.00     0.066 A 
HETATM   17  C9  UNK     1      10.230   6.408   8.494  1.00  0.00     0.051 A 
BRANCH  16  18
HETATM   18  O4  UNK     1       7.850   6.504   8.657  1.00  0.00    -0.361 OA
HETATM   19  H10 UNK     1       7.485   7.402   8.585  1.00  0.00     0.217 HD
ENDBRANCH  16  18
ENDBRANCH   3  12
BRANCH   6  20
HETATM   20  O2  UNK     1      12.751   3.924   8.558  1.00  0.00    -0.355 OA
HETATM   21  H9  UNK     1      13.092   3.518   7.744  1.00  0.00     0.218 HD
ENDBRANCH   6  20
TORSDOF 3
ENDMDL
MODEL 4
REMARK VINA RESULT:      -8.3      2.407      6.659
REMARK  3 active torsions:
REMARK  status: ('A' for Active; 'I' for Inactive)
REMARK    1  A    between atoms: C5_9  and  O2_2 
REMARK    2  A    between atoms: C13_17  and  O4_4 
REMARK    3  A    between atoms: C1_5  and  C4_8 
ROOT
HETATM    1  O1  UNK     1      18.700  -0.639  33.694  1.00  0.00    -0.306 OA
HETATM    2  O3  UNK     1      20.688  -3.548  35.740  1.00  0.00    -0.284 OA
HETATM    3  C1  UNK     1      19.622  -1.462  33.067  1.00  0.00     0.123 A 
HETATM    4  C2  UNK     1      19.094  -1.810  35.783  1.00  0.00     0.051 A 
HETATM    5  C3  UNK     1      18.451  -0.831  35.028  1.00  0.00     0.090 A 
HETATM    6  C5  UNK     1      20.317  -2.436  33.683  1.00  0.00     0.152 A 
HETATM    7  C6  UNK     1      20.086  -2.677  35.127  1.00  0.00     0.220 A 
HETATM    8  C7  UNK     1      18.800  -1.960  37.140  1.00  0.00     0.018 A 
HETATM    9  C8  UNK     1      17.509   0.005  35.627  1.00  0.00     0.038 A 
HETATM   10  C11 UNK     1      17.858  -1.123  37.737  1.00  0.00     0.001 A 
HETATM   11  C12 UNK     1      17.213  -0.142  36.982  1.00  0.00     0.003 A 
ENDROOT
BRANCH   3  12
HETATM   12  C4  UNK     1      19.793  -1.150  31.638  1.00  0.00     0.003 A 
HETATM   13  C10 UNK     1      20.191  -2.148  30.748  1.00  0.00     0.014 A 
HETATM   14  C14 UNK     1      20.352  -1.854  29.395  1.00  0.00     0.004 A 
HETATM   15  C15 UNK     1      20.115  -0.560  28.929  1.00  0.00     0.036 A 
HETATM   16  C13 UNK     1      19.717   0.439  29.817  1.00  0.00     0.066 A 
HETATM   17  C9  UNK     1      19.556   0.144  31.172  1.00  0.00     0.051 A 
BRANCH  16  18
HETATM   18  O4  UNK     1      19.484   1.700  29.362  1.00  0.00    -0.361 OA
HETATM   19  H10 UNK     1      18.614   1.994  29.680  1.00  0.00     0.217 HD
ENDBRANCH  16  18
ENDBRANCH   3  12
BRANCH   6  20
HETATM   20  O2  UNK     1      21.252  -3.216  33.037  1.00  0.00    -0.355 OA
HETATM   21  H9  UNK     1      22.127  -2.796  33.093  1.00  0.00     0.218 HD
ENDBRANCH   6  20
TORSDOF 3
ENDMDL
MODEL 5
REMARK VINA RESULT:      -8.2     23.983     26.201
REMARK  3 active torsions:
REMARK  status: ('A' for Active; 'I' for Inactive)
REMARK    1  A    between atoms: C5_9  and  O2_2 
REMARK    2  A    between atoms: C13_17  and  O4_4 
REMARK    3  A    between atoms: C1_5  and  C4_8 
ROOT
HETATM    1  O1  UNK     1      13.265   7.594   8.671  1.00  0.00    -0.306 OA
HETATM    2  O3  UNK     1      15.375   4.262   9.697  1.00  0.00    -0.284 OA
HETATM    3  C1  UNK     1      12.720   6.325   8.544  1.00  0.00     0.123 A 
HETATM    4  C2  UNK     1      15.309   6.614   9.540  1.00  0.00     0.051 A 
HETATM    5  C3  UNK     1      14.536   7.713   9.168  1.00  0.00     0.090 A 
HETATM    6  C5  UNK     1      13.362   5.185   8.858  1.00  0.00     0.152 A 
HETATM    7  C6  UNK     1      14.742   5.264   9.394  1.00  0.00     0.220 A 
HETATM    8  C7  UNK     1      16.599   6.796  10.042  1.00  0.00     0.018 A 
HETATM    9  C8  UNK     1      15.053   9.003   9.295  1.00  0.00     0.038 A 
HETATM   10  C11 UNK     1      17.113   8.087  10.168  1.00  0.00     0.001 A 
HETATM   11  C12 UNK     1      16.341   9.189   9.795  1.00  0.00     0.003 A 
ENDROOT
BRANCH   3  12
HETATM   12  C4  UNK     1      11.352   6.340   8.000  1.00  0.00     0.003 A 
HETATM   13  C10 UNK     1      10.258   6.238   8.859  1.00  0.00     0.014 A 
HETATM   14  C14 UNK     1       8.962   6.253   8.346  1.00  0.00     0.004 A 
HETATM   15  C15 UNK     1       8.758   6.369   6.970  1.00  0.00     0.036 A 
HETATM   16  C13 UNK     1       9.851   6.471   6.109  1.00  0.00     0.066 A 
HETATM   17  C9  UNK     1      11.148   6.457   6.624  1.00  0.00     0.051 A 
BRANCH  16  18
HETATM   18  O4  UNK     1       9.651   6.586   4.768  1.00  0.00    -0.361 OA
HETATM   19  H10 UNK     1       9.174   7.414   4.590  1.00  0.00     0.217 HD
ENDBRANCH  16  18
ENDBRANCH   3  12
BRANCH   6  20
HETATM   20  O2  UNK     1      12.803   3.937   8.689  1.00  0.00    -0.355 OA
HETATM   21  H9  UNK     1      13.497   3.258   8.714  1.00  0.00     0.218 HD
ENDBRANCH   6  20
TORSDOF 3
ENDMDL
MODEL 6
REMARK VINA RESULT:      -8.0     13.661     17.270
REMARK  3 active torsions:
REMARK  status: ('A' for Active; 'I' for Inactive)
REMARK    1  A    between atoms: C5_9  and  O2_2 
REMARK    2  A    between atoms: C13_17  and  O4_4 
REMARK    3  A    between atoms: C1_5  and  C4_8 
ROOT
HETATM    1  O1  UNK     1      18.880  -1.047  17.707  1.00  0.00    -0.306 OA
HETATM    2  O3  UNK     1      19.362   2.341  15.495  1.00  0.00    -0.284 OA
HETATM    3  C1  UNK     1      19.086  -1.101  16.338  1.00  0.00     0.123 A 
HETATM    4  C2  UNK     1      19.018   1.375  17.619  1.00  0.00     0.051 A 
HETATM    5  C3  UNK     1      18.857   0.180  18.317  1.00  0.00     0.090 A 
HETATM    6  C5  UNK     1      19.247  -0.024  15.548  1.00  0.00     0.152 A 
HETATM    7  C6  UNK     1      19.222   1.325  16.163  1.00  0.00     0.220 A 
HETATM    8  C7  UNK     1      18.986   2.597  18.294  1.00  0.00     0.018 A 
HETATM    9  C8  UNK     1      18.660   0.201  19.699  1.00  0.00     0.038 A 
HETATM   10  C11 UNK     1      18.788   2.615  19.675  1.00  0.00     0.001 A 
HETATM   11  C12 UNK     1      18.626   1.419  20.377  1.00  0.00     0.003 A 
ENDROOT
BRANCH   3  12
HETATM   12  C4  UNK     1      19.090  -2.477  15.811  1.00  0.00     0.003 A 
HETATM   13  C10 UNK     1      17.891  -3.085  15.439  1.00  0.00     0.014 A 
HETATM   14  C14 UNK     1      17.894  -4.387  14.939  1.00  0.00     0.004 A 
HETATM   15  C15 UNK     1      19.098  -5.082  14.810  1.00  0.00     0.036 A 
HETATM   16  C13 UNK     1      20.297  -4.474  15.181  1.00  0.00     0.066 A 
HETATM   17  C9  UNK     1      20.294  -3.171  15.681  1.00  0.00     0.051 A 
BRANCH  16  18
HETATM   18  O4  UNK     1      21.470  -5.152  15.053  1.00  0.00    -0.361 OA
HETATM   19  H10 UNK     1      21.310  -6.095  15.228  1.00  0.00     0.217 HD
ENDBRANCH  16  18
ENDBRANCH   3  12
BRANCH   6  20
HETATM   20  O2  UNK     1      19.417  -0.111  14.183  1.00  0.00    -0.355 OA
HETATM   21  H9  UNK     1      19.379   0.776  13.788  1.00  0.00     0.218 HD
ENDBRANCH   6  20
TORSDOF 3
ENDMDL
MODEL 7
REMARK VINA RESULT:      -7.8      1.975      3.777
REMARK  3 active torsions:
REMARK  status: ('A' for Active; 'I' for Inactive)
REMARK    1  A    between atoms: C5_9  and  O2_2 
REMARK    2  A    between atoms: C13_17  and  O4_4 
REMARK    3  A    between atoms: C1_5  and  C4_8 
ROOT
HETATM    1  O1  UNK     1      17.905   3.569  33.382  1.00  0.00    -0.306 OA
HETATM    2  O3  UNK     1      19.235   1.695  30.016  1.00  0.00    -0.284 OA
HETATM    3  C1  UNK     1      18.036   2.190  33.326  1.00  0.00     0.123 A 
HETATM    4  C2  UNK     1      18.713   3.725  31.098  1.00  0.00     0.051 A 
HETATM    5  C3  UNK     1      18.249   4.304  32.277  1.00  0.00     0.090 A 
HETATM    6  C5  UNK     1      18.463   1.508  32.247  1.00  0.00     0.152 A 
HETATM    7  C6  UNK     1      18.840   2.261  31.027  1.00  0.00     0.220 A 
HETATM    8  C7  UNK     1      19.048   4.525  30.004  1.00  0.00     0.018 A 
HETATM    9  C8  UNK     1      18.116   5.690  32.369  1.00  0.00     0.038 A 
HETATM   10  C11 UNK     1      18.915   5.911  30.097  1.00  0.00     0.001 A 
HETATM   11  C12 UNK     1      18.450   6.493  31.278  1.00  0.00     0.003 A 
ENDROOT
BRANCH   3  12
HETATM   12  C4  UNK     1      17.635   1.523  34.576  1.00  0.00     0.003 A 
HETATM   13  C10 UNK     1      16.713   0.477  34.545  1.00  0.00     0.014 A 
HETATM   14  C14 UNK     1      16.334  -0.156  35.728  1.00  0.00     0.004 A 
HETATM   15  C15 UNK     1      16.877   0.258  36.945  1.00  0.00     0.036 A 
HETATM   16  C13 UNK     1      17.799   1.303  36.978  1.00  0.00     0.066 A 
HETATM   17  C9  UNK     1      18.179   1.936  35.793  1.00  0.00     0.051 A 
BRANCH  16  18
HETATM   18  O4  UNK     1      18.330   1.704  38.165  1.00  0.00    -0.361 OA
HETATM   19  H10 UNK     1      19.081   2.298  37.991  1.00  0.00     0.217 HD
ENDBRANCH  16  18
ENDBRANCH   3  12
BRANCH   6  20
HETATM   20  O2  UNK     1      18.551   0.133  32.214  1.00  0.00    -0.355 OA
HETATM   21  H9  UNK     1      19.044  -0.185  32.988  1.00  0.00     0.218 HD
ENDBRANCH   6  20
TORSDOF 3
ENDMDL
MODEL 8
REMARK VINA RESULT:      -7.6     24.116     26.301
REMARK  3 active torsions:
REMARK  status: ('A' for Active; 'I' for Inactive)
REMARK    1  A    between atoms: C5_9  and  O2_2 
REMARK    2  A    between atoms: C13_17  and  O4_4 
REMARK    3  A    between atoms: C1_5  and  C4_8 
ROOT
HETATM    1  O1  UNK     1      12.825   7.471   7.647  1.00  0.00    -0.306 OA
HETATM    2  O3  UNK     1       9.654   8.335  10.057  1.00  0.00    -0.284 OA
HETATM    3  C1  UNK     1      12.992   8.137   8.851  1.00  0.00     0.123 A 
HETATM    4  C2  UNK     1      10.436   7.350   8.062  1.00  0.00     0.051 A 
HETATM    5  C3  UNK     1      11.561   7.088   7.282  1.00  0.00     0.090 A 
HETATM    6  C5  UNK     1      11.991   8.458   9.690  1.00  0.00     0.152 A 
HETATM    7  C6  UNK     1      10.605   8.070   9.334  1.00  0.00     0.220 A 
HETATM    8  C7  UNK     1       9.171   6.935   7.638  1.00  0.00     0.018 A 
HETATM    9  C8  UNK     1      11.426   6.408   6.070  1.00  0.00     0.038 A 
HETATM   10  C11 UNK     1       9.039   6.256   6.426  1.00  0.00     0.001 A 
HETATM   11  C12 UNK     1      10.164   5.993   5.644  1.00  0.00     0.003 A 
ENDROOT
BRANCH   3  12
HETATM   12  C4  UNK     1      14.396   8.489   9.123  1.00  0.00     0.003 A 
HETATM   13  C10 UNK     1      14.887   9.740   8.751  1.00  0.00     0.014 A 
HETATM   14  C14 UNK     1      16.215  10.075   9.009  1.00  0.00     0.004 A 
HETATM   15  C15 UNK     1      17.056   9.157   9.640  1.00  0.00     0.036 A 
HETATM   16  C13 UNK     1      16.567   7.905  10.012  1.00  0.00     0.066 A 
HETATM   17  C9  UNK     1      15.237   7.571   9.754  1.00  0.00     0.051 A 
BRANCH  16  18
HETATM   18  O4  UNK     1      17.387   7.011  10.629  1.00  0.00    -0.361 OA
HETATM   19  H10 UNK     1      17.218   7.037  11.587  1.00  0.00     0.217 HD
ENDBRANCH  16  18
ENDBRANCH   3  12
BRANCH   6  20
HETATM   20  O2  UNK     1      12.188   9.151  10.866  1.00  0.00    -0.355 OA
HETATM   21  H9  UNK     1      13.120   9.091  11.131  1.00  0.00     0.218 HD
ENDBRANCH   6  20
TORSDOF 3
ENDMDL
MODEL 9
REMARK VINA RESULT:      -7.6      3.389      5.294
REMARK  3 active torsions:
REMARK  status: ('A' for Active; 'I' for Inactive)
REMARK    1  A    between atoms: C5_9  and  O2_2 
REMARK    2  A    between atoms: C13_17  and  O4_4 
REMARK    3  A    between atoms: C1_5  and  C4_8 
ROOT
HETATM    1  O1  UNK     1      18.040   3.490  33.217  1.00  0.00    -0.306 OA
HETATM    2  O3  UNK     1      19.247   1.908  29.660  1.00  0.00    -0.284 OA
HETATM    3  C1  UNK     1      18.239   4.288  32.101  1.00  0.00     0.123 A 
HETATM    4  C2  UNK     1      18.652   1.536  31.912  1.00  0.00     0.051 A 
HETATM    5  C3  UNK     1      18.242   2.139  33.100  1.00  0.00     0.090 A 
HETATM    6  C5  UNK     1      18.641   3.833  30.900  1.00  0.00     0.152 A 
HETATM    7  C6  UNK     1      18.879   2.379  30.728  1.00  0.00     0.220 A 
HETATM    8  C7  UNK     1      18.843   0.154  31.852  1.00  0.00     0.018 A 
HETATM    9  C8  UNK     1      18.022   1.361  34.237  1.00  0.00     0.038 A 
HETATM   10  C11 UNK     1      18.622  -0.622  32.991  1.00  0.00     0.001 A 
HETATM   11  C12 UNK     1      18.212  -0.019  34.181  1.00  0.00     0.003 A 
ENDROOT
BRANCH   3  12
HETATM   12  C4  UNK     1      17.986   5.715  32.362  1.00  0.00     0.003 A 
HETATM   13  C10 UNK     1      18.691   6.376  33.368  1.00  0.00     0.014 A 
HETATM   14  C14 UNK     1      18.453   7.728  33.615  1.00  0.00     0.004 A 
HETATM   15  C15 UNK     1      17.508   8.420  32.857  1.00  0.00     0.036 A 
HETATM   16  C13 UNK     1      16.802   7.760  31.851  1.00  0.00     0.066 A 
HETATM   17  C9  UNK     1      17.041   6.407  31.603  1.00  0.00     0.051 A 
BRANCH  16  18
HETATM   18  O4  UNK     1      15.882   8.436  31.110  1.00  0.00    -0.361 OA
HETATM   19  H10 UNK     1      16.345   9.057  30.523  1.00  0.00     0.217 HD
ENDBRANCH  16  18
ENDBRANCH   3  12
BRANCH   6  20
HETATM   20  O2  UNK     1      18.862   4.658  29.819  1.00  0.00    -0.355 OA
HETATM   21  H9  UNK     1      18.865   5.586  30.107  1.00  0.00     0.218 HD
ENDBRANCH   6  20
TORSDOF 3
ENDMDL
MODEL 10
REMARK VINA RESULT:      -7.5     25.421     26.924
REMARK  3 active torsions:
REMARK  status: ('A' for Active; 'I' for Inactive)
REMARK    1  A    between atoms: C5_9  and  O2_2 
REMARK    2  A    between atoms: C13_17  and  O4_4 
REMARK    3  A    between atoms: C1_5  and  C4_8 
ROOT
HETATM    1  O1  UNK     1       7.708   4.396   8.937  1.00  0.00    -0.306 OA
HETATM    2  O3  UNK     1       6.590   7.147  11.728  1.00  0.00    -0.284 OA
HETATM    3  C1  UNK     1       8.294   5.651   8.990  1.00  0.00     0.123 A 
HETATM    4  C2  UNK     1       6.320   4.978  10.841  1.00  0.00     0.051 A 
HETATM    5  C3  UNK     1       6.744   4.085   9.860  1.00  0.00     0.090 A 
HETATM    6  C5  UNK     1       7.969   6.607   9.880  1.00  0.00     0.152 A 
HETATM    7  C6  UNK     1       6.927   6.317  10.894  1.00  0.00     0.220 A 
HETATM    8  C7  UNK     1       5.333   4.605  11.757  1.00  0.00     0.018 A 
HETATM    9  C8  UNK     1       6.182   2.809   9.788  1.00  0.00     0.038 A 
HETATM   10  C11 UNK     1       4.772   3.330  11.683  1.00  0.00     0.001 A 
HETATM   11  C12 UNK     1       5.196   2.433  10.700  1.00  0.00     0.003 A 
ENDROOT
BRANCH   3  12
HETATM   12  C4  UNK     1       9.312   5.855   7.945  1.00  0.00     0.003 A 
HETATM   13  C10 UNK     1       8.938   6.339   6.692  1.00  0.00     0.014 A 
HETATM   14  C14 UNK     1       9.901   6.534   5.702  1.00  0.00     0.004 A 
HETATM   15  C15 UNK     1      11.240   6.244   5.966  1.00  0.00     0.036 A 
HETATM   16  C13 UNK     1      11.615   5.760   7.219  1.00  0.00     0.066 A 
HETATM   17  C9  UNK     1      10.651   5.566   8.209  1.00  0.00     0.051 A 
BRANCH  16  18
HETATM   18  O4  UNK     1      12.922   5.480   7.476  1.00  0.00    -0.361 OA
HETATM   19  H10 UNK     1      13.451   5.692   6.688  1.00  0.00     0.217 HD
ENDBRANCH  16  18
ENDBRANCH   3  12
BRANCH   6  20
HETATM   20  O2  UNK     1       8.549   7.858   9.885  1.00  0.00    -0.355 OA
HETATM   21  H9  UNK     1       8.280   8.349   9.091  1.00  0.00     0.218 HD
ENDBRANCH   6  20
TORSDOF 3
ENDMDL
