MODEL 1
REMARK VINA RESULT:      -8.7      0.000      0.000
REMARK  5 active torsions:
REMARK  status: ('A' for Active; 'I' for Inactive)
REMARK    1  A    between atoms: C13_19  and  N1_4 
REMARK    2  A    between atoms: C4_10  and  N1_4 
REMARK    3  A    between atoms: C10_16  and  N2_5 
REMARK    4  A    between atoms: C13_19  and  N2_5 
REMARK    5  A    between atoms: C10_16  and  C12_18 
ROOT
HETATM    1  N1  UNK     1      17.568   4.380  32.397  1.00  0.00    -0.333 N 
HETATM    2  H5  UNK     1      16.679   4.440  31.908  1.00  0.00     0.168 HD
ENDROOT
BRANCH   1   3
HETATM    3  C13 UNK     1      17.940   3.066  32.733  1.00  0.00     0.172 C 
HETATM    4  S1  UNK     1      18.282   2.451  34.258  1.00  0.00    -0.041 SA
BRANCH   3   5
HETATM    5  N2  UNK     1      17.989   2.172  31.671  1.00  0.00    -0.363 N 
HETATM    6  H11 UNK     1      17.495   1.295  31.814  1.00  0.00     0.162 HD
BRANCH   5   7
HETATM    7  C10 UNK     1      18.656   2.363  30.397  1.00  0.00     0.162 C 
BRANCH   7   8
HETATM    8  C12 UNK     1      19.259   1.075  29.950  1.00  0.00    -0.023 A 
HETATM    9  C14 UNK     1      20.013   0.300  30.822  1.00  0.00     0.012 A 
HETATM   10  C16 UNK     1      20.563  -0.897  30.378  1.00  0.00     0.020 A 
HETATM   11  C17 UNK     1      20.331  -1.269  29.064  1.00  0.00     0.116 A 
HETATM   12  N3  UNK     1      19.603  -0.540  28.188  1.00  0.00    -0.273 NA
HETATM   13  C15 UNK     1      19.084   0.617  28.655  1.00  0.00     0.124 A 
ENDBRANCH   7   8
ENDBRANCH   5   7
ENDBRANCH   3   5
ENDBRANCH   1   3
BRANCH   1  14
HETATM   14  C4  UNK     1      18.015   5.627  32.832  1.00  0.00     0.036 A 
HETATM   15  C5  UNK     1      17.125   6.690  32.941  1.00  0.00     0.067 A 
HETATM   16  C2  UNK     1      17.594   7.929  33.379  1.00  0.00     0.092 A 
HETATM   17  C1  UNK     1      18.932   8.144  33.714  1.00  0.00     0.004 A 
HETATM   18  O1  UNK     1      16.645   8.967  33.470  1.00  0.00    -0.275 OA
HETATM   19  C3  UNK     1      19.338   9.482  34.166  1.00  0.00    -0.043 A 
HETATM   20  C6  UNK     1      19.813   7.061  33.598  1.00  0.00     0.017 A 
HETATM   21  C8  UNK     1      18.415  10.450  34.243  1.00  0.00     0.090 A 
HETATM   22  C9  UNK     1      20.770   9.745  34.534  1.00  0.00     0.049 C 
HETATM   23  C11 UNK     1      17.000  10.239  33.893  1.00  0.00     0.288 A 
HETATM   24  O2  UNK     1      16.182  11.149  33.975  1.00  0.00    -0.260 OA
HETATM   25  C7  UNK     1      19.358   5.812  33.160  1.00  0.00     0.030 A 
ENDBRANCH   1  14
TORSDOF 5
ENDMDL
MODEL 2
REMARK VINA RESULT:      -8.7      9.871     14.197
REMARK  5 active torsions:
REMARK  status: ('A' for Active; 'I' for Inactive)
REMARK    1  A    between atoms: C13_19  and  N1_4 
REMARK    2  A    between atoms: C4_10  and  N1_4 
REMARK    3  A    between atoms: C10_16  and  N2_5 
REMARK    4  A    between atoms: C13_19  and  N2_5 
REMARK    5  A    between atoms: C10_16  and  C12_18 
ROOT
HETATM    1  N1  UNK     1      18.441  -5.051  36.442  1.00  0.00    -0.333 N 
HETATM    2  H5  UNK     1      17.540  -5.034  35.972  1.00  0.00     0.168 HD
ENDROOT
BRANCH   1   3
HETATM    3  C13 UNK     1      18.924  -3.774  36.784  1.00  0.00     0.172 C 
HETATM    4  S1  UNK     1      20.483  -3.353  37.244  1.00  0.00    -0.041 SA
BRANCH   3   5
HETATM    5  N2  UNK     1      17.998  -2.743  36.688  1.00  0.00    -0.363 N 
HETATM    6  H11 UNK     1      17.333  -2.823  35.924  1.00  0.00     0.162 HD
BRANCH   5   7
HETATM    7  C10 UNK     1      17.882  -1.587  37.558  1.00  0.00     0.162 C 
BRANCH   7   8
HETATM    8  C12 UNK     1      18.100  -0.343  36.767  1.00  0.00    -0.023 A 
HETATM    9  C14 UNK     1      17.797   0.904  37.300  1.00  0.00     0.012 A 
HETATM   10  C16 UNK     1      18.011   2.048  36.540  1.00  0.00     0.020 A 
HETATM   11  C17 UNK     1      18.526   1.891  35.263  1.00  0.00     0.116 A 
HETATM   12  N3  UNK     1      18.832   0.694  34.712  1.00  0.00    -0.273 NA
HETATM   13  C15 UNK     1      18.611  -0.395  35.481  1.00  0.00     0.124 A 
ENDBRANCH   7   8
ENDBRANCH   5   7
ENDBRANCH   3   5
ENDBRANCH   1   3
BRANCH   1  14
HETATM   14  C4  UNK     1      19.055  -6.300  36.360  1.00  0.00     0.036 A 
HETATM   15  C5  UNK     1      18.730  -7.298  37.272  1.00  0.00     0.067 A 
HETATM   16  C2  UNK     1      19.355  -8.542  37.171  1.00  0.00     0.092 A 
HETATM   17  C1  UNK     1      20.300  -8.824  36.184  1.00  0.00     0.004 A 
HETATM   18  O1  UNK     1      18.984  -9.514  38.123  1.00  0.00    -0.275 OA
HETATM   19  C3  UNK     1      20.908 -10.161  36.152  1.00  0.00    -0.043 A 
HETATM   20  C6  UNK     1      20.613  -7.805  35.274  1.00  0.00     0.017 A 
HETATM   21  C8  UNK     1      20.537 -11.065  37.069  1.00  0.00     0.090 A 
HETATM   22  C9  UNK     1      21.927 -10.496  35.103  1.00  0.00     0.049 C 
HETATM   23  C11 UNK     1      19.541 -10.783  38.117  1.00  0.00     0.288 A 
HETATM   24  O2  UNK     1      19.226 -11.635  38.941  1.00  0.00    -0.260 OA
HETATM   25  C7  UNK     1      19.995  -6.553  35.362  1.00  0.00     0.030 A 
ENDBRANCH   1  14
TORSDOF 5
ENDMDL
MODEL 3
REMARK VINA RESULT:      -8.6      5.504      8.822
REMARK  5 active torsions:
REMARK  status: ('A' for Active; 'I' for Inactive)
REMARK    1  A    between atoms: C13_19  and  N1_4 
REMARK    2  A    between atoms: C4_10  and  N1_4 
REMARK    3  A    between atoms: C10_16  and  N2_5 
REMARK    4  A    between atoms: C13_19  and  N2_5 
REMARK    5  A    between atoms: C10_16  and  C12_18 
ROOT
HETATM    1  N1  UNK     1      18.692  -0.371  31.331  1.00  0.00    -0.333 N 
HETATM    2  H5  UNK     1      17.897  -0.795  30.860  1.00  0.00     0.168 HD
ENDROOT
BRANCH   1   3
HETATM    3  C13 UNK     1      19.660   0.144  30.450  1.00  0.00     0.172 C 
HETATM    4  S1  UNK     1      20.693  -0.715  29.441  1.00  0.00    -0.041 SA
BRANCH   3   5
HETATM    5  N2  UNK     1      19.733   1.530  30.390  1.00  0.00    -0.363 N 
HETATM    6  H11 UNK     1      20.577   1.940  30.779  1.00  0.00     0.162 HD
BRANCH   5   7
HETATM    7  C10 UNK     1      18.746   2.435  29.831  1.00  0.00     0.162 C 
BRANCH   7   8
HETATM    8  C12 UNK     1      18.710   3.692  30.631  1.00  0.00    -0.023 A 
HETATM    9  C14 UNK     1      19.208   4.881  30.114  1.00  0.00     0.012 A 
HETATM   10  C16 UNK     1      19.162   6.038  30.883  1.00  0.00     0.020 A 
HETATM   11  C17 UNK     1      18.612   5.952  32.151  1.00  0.00     0.116 A 
HETATM   12  N3  UNK     1      18.119   4.812  32.687  1.00  0.00    -0.273 NA
HETATM   13  C15 UNK     1      18.181   3.708  31.910  1.00  0.00     0.124 A 
ENDBRANCH   7   8
ENDBRANCH   5   7
ENDBRANCH   3   5
ENDBRANCH   1   3
BRANCH   1  14
HETATM   14  C4  UNK     1      18.718  -0.670  32.693  1.00  0.00     0.036 A 
HETATM   15  C5  UNK     1      19.488  -1.728  33.161  1.00  0.00     0.067 A 
HETATM   16  C2  UNK     1      19.502  -2.008  34.528  1.00  0.00     0.092 A 
HETATM   17  C1  UNK     1      18.766  -1.262  35.449  1.00  0.00     0.004 A 
HETATM   18  O1  UNK     1      20.301  -3.093  34.943  1.00  0.00    -0.275 OA
HETATM   19  C3  UNK     1      18.839  -1.627  36.871  1.00  0.00    -0.043 A 
HETATM   20  C6  UNK     1      17.996  -0.198  34.958  1.00  0.00     0.017 A 
HETATM   21  C8  UNK     1      19.607  -2.663  37.236  1.00  0.00     0.090 A 
HETATM   22  C9  UNK     1      18.059  -0.844  37.886  1.00  0.00     0.049 C 
HETATM   23  C11 UNK     1      20.389  -3.460  36.276  1.00  0.00     0.288 A 
HETATM   24  O2  UNK     1      21.081  -4.402  36.647  1.00  0.00    -0.260 OA
HETATM   25  C7  UNK     1      17.973   0.095  33.590  1.00  0.00     0.030 A 
ENDBRANCH   1  14
TORSDOF 5
ENDMDL
MODEL 4
REMARK VINA RESULT:      -8.6      4.649      8.142
REMARK  5 active torsions:
REMARK  status: ('A' for Active; 'I' for Inactive)
REMARK    1  A    between atoms: C13_19  and  N1_4 
REMARK    2  A    between atoms: C4_10  and  N1_4 
REMARK    3  A    between atoms: C10_16  and  N2_5 
REMARK    4  A    between atoms: C13_19  and  N2_5 
REMARK    5  A    between atoms: C10_16  and  C12_18 
ROOT
HETATM    1  N1  UNK     1      18.740  -0.219  31.114  1.00  0.00    -0.333 N 
HETATM    2  H5  UNK     1      17.801  -0.398  30.771  1.00  0.00     0.168 HD
ENDROOT
BRANCH   1   3
HETATM    3  C13 UNK     1      19.632   0.213  30.115  1.00  0.00     0.172 C 
HETATM    4  S1  UNK     1      20.602  -0.735  29.123  1.00  0.00    -0.041 SA
BRANCH   3   5
HETATM    5  N2  UNK     1      19.678   1.586  29.911  1.00  0.00    -0.363 N 
HETATM    6  H11 UNK     1      20.608   1.994  29.894  1.00  0.00     0.162 HD
BRANCH   5   7
HETATM    7  C10 UNK     1      18.551   2.479  29.716  1.00  0.00     0.162 C 
BRANCH   7   8
HETATM    8  C12 UNK     1      18.653   3.626  30.662  1.00  0.00    -0.023 A 
HETATM    9  C14 UNK     1      18.151   3.533  31.953  1.00  0.00     0.012 A 
HETATM   10  C16 UNK     1      18.261   4.619  32.814  1.00  0.00     0.020 A 
HETATM   11  C17 UNK     1      18.875   5.765  32.337  1.00  0.00     0.116 A 
HETATM   12  N3  UNK     1      19.374   5.892  31.086  1.00  0.00    -0.273 NA
HETATM   13  C15 UNK     1      19.249   4.815  30.278  1.00  0.00     0.124 A 
ENDBRANCH   7   8
ENDBRANCH   5   7
ENDBRANCH   3   5
ENDBRANCH   1   3
BRANCH   1  14
HETATM   14  C4  UNK     1      18.935  -0.715  32.402  1.00  0.00     0.036 A 
HETATM   15  C5  UNK     1      18.274  -0.137  33.480  1.00  0.00     0.067 A 
HETATM   16  C2  UNK     1      18.482  -0.651  34.761  1.00  0.00     0.092 A 
HETATM   17  C1  UNK     1      19.335  -1.728  35.003  1.00  0.00     0.004 A 
HETATM   18  O1  UNK     1      17.783  -0.024  35.813  1.00  0.00    -0.275 OA
HETATM   19  C3  UNK     1      19.495  -2.203  36.384  1.00  0.00    -0.043 A 
HETATM   20  C6  UNK     1      19.992  -2.297  33.904  1.00  0.00     0.017 A 
HETATM   21  C8  UNK     1      18.818  -1.589  37.365  1.00  0.00     0.090 A 
HETATM   22  C9  UNK     1      20.405  -3.360  36.678  1.00  0.00     0.049 C 
HETATM   23  C11 UNK     1      17.915  -0.451  37.126  1.00  0.00     0.288 A 
HETATM   24  O2  UNK     1      17.312   0.087  38.048  1.00  0.00    -0.260 OA
HETATM   25  C7  UNK     1      19.793  -1.793  32.613  1.00  0.00     0.030 A 
ENDBRANCH   1  14
TORSDOF 5
ENDMDL
MODEL 5
REMARK VINA RESULT:      -8.5      3.753      8.989
REMARK  5 active torsions:
REMARK  status: ('A' for Active; 'I' for Inactive)
REMARK    1  A    between atoms: C13_19  and  N1_4 
REMARK    2  A    between atoms: C4_10  and  N1_4 
REMARK    3  A    between atoms: C10_16  and  N2_5 
REMARK    4  A    between atoms: C13_19  and  N2_5 
REMARK    5  A    between atoms: C10_16  and  C12_18 
ROOT
HETATM    1  N1  UNK     1      17.645   4.051  32.011  1.00  0.00    -0.333 N 
HETATM    2  H5  UNK     1      16.674   3.914  32.279  1.00  0.00     0.168 HD
ENDROOT
BRANCH   1   3
HETATM    3  C13 UNK     1      18.023   5.404  31.936  1.00  0.00     0.172 C 
HETATM    4  S1  UNK     1      19.346   6.059  31.134  1.00  0.00    -0.041 SA
BRANCH   3   5
HETATM    5  N2  UNK     1      17.171   6.297  32.574  1.00  0.00    -0.363 N 
HETATM    6  H11 UNK     1      16.419   6.668  32.001  1.00  0.00     0.162 HD
BRANCH   5   7
HETATM    7  C10 UNK     1      17.242   6.740  33.954  1.00  0.00     0.162 C 
BRANCH   7   8
HETATM    8  C12 UNK     1      18.041   7.995  34.036  1.00  0.00    -0.023 A 
HETATM    9  C14 UNK     1      19.364   7.972  34.459  1.00  0.00     0.012 A 
HETATM   10  C16 UNK     1      20.086   9.158  34.525  1.00  0.00     0.020 A 
HETATM   11  C17 UNK     1      19.443  10.330  34.160  1.00  0.00     0.116 A 
HETATM   12  N3  UNK     1      18.157  10.390  33.745  1.00  0.00    -0.273 NA
HETATM   13  C15 UNK     1      17.488   9.217  33.694  1.00  0.00     0.124 A 
ENDBRANCH   7   8
ENDBRANCH   5   7
ENDBRANCH   3   5
ENDBRANCH   1   3
BRANCH   1  14
HETATM   14  C4  UNK     1      18.231   2.880  31.533  1.00  0.00     0.036 A 
HETATM   15  C5  UNK     1      18.496   1.827  32.401  1.00  0.00     0.067 A 
HETATM   16  C2  UNK     1      19.082   0.663  31.901  1.00  0.00     0.092 A 
HETATM   17  C1  UNK     1      19.414   0.515  30.554  1.00  0.00     0.004 A 
HETATM   18  O1  UNK     1      19.326  -0.370  32.829  1.00  0.00    -0.275 OA
HETATM   19  C3  UNK     1      20.028  -0.746  30.114  1.00  0.00    -0.043 A 
HETATM   20  C6  UNK     1      19.138   1.587  29.694  1.00  0.00     0.017 A 
HETATM   21  C8  UNK     1      20.248  -1.710  31.018  1.00  0.00     0.090 A 
HETATM   22  C9  UNK     1      20.396  -0.936  28.671  1.00  0.00     0.049 C 
HETATM   23  C11 UNK     1      19.904  -1.569  32.443  1.00  0.00     0.288 A 
HETATM   24  O2  UNK     1      20.120  -2.474  33.242  1.00  0.00    -0.260 OA
HETATM   25  C7  UNK     1      18.552   2.761  30.181  1.00  0.00     0.030 A 
ENDBRANCH   1  14
TORSDOF 5
ENDMDL
MODEL 6
REMARK VINA RESULT:      -8.5      3.472      5.883
REMARK  5 active torsions:
REMARK  status: ('A' for Active; 'I' for Inactive)
REMARK    1  A    between atoms: C13_19  and  N1_4 
REMARK    2  A    between atoms: C4_10  and  N1_4 
REMARK    3  A    between atoms: C10_16  and  N2_5 
REMARK    4  A    between atoms: C13_19  and  N2_5 
REMARK    5  A    between atoms: C10_16  and  C12_18 
ROOT
HETATM    1  N1  UNK     1      18.676  -0.379  31.236  1.00  0.00    -0.333 N 
HETATM    2  H5  UNK     1      17.996  -0.803  30.611  1.00  0.00     0.168 HD
ENDROOT
BRANCH   1   3
HETATM    3  C13 UNK     1      19.210  -1.276  32.179  1.00  0.00     0.172 C 
HETATM    4  S1  UNK     1      20.662  -2.116  32.092  1.00  0.00    -0.041 SA
BRANCH   3   5
HETATM    5  N2  UNK     1      18.454  -1.449  33.331  1.00  0.00    -0.363 N 
HETATM    6  H11 UNK     1      17.519  -1.820  33.189  1.00  0.00     0.162 HD
BRANCH   5   7
HETATM    7  C10 UNK     1      18.859  -1.164  34.695  1.00  0.00     0.162 C 
BRANCH   7   8
HETATM    8  C12 UNK     1      17.767  -0.435  35.400  1.00  0.00    -0.023 A 
HETATM    9  C14 UNK     1      18.006   0.226  36.598  1.00  0.00     0.012 A 
HETATM   10  C16 UNK     1      16.968   0.898  37.233  1.00  0.00     0.020 A 
HETATM   11  C17 UNK     1      15.720   0.878  36.632  1.00  0.00     0.116 A 
HETATM   12  N3  UNK     1      15.450   0.245  35.467  1.00  0.00    -0.273 NA
HETATM   13  C15 UNK     1      16.484  -0.397  34.880  1.00  0.00     0.124 A 
ENDBRANCH   7   8
ENDBRANCH   5   7
ENDBRANCH   3   5
ENDBRANCH   1   3
BRANCH   1  14
HETATM   14  C4  UNK     1      18.672   1.013  31.155  1.00  0.00     0.036 A 
HETATM   15  C5  UNK     1      18.328   1.776  32.264  1.00  0.00     0.067 A 
HETATM   16  C2  UNK     1      18.332   3.169  32.160  1.00  0.00     0.092 A 
HETATM   17  C1  UNK     1      18.671   3.827  30.978  1.00  0.00     0.004 A 
HETATM   18  O1  UNK     1      17.975   3.889  33.318  1.00  0.00    -0.275 OA
HETATM   19  C3  UNK     1      18.649   5.296  30.959  1.00  0.00    -0.043 A 
HETATM   20  C6  UNK     1      19.015   3.040  29.871  1.00  0.00     0.017 A 
HETATM   21  C8  UNK     1      18.305   5.955  32.074  1.00  0.00     0.090 A 
HETATM   22  C9  UNK     1      19.008   6.034  29.702  1.00  0.00     0.049 C 
HETATM   23  C11 UNK     1      17.945   5.274  33.329  1.00  0.00     0.288 A 
HETATM   24  O2  UNK     1      17.636   5.910  34.331  1.00  0.00    -0.260 OA
HETATM   25  C7  UNK     1      19.015   1.643  29.959  1.00  0.00     0.030 A 
ENDBRANCH   1  14
TORSDOF 5
ENDMDL
MODEL 7
REMARK VINA RESULT:      -8.5      2.597      4.143
REMARK  5 active torsions:
REMARK  status: ('A' for Active; 'I' for Inactive)
REMARK    1  A    between atoms: C13_19  and  N1_4 
REMARK    2  A    between atoms: C4_10  and  N1_4 
REMARK    3  A    between atoms: C10_16  and  N2_5 
REMARK    4  A    between atoms: C13_19  and  N2_5 
REMARK    5  A    between atoms: C10_16  and  C12_18 
ROOT
HETATM    1  N1  UNK     1      18.117   3.935  31.186  1.00  0.00    -0.333 N 
HETATM    2  H5  UNK     1      17.510   4.076  30.383  1.00  0.00     0.168 HD
ENDROOT
BRANCH   1   3
HETATM    3  C13 UNK     1      18.339   2.581  31.496  1.00  0.00     0.172 C 
HETATM    4  S1  UNK     1      19.056   1.409  30.529  1.00  0.00    -0.041 SA
BRANCH   3   5
HETATM    5  N2  UNK     1      17.948   2.190  32.770  1.00  0.00    -0.363 N 
HETATM    6  H11 UNK     1      17.286   2.807  33.232  1.00  0.00     0.162 HD
BRANCH   5   7
HETATM    7  C10 UNK     1      18.376   1.007  33.492  1.00  0.00     0.162 C 
BRANCH   7   8
HETATM    8  C12 UNK     1      17.926   1.097  34.910  1.00  0.00    -0.023 A 
HETATM    9  C14 UNK     1      16.693   0.593  35.301  1.00  0.00     0.012 A 
HETATM   10  C16 UNK     1      16.300   0.690  36.631  1.00  0.00     0.020 A 
HETATM   11  C17 UNK     1      17.171   1.296  37.522  1.00  0.00     0.116 A 
HETATM   12  N3  UNK     1      18.379   1.798  37.176  1.00  0.00    -0.273 NA
HETATM   13  C15 UNK     1      18.726   1.685  35.875  1.00  0.00     0.124 A 
ENDBRANCH   7   8
ENDBRANCH   5   7
ENDBRANCH   3   5
ENDBRANCH   1   3
BRANCH   1  14
HETATM   14  C4  UNK     1      18.323   5.113  31.903  1.00  0.00     0.036 A 
HETATM   15  C5  UNK     1      17.238   5.845  32.372  1.00  0.00     0.067 A 
HETATM   16  C2  UNK     1      17.468   7.020  33.089  1.00  0.00     0.092 A 
HETATM   17  C1  UNK     1      18.754   7.493  33.354  1.00  0.00     0.004 A 
HETATM   18  O1  UNK     1      16.329   7.718  33.539  1.00  0.00    -0.275 OA
HETATM   19  C3  UNK     1      18.903   8.740  34.116  1.00  0.00    -0.043 A 
HETATM   20  C6  UNK     1      19.835   6.741  32.873  1.00  0.00     0.017 A 
HETATM   21  C8  UNK     1      17.802   9.382  34.532  1.00  0.00     0.090 A 
HETATM   22  C9  UNK     1      20.272   9.274  34.418  1.00  0.00     0.049 C 
HETATM   23  C11 UNK     1      16.439   8.897  34.260  1.00  0.00     0.288 A 
HETATM   24  O2  UNK     1      15.454   9.511  34.656  1.00  0.00    -0.260 OA
HETATM   25  C7  UNK     1      19.620   5.560  32.152  1.00  0.00     0.030 A 
ENDBRANCH   1  14
TORSDOF 5
ENDMDL
MODEL 8
REMARK VINA RESULT:      -8.3      9.965     14.331
REMARK  5 active torsions:
REMARK  status: ('A' for Active; 'I' for Inactive)
REMARK    1  A    between atoms: C13_19  and  N1_4 
REMARK    2  A    between atoms: C4_10  and  N1_4 
REMARK    3  A    between atoms: C10_16  and  N2_5 
REMARK    4  A    between atoms: C13_19  and  N2_5 
REMARK    5  A    between atoms: C10_16  and  C12_18 
ROOT
HETATM    1  N1  UNK     1      19.208  -5.008  35.827  1.00  0.00    -0.333 N 
HETATM    2  H5  UNK     1      19.097  -4.919  34.821  1.00  0.00     0.168 HD
ENDROOT
BRANCH   1   3
HETATM    3  C13 UNK     1      19.374  -3.778  36.489  1.00  0.00     0.172 C 
HETATM    4  S1  UNK     1      20.653  -3.302  37.468  1.00  0.00    -0.041 SA
BRANCH   3   5
HETATM    5  N2  UNK     1      18.372  -2.842  36.265  1.00  0.00    -0.363 N 
HETATM    6  H11 UNK     1      18.027  -2.791  35.311  1.00  0.00     0.162 HD
BRANCH   5   7
HETATM    7  C10 UNK     1      17.775  -1.950  37.241  1.00  0.00     0.162 C 
BRANCH   7   8
HETATM    8  C12 UNK     1      18.042  -0.535  36.855  1.00  0.00    -0.023 A 
HETATM    9  C14 UNK     1      17.508   0.517  37.587  1.00  0.00     0.012 A 
HETATM   10  C16 UNK     1      17.774   1.827  37.204  1.00  0.00     0.020 A 
HETATM   11  C17 UNK     1      18.574   2.026  36.091  1.00  0.00     0.116 A 
HETATM   12  N3  UNK     1      19.110   1.027  35.355  1.00  0.00    -0.273 NA
HETATM   13  C15 UNK     1      18.829  -0.232  35.757  1.00  0.00     0.124 A 
ENDBRANCH   7   8
ENDBRANCH   5   7
ENDBRANCH   3   5
ENDBRANCH   1   3
BRANCH   1  14
HETATM   14  C4  UNK     1      19.437  -6.327  36.217  1.00  0.00     0.036 A 
HETATM   15  C5  UNK     1      20.355  -7.110  35.527  1.00  0.00     0.067 A 
HETATM   16  C2  UNK     1      20.570  -8.428  35.935  1.00  0.00     0.092 A 
HETATM   17  C1  UNK     1      19.892  -8.993  37.016  1.00  0.00     0.004 A 
HETATM   18  O1  UNK     1      21.513  -9.171  35.197  1.00  0.00    -0.275 OA
HETATM   19  C3  UNK     1      20.181 -10.388  37.376  1.00  0.00    -0.043 A 
HETATM   20  C6  UNK     1      18.971  -8.188  37.699  1.00  0.00     0.017 A 
HETATM   21  C8  UNK     1      21.082 -11.071  36.657  1.00  0.00     0.090 A 
HETATM   22  C9  UNK     1      19.470 -11.025  38.534  1.00  0.00     0.049 C 
HETATM   23  C11 UNK     1      21.804 -10.489  35.513  1.00  0.00     0.288 A 
HETATM   24  O2  UNK     1      22.623 -11.144  34.878  1.00  0.00    -0.260 OA
HETATM   25  C7  UNK     1      18.745  -6.865  37.302  1.00  0.00     0.030 A 
ENDBRANCH   1  14
TORSDOF 5
ENDMDL
MODEL 9
REMARK VINA RESULT:      -8.2      1.784      2.241
REMARK  5 active torsions:
REMARK  status: ('A' for Active; 'I' for Inactive)
REMARK    1  A    between atoms: C13_19  and  N1_4 
REMARK    2  A    between atoms: C4_10  and  N1_4 
REMARK    3  A    between atoms: C10_16  and  N2_5 
REMARK    4  A    between atoms: C13_19  and  N2_5 
REMARK    5  A    between atoms: C10_16  and  C12_18 
ROOT
HETATM    1  N1  UNK     1      17.957   3.696  32.169  1.00  0.00    -0.333 N 
HETATM    2  H5  UNK     1      17.712   3.069  32.931  1.00  0.00     0.168 HD
ENDROOT
BRANCH   1   3
HETATM    3  C13 UNK     1      18.249   3.031  30.964  1.00  0.00     0.172 C 
HETATM    4  S1  UNK     1      18.630   3.715  29.478  1.00  0.00    -0.041 SA
BRANCH   3   5
HETATM    5  N2  UNK     1      18.256   1.644  31.036  1.00  0.00    -0.363 N 
HETATM    6  H11 UNK     1      17.505   1.231  31.583  1.00  0.00     0.162 HD
BRANCH   5   7
HETATM    7  C10 UNK     1      19.206   0.740  30.415  1.00  0.00     0.162 C 
BRANCH   7   8
HETATM    8  C12 UNK     1      19.579  -0.333  31.380  1.00  0.00    -0.023 A 
HETATM    9  C14 UNK     1      20.563  -1.263  31.067  1.00  0.00     0.012 A 
HETATM   10  C16 UNK     1      20.891  -2.253  31.987  1.00  0.00     0.020 A 
HETATM   11  C17 UNK     1      20.210  -2.268  33.193  1.00  0.00     0.116 A 
HETATM   12  N3  UNK     1      19.247  -1.380  33.531  1.00  0.00    -0.273 NA
HETATM   13  C15 UNK     1      18.956  -0.433  32.612  1.00  0.00     0.124 A 
ENDBRANCH   7   8
ENDBRANCH   5   7
ENDBRANCH   3   5
ENDBRANCH   1   3
BRANCH   1  14
HETATM   14  C4  UNK     1      18.198   4.996  32.611  1.00  0.00     0.036 A 
HETATM   15  C5  UNK     1      17.176   5.937  32.603  1.00  0.00     0.067 A 
HETATM   16  C2  UNK     1      17.439   7.233  33.052  1.00  0.00     0.092 A 
HETATM   17  C1  UNK     1      18.698   7.621  33.511  1.00  0.00     0.004 A 
HETATM   18  O1  UNK     1      16.363   8.143  33.020  1.00  0.00    -0.275 OA
HETATM   19  C3  UNK     1      18.886   9.006  33.966  1.00  0.00    -0.043 A 
HETATM   20  C6  UNK     1      19.716   6.657  33.513  1.00  0.00     0.017 A 
HETATM   21  C8  UNK     1      17.845   9.849  33.924  1.00  0.00     0.090 A 
HETATM   22  C9  UNK     1      20.228   9.454  34.466  1.00  0.00     0.049 C 
HETATM   23  C11 UNK     1      16.511   9.455  33.442  1.00  0.00     0.288 A 
HETATM   24  O2  UNK     1      15.582  10.254  33.418  1.00  0.00    -0.260 OA
HETATM   25  C7  UNK     1      19.467   5.354  33.065  1.00  0.00     0.030 A 
ENDBRANCH   1  14
TORSDOF 5
ENDMDL
MODEL 10
REMARK VINA RESULT:      -8.2      9.051     13.201
REMARK  5 active torsions:
REMARK  status: ('A' for Active; 'I' for Inactive)
REMARK    1  A    between atoms: C13_19  and  N1_4 
REMARK    2  A    between atoms: C4_10  and  N1_4 
REMARK    3  A    between atoms: C10_16  and  N2_5 
REMARK    4  A    between atoms: C13_19  and  N2_5 
REMARK    5  A    between atoms: C10_16  and  C12_18 
ROOT
HETATM    1  N1  UNK     1      18.887  -4.205  36.626  1.00  0.00    -0.333 N 
HETATM    2  H5  UNK     1      17.927  -4.535  36.593  1.00  0.00     0.168 HD
ENDROOT
BRANCH   1   3
HETATM    3  C13 UNK     1      19.040  -2.869  36.212  1.00  0.00     0.172 C 
HETATM    4  S1  UNK     1      20.457  -2.088  35.762  1.00  0.00    -0.041 SA
BRANCH   3   5
HETATM    5  N2  UNK     1      17.865  -2.133  36.135  1.00  0.00    -0.363 N 
HETATM    6  H11 UNK     1      17.142  -2.524  35.538  1.00  0.00     0.162 HD
BRANCH   5   7
HETATM    7  C10 UNK     1      17.568  -0.886  36.816  1.00  0.00     0.162 C 
BRANCH   7   8
HETATM    8  C12 UNK     1      17.779   0.256  35.883  1.00  0.00    -0.023 A 
HETATM    9  C14 UNK     1      18.605   1.318  36.230  1.00  0.00     0.012 A 
HETATM   10  C16 UNK     1      18.785   2.370  35.339  1.00  0.00     0.020 A 
HETATM   11  C17 UNK     1      18.120   2.311  34.125  1.00  0.00     0.116 A 
HETATM   12  N3  UNK     1      17.309   1.295  33.754  1.00  0.00    -0.273 NA
HETATM   13  C15 UNK     1      17.159   0.291  34.646  1.00  0.00     0.124 A 
ENDBRANCH   7   8
ENDBRANCH   5   7
ENDBRANCH   3   5
ENDBRANCH   1   3
BRANCH   1  14
HETATM   14  C4  UNK     1      19.797  -5.247  36.806  1.00  0.00     0.036 A 
HETATM   15  C5  UNK     1      19.863  -6.283  35.882  1.00  0.00     0.067 A 
HETATM   16  C2  UNK     1      20.782  -7.315  36.080  1.00  0.00     0.092 A 
HETATM   17  C1  UNK     1      21.642  -7.347  37.179  1.00  0.00     0.004 A 
HETATM   18  O1  UNK     1      20.803  -8.337  35.109  1.00  0.00    -0.275 OA
HETATM   19  C3  UNK     1      22.577  -8.472  37.308  1.00  0.00    -0.043 A 
HETATM   20  C6  UNK     1      21.560  -6.293  38.099  1.00  0.00     0.017 A 
HETATM   21  C8  UNK     1      22.575  -9.430  36.371  1.00  0.00     0.090 A 
HETATM   22  C9  UNK     1      23.515  -8.535  38.478  1.00  0.00     0.049 C 
HETATM   23  C11 UNK     1      21.674  -9.411  35.206  1.00  0.00     0.288 A 
HETATM   24  O2  UNK     1      21.700 -10.305  34.368  1.00  0.00    -0.260 OA
HETATM   25  C7  UNK     1      20.644  -5.251  37.913  1.00  0.00     0.030 A 
ENDBRANCH   1  14
TORSDOF 5
ENDMDL
