MODEL 1
REMARK VINA RESULT:      -9.5      0.000      0.000
REMARK  1 active torsions:
REMARK  status: ('A' for Active; 'I' for Inactive)
REMARK    1  A    between atoms: C2_6  and  C4_8 
ROOT
HETATM    1  O2  UNK     1      18.712   0.613  31.236  1.00  0.00    -0.275 OA
HETATM    2  O3  UNK     1      18.856   1.419  29.102  1.00  0.00    -0.260 OA
HETATM    3  C1  UNK     1      18.338   2.175  33.072  1.00  0.00     0.012 A 
HETATM    4  C2  UNK     1      18.321   3.290  32.108  1.00  0.00     0.017 A 
HETATM    5  C3  UNK     1      18.533   0.875  32.606  1.00  0.00     0.091 A 
HETATM    6  C5  UNK     1      18.192   1.265  35.323  1.00  0.00    -0.055 A 
HETATM    7  C6  UNK     1      18.167   2.358  34.451  1.00  0.00     0.022 A 
HETATM    8  C7  UNK     1      18.389  -0.024  34.831  1.00  0.00    -0.053 A 
HETATM    9  C8  UNK     1      18.561  -0.224  33.466  1.00  0.00     0.045 A 
HETATM   10  C12 UNK     1      18.495   3.002  30.807  1.00  0.00     0.097 A 
HETATM   11  C13 UNK     1      18.005   1.505  36.786  1.00  0.00     0.049 C 
HETATM   12  C14 UNK     1      18.418  -1.202  35.749  1.00  0.00     0.049 C 
HETATM   13  C15 UNK     1      18.702   1.635  30.298  1.00  0.00     0.289 A 
ENDROOT
BRANCH   4  14
HETATM   14  C4  UNK     1      18.135   4.651  32.428  1.00  0.00     0.088 A 
HETATM   15  C10 UNK     1      19.087   5.541  32.874  1.00  0.00     0.052 A 
HETATM   16  C9  UNK     1      18.424   6.784  33.055  1.00  0.00     0.002 A 
HETATM   17  C11 UNK     1      17.098   6.559  32.702  1.00  0.00     0.086 A 
HETATM   18  C16 UNK     1      18.798   8.072  33.478  1.00  0.00     0.038 A 
HETATM   19  O1  UNK     1      16.924   5.262  32.321  1.00  0.00    -0.309 OA
HETATM   20  C17 UNK     1      16.103   7.534  32.739  1.00  0.00     0.040 A 
HETATM   21  C19 UNK     1      16.496   8.807  33.162  1.00  0.00     0.026 A 
HETATM   22  C18 UNK     1      17.818   9.074  33.525  1.00  0.00     0.035 A 
HETATM   23 Cl1  UNK     1      18.256  10.659  34.042  1.00  0.00    -0.084 Cl
ENDBRANCH   4  14
TORSDOF 1
ENDMDL
MODEL 2
REMARK VINA RESULT:      -8.8      2.122      3.778
REMARK  1 active torsions:
REMARK  status: ('A' for Active; 'I' for Inactive)
REMARK    1  A    between atoms: C2_6  and  C4_8 
ROOT
HETATM    1  O2  UNK     1      18.251  -1.131  34.409  1.00  0.00    -0.275 OA
HETATM    2  O3  UNK     1      17.321  -0.583  36.424  1.00  0.00    -0.260 OA
HETATM    3  C1  UNK     1      18.746   0.643  32.810  1.00  0.00     0.012 A 
HETATM    4  C2  UNK     1      18.224   1.638  33.763  1.00  0.00     0.017 A 
HETATM    5  C3  UNK     1      18.743  -0.706  33.162  1.00  0.00     0.091 A 
HETATM    6  C5  UNK     1      19.737   0.006  30.681  1.00  0.00    -0.055 A 
HETATM    7  C6  UNK     1      19.253   0.990  31.550  1.00  0.00     0.022 A 
HETATM    8  C7  UNK     1      19.721  -1.336  31.058  1.00  0.00    -0.053 A 
HETATM    9  C8  UNK     1      19.223  -1.698  32.305  1.00  0.00     0.045 A 
HETATM   10  C12 UNK     1      17.762   1.196  34.946  1.00  0.00     0.097 A 
HETATM   11  C13 UNK     1      20.268   0.420  29.347  1.00  0.00     0.049 C 
HETATM   12  C14 UNK     1      20.235  -2.398  30.143  1.00  0.00     0.049 C 
HETATM   13  C15 UNK     1      17.751  -0.226  35.334  1.00  0.00     0.289 A 
ENDROOT
BRANCH   4  14
HETATM   14  C4  UNK     1      18.163   3.030  33.549  1.00  0.00     0.088 A 
HETATM   15  C10 UNK     1      18.551   4.026  34.418  1.00  0.00     0.052 A 
HETATM   16  C9  UNK     1      18.301   5.258  33.756  1.00  0.00     0.002 A 
HETATM   17  C11 UNK     1      17.773   4.920  32.515  1.00  0.00     0.086 A 
HETATM   18  C16 UNK     1      18.462   6.619  34.070  1.00  0.00     0.038 A 
HETATM   19  O1  UNK     1      17.690   3.565  32.391  1.00  0.00    -0.309 OA
HETATM   20  C17 UNK     1      17.388   5.848  31.550  1.00  0.00     0.040 A 
HETATM   21  C19 UNK     1      17.558   7.196  31.882  1.00  0.00     0.026 A 
HETATM   22  C18 UNK     1      18.085   7.577  33.118  1.00  0.00     0.035 A 
HETATM   23 Cl1  UNK     1      18.274   9.251  33.483  1.00  0.00    -0.084 Cl
ENDBRANCH   4  14
TORSDOF 1
ENDMDL
MODEL 3
REMARK VINA RESULT:      -8.6      3.362      7.517
REMARK  1 active torsions:
REMARK  status: ('A' for Active; 'I' for Inactive)
REMARK    1  A    between atoms: C2_6  and  C4_8 
ROOT
HETATM    1  O2  UNK     1      18.496   9.491  34.225  1.00  0.00    -0.275 OA
HETATM    2  O3  UNK     1      20.741   9.182  34.523  1.00  0.00    -0.260 OA
HETATM    3  C1  UNK     1      17.202   7.767  33.082  1.00  0.00     0.012 A 
HETATM    4  C2  UNK     1      18.428   6.965  32.921  1.00  0.00     0.017 A 
HETATM    5  C3  UNK     1      17.274   9.001  33.727  1.00  0.00     0.091 A 
HETATM    6  C5  UNK     1      14.816   8.144  32.793  1.00  0.00    -0.055 A 
HETATM    7  C6  UNK     1      15.950   7.345  32.614  1.00  0.00     0.022 A 
HETATM    8  C7  UNK     1      14.917   9.375  33.441  1.00  0.00    -0.053 A 
HETATM    9  C8  UNK     1      16.151   9.808  33.913  1.00  0.00     0.045 A 
HETATM   10  C12 UNK     1      19.577   7.465  33.408  1.00  0.00     0.097 A 
HETATM   11  C13 UNK     1      13.501   7.657  32.278  1.00  0.00     0.049 C 
HETATM   12  C14 UNK     1      13.716  10.239  33.641  1.00  0.00     0.049 C 
HETATM   13  C15 UNK     1      19.671   8.767  34.093  1.00  0.00     0.289 A 
ENDROOT
BRANCH   4  14
HETATM   14  C4  UNK     1      18.510   5.705  32.293  1.00  0.00     0.088 A 
HETATM   15  C10 UNK     1      18.727   5.451  30.957  1.00  0.00     0.052 A 
HETATM   16  C9  UNK     1      18.729   4.037  30.811  1.00  0.00     0.002 A 
HETATM   17  C11 UNK     1      18.512   3.526  32.086  1.00  0.00     0.086 A 
HETATM   18  C16 UNK     1      18.892   3.137  29.744  1.00  0.00     0.038 A 
HETATM   19  O1  UNK     1      18.378   4.542  32.985  1.00  0.00    -0.309 OA
HETATM   20  C17 UNK     1      18.442   2.166  32.381  1.00  0.00     0.040 A 
HETATM   21  C19 UNK     1      18.606   1.288  31.306  1.00  0.00     0.026 A 
HETATM   22  C18 UNK     1      18.827   1.762  30.010  1.00  0.00     0.035 A 
HETATM   23 Cl1  UNK     1      19.022   0.641  28.716  1.00  0.00    -0.084 Cl
ENDBRANCH   4  14
TORSDOF 1
ENDMDL
MODEL 4
REMARK VINA RESULT:      -8.5      6.538     10.502
REMARK  1 active torsions:
REMARK  status: ('A' for Active; 'I' for Inactive)
REMARK    1  A    between atoms: C2_6  and  C4_8 
ROOT
HETATM    1  O2  UNK     1      17.720   0.084  35.492  1.00  0.00    -0.275 OA
HETATM    2  O3  UNK     1      16.978   0.151  37.653  1.00  0.00    -0.260 OA
HETATM    3  C1  UNK     1      19.203  -1.726  34.802  1.00  0.00     0.012 A 
HETATM    4  C2  UNK     1      19.151  -2.278  36.167  1.00  0.00     0.017 A 
HETATM    5  C3  UNK     1      18.488  -0.565  34.508  1.00  0.00     0.091 A 
HETATM    6  C5  UNK     1      19.962  -1.751  32.490  1.00  0.00    -0.055 A 
HETATM    7  C6  UNK     1      19.946  -2.316  33.770  1.00  0.00     0.022 A 
HETATM    8  C7  UNK     1      19.238  -0.590  32.224  1.00  0.00    -0.053 A 
HETATM    9  C8  UNK     1      18.496   0.009  33.236  1.00  0.00     0.045 A 
HETATM   10  C12 UNK     1      18.406  -1.632  37.081  1.00  0.00     0.097 A 
HETATM   11  C13 UNK     1      20.767  -2.413  31.420  1.00  0.00     0.049 C 
HETATM   12  C14 UNK     1      19.245   0.026  30.864  1.00  0.00     0.049 C 
HETATM   13  C15 UNK     1      17.645  -0.405  36.787  1.00  0.00     0.289 A 
ENDROOT
BRANCH   4  14
HETATM   14  C4  UNK     1      19.818  -3.439  36.611  1.00  0.00     0.088 A 
HETATM   15  C10 UNK     1      20.790  -3.522  37.583  1.00  0.00     0.052 A 
HETATM   16  C9  UNK     1      21.150  -4.893  37.676  1.00  0.00     0.002 A 
HETATM   17  C11 UNK     1      20.361  -5.555  36.742  1.00  0.00     0.086 A 
HETATM   18  C16 UNK     1      22.055  -5.645  38.445  1.00  0.00     0.038 A 
HETATM   19  O1  UNK     1      19.551  -4.669  36.095  1.00  0.00    -0.309 OA
HETATM   20  C17 UNK     1      20.406  -6.929  36.514  1.00  0.00     0.040 A 
HETATM   21  C19 UNK     1      21.312  -7.658  37.290  1.00  0.00     0.026 A 
HETATM   22  C18 UNK     1      22.122  -7.030  38.239  1.00  0.00     0.035 A 
HETATM   23 Cl1  UNK     1      23.226  -7.971  39.171  1.00  0.00    -0.084 Cl
ENDBRANCH   4  14
TORSDOF 1
ENDMDL
MODEL 5
REMARK VINA RESULT:      -8.4     16.279     18.662
REMARK  1 active torsions:
REMARK  status: ('A' for Active; 'I' for Inactive)
REMARK    1  A    between atoms: C2_6  and  C4_8 
ROOT
HETATM    1  O2  UNK     1      35.817  -7.450  30.159  1.00  0.00    -0.275 OA
HETATM    2  O3  UNK     1      35.561  -7.656  27.897  1.00  0.00    -0.260 OA
HETATM    3  C1  UNK     1      33.833  -7.303  31.570  1.00  0.00     0.012 A 
HETATM    4  C2  UNK     1      32.983  -7.405  30.370  1.00  0.00     0.017 A 
HETATM    5  C3  UNK     1      35.219  -7.329  31.426  1.00  0.00     0.091 A 
HETATM    6  C5  UNK     1      34.161  -7.087  33.971  1.00  0.00    -0.055 A 
HETATM    7  C6  UNK     1      33.310  -7.180  32.864  1.00  0.00     0.022 A 
HETATM    8  C7  UNK     1      35.545  -7.114  33.799  1.00  0.00    -0.053 A 
HETATM    9  C8  UNK     1      36.080  -7.236  32.521  1.00  0.00     0.045 A 
HETATM   10  C12 UNK     1      33.588  -7.520  29.175  1.00  0.00     0.097 A 
HETATM   11  C13 UNK     1      33.562  -6.957  35.333  1.00  0.00     0.049 C 
HETATM   12  C14 UNK     1      36.467  -7.016  34.969  1.00  0.00     0.049 C 
HETATM   13  C15 UNK     1      35.052  -7.549  29.007  1.00  0.00     0.289 A 
ENDROOT
BRANCH   4  14
HETATM   14  C4  UNK     1      31.572  -7.394  30.358  1.00  0.00     0.088 A 
HETATM   15  C10 UNK     1      30.746  -6.295  30.446  1.00  0.00     0.052 A 
HETATM   16  C9  UNK     1      29.414  -6.787  30.388  1.00  0.00     0.002 A 
HETATM   17  C11 UNK     1      29.527  -8.168  30.267  1.00  0.00     0.086 A 
HETATM   18  C16 UNK     1      28.130  -6.218  30.425  1.00  0.00     0.038 A 
HETATM   19  O1  UNK     1      30.840  -8.535  30.249  1.00  0.00    -0.309 OA
HETATM   20  C17 UNK     1      28.440  -9.036  30.178  1.00  0.00     0.040 A 
HETATM   21  C19 UNK     1      27.172  -8.449  30.217  1.00  0.00     0.026 A 
HETATM   22  C18 UNK     1      27.017  -7.067  30.338  1.00  0.00     0.035 A 
HETATM   23 Cl1  UNK     1      25.432  -6.389  30.382  1.00  0.00    -0.084 Cl
ENDBRANCH   4  14
TORSDOF 1
ENDMDL
MODEL 6
REMARK VINA RESULT:      -8.4     15.870     17.845
REMARK  1 active torsions:
REMARK  status: ('A' for Active; 'I' for Inactive)
REMARK    1  A    between atoms: C2_6  and  C4_8 
ROOT
HETATM    1  O2  UNK     1      28.293  -5.153  39.259  1.00  0.00    -0.275 OA
HETATM    2  O3  UNK     1      29.439  -3.390  40.155  1.00  0.00    -0.260 OA
HETATM    3  C1  UNK     1      29.384  -6.548  37.580  1.00  0.00     0.012 A 
HETATM    4  C2  UNK     1      30.592  -5.711  37.682  1.00  0.00     0.017 A 
HETATM    5  C3  UNK     1      28.275  -6.244  38.370  1.00  0.00     0.091 A 
HETATM    6  C5  UNK     1      28.121  -8.413  36.660  1.00  0.00    -0.055 A 
HETATM    7  C6  UNK     1      29.292  -7.650  36.719  1.00  0.00     0.022 A 
HETATM    8  C7  UNK     1      27.026  -8.086  37.460  1.00  0.00    -0.053 A 
HETATM    9  C8  UNK     1      27.100  -6.997  38.321  1.00  0.00     0.045 A 
HETATM   10  C12 UNK     1      30.573  -4.677  38.542  1.00  0.00     0.097 A 
HETATM   11  C13 UNK     1      28.065  -9.579  35.728  1.00  0.00     0.049 C 
HETATM   12  C14 UNK     1      25.770  -8.890  37.410  1.00  0.00     0.049 C 
HETATM   13  C15 UNK     1      29.410  -4.342  39.383  1.00  0.00     0.289 A 
ENDROOT
BRANCH   4  14
HETATM   14  C4  UNK     1      31.784  -5.895  36.951  1.00  0.00     0.088 A 
HETATM   15  C10 UNK     1      32.872  -6.662  37.308  1.00  0.00     0.052 A 
HETATM   16  C9  UNK     1      33.817  -6.533  36.255  1.00  0.00     0.002 A 
HETATM   17  C11 UNK     1      33.230  -5.687  35.321  1.00  0.00     0.086 A 
HETATM   18  C16 UNK     1      35.102  -7.039  35.990  1.00  0.00     0.038 A 
HETATM   19  O1  UNK     1      31.994  -5.300  35.746  1.00  0.00    -0.309 OA
HETATM   20  C17 UNK     1      33.835  -5.301  34.127  1.00  0.00     0.040 A 
HETATM   21  C19 UNK     1      35.112  -5.815  33.883  1.00  0.00     0.026 A 
HETATM   22  C18 UNK     1      35.736  -6.668  34.796  1.00  0.00     0.035 A 
HETATM   23 Cl1  UNK     1      37.312  -7.276  34.453  1.00  0.00    -0.084 Cl
ENDBRANCH   4  14
TORSDOF 1
ENDMDL
MODEL 7
REMARK VINA RESULT:      -8.3     15.563     18.535
REMARK  1 active torsions:
REMARK  status: ('A' for Active; 'I' for Inactive)
REMARK    1  A    between atoms: C2_6  and  C4_8 
ROOT
HETATM    1  O2  UNK     1      19.286  -3.808  12.422  1.00  0.00    -0.275 OA
HETATM    2  O3  UNK     1      20.488  -2.161  11.388  1.00  0.00    -0.260 OA
HETATM    3  C1  UNK     1      18.466  -3.434  14.688  1.00  0.00     0.012 A 
HETATM    4  C2  UNK     1      19.080  -2.095  14.681  1.00  0.00     0.017 A 
HETATM    5  C3  UNK     1      18.588  -4.246  13.561  1.00  0.00     0.091 A 
HETATM    6  C5  UNK     1      17.190  -5.218  15.742  1.00  0.00    -0.055 A 
HETATM    7  C6  UNK     1      17.755  -3.939  15.786  1.00  0.00     0.022 A 
HETATM    8  C7  UNK     1      17.328  -6.010  14.602  1.00  0.00    -0.053 A 
HETATM    9  C8  UNK     1      18.030  -5.525  13.504  1.00  0.00     0.045 A 
HETATM   10  C12 UNK     1      19.740  -1.709  13.575  1.00  0.00     0.097 A 
HETATM   11  C13 UNK     1      16.441  -5.718  16.934  1.00  0.00     0.049 C 
HETATM   12  C14 UNK     1      16.732  -7.377  14.538  1.00  0.00     0.049 C 
HETATM   13  C15 UNK     1      19.878  -2.555  12.376  1.00  0.00     0.289 A 
ENDROOT
BRANCH   4  14
HETATM   14  C4  UNK     1      19.041  -1.166  15.741  1.00  0.00     0.088 A 
HETATM   15  C10 UNK     1      18.906  -1.438  17.085  1.00  0.00     0.052 A 
HETATM   16  C9  UNK     1      18.922  -0.185  17.754  1.00  0.00     0.002 A 
HETATM   17  C11 UNK     1      19.069   0.773  16.756  1.00  0.00     0.086 A 
HETATM   18  C16 UNK     1      18.830   0.244  19.089  1.00  0.00     0.038 A 
HETATM   19  O1  UNK     1      19.141   0.175  15.534  1.00  0.00    -0.309 OA
HETATM   20  C17 UNK     1      19.131   2.145  16.994  1.00  0.00     0.040 A 
HETATM   21  C19 UNK     1      19.037   2.549  18.328  1.00  0.00     0.026 A 
HETATM   22  C18 UNK     1      18.890   1.618  19.359  1.00  0.00     0.035 A 
HETATM   23 Cl1  UNK     1      18.777   2.165  20.990  1.00  0.00    -0.084 Cl
ENDBRANCH   4  14
TORSDOF 1
ENDMDL
MODEL 8
REMARK VINA RESULT:      -8.3     13.315     15.930
REMARK  1 active torsions:
REMARK  status: ('A' for Active; 'I' for Inactive)
REMARK    1  A    between atoms: C2_6  and  C4_8 
ROOT
HETATM    1  O2  UNK     1      22.896 -11.918  35.651  1.00  0.00    -0.275 OA
HETATM    2  O3  UNK     1      24.546 -13.440  35.222  1.00  0.00    -0.260 OA
HETATM    3  C1  UNK     1      23.495  -9.754  36.606  1.00  0.00     0.012 A 
HETATM    4  C2  UNK     1      24.913 -10.158  36.608  1.00  0.00     0.017 A 
HETATM    5  C3  UNK     1      22.534 -10.644  36.129  1.00  0.00     0.091 A 
HETATM    6  C5  UNK     1      21.701  -8.170  37.041  1.00  0.00    -0.055 A 
HETATM    7  C6  UNK     1      23.059  -8.504  37.065  1.00  0.00     0.022 A 
HETATM    8  C7  UNK     1      20.761  -9.080  36.559  1.00  0.00    -0.053 A 
HETATM    9  C8  UNK     1      21.176 -10.325  36.099  1.00  0.00     0.045 A 
HETATM   10  C12 UNK     1      25.221 -11.381  36.145  1.00  0.00     0.097 A 
HETATM   11  C13 UNK     1      21.280  -6.827  37.541  1.00  0.00     0.049 C 
HETATM   12  C14 UNK     1      19.307  -8.739  36.527  1.00  0.00     0.049 C 
HETATM   13  C15 UNK     1      24.218 -12.334  35.637  1.00  0.00     0.289 A 
ENDROOT
BRANCH   4  14
HETATM   14  C4  UNK     1      25.992  -9.369  37.058  1.00  0.00     0.088 A 
HETATM   15  C10 UNK     1      27.330  -9.554  36.788  1.00  0.00     0.052 A 
HETATM   16  C9  UNK     1      28.024  -8.509  37.457  1.00  0.00     0.002 A 
HETATM   17  C11 UNK     1      27.045  -7.753  38.093  1.00  0.00     0.086 A 
HETATM   18  C16 UNK     1      29.368  -8.121  37.593  1.00  0.00     0.038 A 
HETATM   19  O1  UNK     1      25.811  -8.278  37.850  1.00  0.00    -0.309 OA
HETATM   20  C17 UNK     1      27.310  -6.625  38.866  1.00  0.00     0.040 A 
HETATM   21  C19 UNK     1      28.653  -6.256  38.988  1.00  0.00     0.026 A 
HETATM   22  C18 UNK     1      29.665  -6.989  38.364  1.00  0.00     0.035 A 
HETATM   23 Cl1  UNK     1      31.307  -6.496  38.544  1.00  0.00    -0.084 Cl
ENDBRANCH   4  14
TORSDOF 1
ENDMDL
MODEL 9
REMARK VINA RESULT:      -8.2      2.986      6.610
REMARK  1 active torsions:
REMARK  status: ('A' for Active; 'I' for Inactive)
REMARK    1  A    between atoms: C2_6  and  C4_8 
ROOT
HETATM    1  O2  UNK     1      18.410   5.695  30.340  1.00  0.00    -0.275 OA
HETATM    2  O3  UNK     1      18.939   3.945  28.969  1.00  0.00    -0.260 OA
HETATM    3  C1  UNK     1      17.942   5.260  32.694  1.00  0.00     0.012 A 
HETATM    4  C2  UNK     1      18.175   3.823  32.466  1.00  0.00     0.017 A 
HETATM    5  C3  UNK     1      18.066   6.149  31.627  1.00  0.00     0.091 A 
HETATM    6  C5  UNK     1      17.386   7.159  34.111  1.00  0.00    -0.055 A 
HETATM    7  C6  UNK     1      17.597   5.786  33.947  1.00  0.00     0.022 A 
HETATM    8  C7  UNK     1      17.516   8.025  33.026  1.00  0.00    -0.053 A 
HETATM    9  C8  UNK     1      17.859   7.521  31.776  1.00  0.00     0.045 A 
HETATM   10  C12 UNK     1      18.502   3.426  31.224  1.00  0.00     0.097 A 
HETATM   11  C13 UNK     1      17.020   7.677  35.463  1.00  0.00     0.049 C 
HETATM   12  C14 UNK     1      17.295   9.493  33.183  1.00  0.00     0.049 C 
HETATM   13  C15 UNK     1      18.638   4.352  30.085  1.00  0.00     0.289 A 
ENDROOT
BRANCH   4  14
HETATM   14  C4  UNK     1      18.087   2.810  33.444  1.00  0.00     0.088 A 
HETATM   15  C10 UNK     1      18.603   2.835  34.721  1.00  0.00     0.052 A 
HETATM   16  C9  UNK     1      18.256   1.595  35.320  1.00  0.00     0.002 A 
HETATM   17  C11 UNK     1      17.544   0.894  34.353  1.00  0.00     0.086 A 
HETATM   18  C16 UNK     1      18.465   0.989  36.571  1.00  0.00     0.038 A 
HETATM   19  O1  UNK     1      17.442   1.635  33.213  1.00  0.00    -0.309 OA
HETATM   20  C17 UNK     1      17.018  -0.382  34.541  1.00  0.00     0.040 A 
HETATM   21  C19 UNK     1      17.237  -0.966  35.792  1.00  0.00     0.026 A 
HETATM   22  C18 UNK     1      17.947  -0.296  36.790  1.00  0.00     0.035 A 
HETATM   23 Cl1  UNK     1      18.194  -1.057  38.317  1.00  0.00    -0.084 Cl
ENDBRANCH   4  14
TORSDOF 1
ENDMDL
MODEL 10
REMARK VINA RESULT:      -8.2     12.529     15.116
REMARK  1 active torsions:
REMARK  status: ('A' for Active; 'I' for Inactive)
REMARK    1  A    between atoms: C2_6  and  C4_8 
ROOT
HETATM    1  O2  UNK     1      25.754 -11.783  36.060  1.00  0.00    -0.275 OA
HETATM    2  O3  UNK     1      24.406 -13.309  35.022  1.00  0.00    -0.260 OA
HETATM    3  C1  UNK     1      24.770  -9.725  36.925  1.00  0.00     0.012 A 
HETATM    4  C2  UNK     1      23.448 -10.165  36.445  1.00  0.00     0.017 A 
HETATM    5  C3  UNK     1      25.878 -10.545  36.718  1.00  0.00     0.091 A 
HETATM    6  C5  UNK     1      26.248  -8.135  38.024  1.00  0.00    -0.055 A 
HETATM    7  C6  UNK     1      24.972  -8.506  37.588  1.00  0.00     0.022 A 
HETATM    8  C7  UNK     1      27.340  -8.974  37.803  1.00  0.00    -0.053 A 
HETATM    9  C8  UNK     1      27.158 -10.187  37.147  1.00  0.00     0.045 A 
HETATM   10  C12 UNK     1      23.367 -11.353  35.821  1.00  0.00     0.097 A 
HETATM   11  C13 UNK     1      26.419  -6.827  38.726  1.00  0.00     0.049 C 
HETATM   12  C14 UNK     1      28.708  -8.593  38.261  1.00  0.00     0.049 C 
HETATM   13  C15 UNK     1      24.528 -12.232  35.595  1.00  0.00     0.289 A 
ENDROOT
BRANCH   4  14
HETATM   14  C4  UNK     1      22.242  -9.446  36.582  1.00  0.00     0.088 A 
HETATM   15  C10 UNK     1      21.450  -8.947  35.571  1.00  0.00     0.052 A 
HETATM   16  C9  UNK     1      20.349  -8.306  36.202  1.00  0.00     0.002 A 
HETATM   17  C11 UNK     1      20.553  -8.464  37.568  1.00  0.00     0.086 A 
HETATM   18  C16 UNK     1      19.207  -7.613  35.768  1.00  0.00     0.038 A 
HETATM   19  O1  UNK     1      21.705  -9.157  37.797  1.00  0.00    -0.309 OA
HETATM   20  C17 UNK     1      19.692  -7.975  38.548  1.00  0.00     0.040 A 
HETATM   21  C19 UNK     1      18.561  -7.289  38.096  1.00  0.00     0.026 A 
HETATM   22  C18 UNK     1      18.321  -7.109  36.732  1.00  0.00     0.035 A 
HETATM   23 Cl1  UNK     1      16.914  -6.255  36.221  1.00  0.00    -0.084 Cl
ENDBRANCH   4  14
TORSDOF 1
ENDMDL
