MODEL 1
REMARK VINA RESULT:      -8.9      0.000      0.000
REMARK  6 active torsions:
REMARK  status: ('A' for Active; 'I' for Inactive)
REMARK    1  A    between atoms: C6_16  and  O1_3 
REMARK    2  A    between atoms: C8_18  and  O1_3 
REMARK       I    between atoms: C10_20  and  N1_9 
REMARK    3  A    between atoms: C3_13  and  N1_9 
REMARK       I    between atoms: C7_17  and  N2_10 
REMARK    4  A    between atoms: C2_12  and  C6_16 
REMARK    5  A    between atoms: C4_14  and  C7_17 
REMARK    6  A    between atoms: C10_20  and  C9_19 
ROOT
HETATM    1  S1  UNK     1      17.886  -1.939  37.539  1.00  0.00    -0.065 SA
HETATM    2  C1  UNK     1      18.786  -0.423  35.670  1.00  0.00    -0.020 A 
HETATM    3  C2  UNK     1      19.240  -1.739  35.366  1.00  0.00     0.080 A 
HETATM    4  C3  UNK     1      18.818  -2.631  36.299  1.00  0.00     0.094 A 
HETATM    5  C4  UNK     1      18.038  -0.389  36.827  1.00  0.00     0.081 A 
HETATM    6  C5  UNK     1      19.083   0.771  34.839  1.00  0.00     0.051 C 
ENDROOT
BRANCH   4   7
HETATM    7  N1  UNK     1      19.028  -4.010  36.395  1.00  0.00    -0.316 N 
HETATM    8  C10 UNK     1      20.039  -4.636  37.110  1.00  0.00     0.262 C 
HETATM    9  O5  UNK     1      20.931  -4.125  37.786  1.00  0.00    -0.267 OA
HETATM   10  H4  UNK     1      18.361  -4.587  35.890  1.00  0.00     0.169 HD
BRANCH   8  11
HETATM   11  C9  UNK     1      19.967  -6.097  36.996  1.00  0.00     0.108 A 
HETATM   12  C12 UNK     1      21.124  -6.732  36.774  1.00  0.00     0.037 A 
HETATM   13  C11 UNK     1      21.153  -8.181  36.646  1.00  0.00     0.001 A 
HETATM   14  C19 UNK     1      22.338  -8.884  36.412  1.00  0.00     0.038 A 
HETATM   15  C13 UNK     1      19.962  -8.890  36.759  1.00  0.00     0.089 A 
HETATM   16  C21 UNK     1      22.312 -10.277  36.297  1.00  0.00     0.035 A 
HETATM   17  C22 UNK     1      21.107 -10.972  36.413  1.00  0.00     0.026 A 
HETATM   18 Cl1  UNK     1      23.774 -11.140  36.011  1.00  0.00    -0.084 Cl
HETATM   19  C20 UNK     1      19.921 -10.278  36.645  1.00  0.00     0.040 A 
HETATM   20  O2  UNK     1      18.747  -8.217  36.994  1.00  0.00    -0.274 OA
HETATM   21  C16 UNK     1      18.688  -6.831  37.121  1.00  0.00     0.304 A 
HETATM   22  O6  UNK     1      17.626  -6.254  37.324  1.00  0.00    -0.259 OA
ENDBRANCH   8  11
ENDBRANCH   4   7
BRANCH   3  23
HETATM   23  C6  UNK     1      20.043  -2.103  34.225  1.00  0.00     0.297 C 
HETATM   24  O3  UNK     1      21.209  -2.516  34.304  1.00  0.00    -0.259 OA
BRANCH  23  25
HETATM   25  O1  UNK     1      19.397  -1.955  33.017  1.00  0.00    -0.313 OA
BRANCH  25  26
HETATM   26  C8  UNK     1      20.153  -1.382  31.944  1.00  0.00     0.124 C 
HETATM   27  C14 UNK     1      20.417  -2.448  30.892  1.00  0.00     0.040 C 
HETATM   28  C15 UNK     1      19.391  -0.197  31.372  1.00  0.00     0.040 C 
ENDBRANCH  25  26
ENDBRANCH  23  25
ENDBRANCH   3  23
BRANCH   5  29
HETATM   29  C7  UNK     1      17.410   0.724  37.465  1.00  0.00     0.260 C 
HETATM   30  O4  UNK     1      17.952   1.321  38.419  1.00  0.00    -0.267 OA
HETATM   31  N2  UNK     1      16.136   1.154  36.994  1.00  0.00    -0.356 N 
HETATM   32  C17 UNK     1      15.433   0.537  35.870  1.00  0.00     0.152 C 
HETATM   33  C18 UNK     1      15.455   2.284  37.614  1.00  0.00     0.152 C 
ENDBRANCH   5  29
TORSDOF 6
ENDMDL
MODEL 2
REMARK VINA RESULT:      -8.2      6.235     11.326
REMARK  6 active torsions:
REMARK  status: ('A' for Active; 'I' for Inactive)
REMARK    1  A    between atoms: C6_16  and  O1_3 
REMARK    2  A    between atoms: C8_18  and  O1_3 
REMARK       I    between atoms: C10_20  and  N1_9 
REMARK    3  A    between atoms: C3_13  and  N1_9 
REMARK       I    between atoms: C7_17  and  N2_10 
REMARK    4  A    between atoms: C2_12  and  C6_16 
REMARK    5  A    between atoms: C4_14  and  C7_17 
REMARK    6  A    between atoms: C10_20  and  C9_19 
ROOT
HETATM    1  S1  UNK     1      17.874   0.722  35.012  1.00  0.00    -0.065 SA
HETATM    2  C1  UNK     1      19.103  -0.919  33.464  1.00  0.00    -0.020 A 
HETATM    3  C2  UNK     1      18.960   0.290  32.725  1.00  0.00     0.080 A 
HETATM    4  C3  UNK     1      18.317   1.238  33.455  1.00  0.00     0.094 A 
HETATM    5  C4  UNK     1      18.556  -0.822  34.725  1.00  0.00     0.081 A 
HETATM    6  C5  UNK     1      19.763  -2.141  32.938  1.00  0.00     0.051 C 
ENDROOT
BRANCH   4   7
HETATM    7  N1  UNK     1      17.969   2.553  33.129  1.00  0.00    -0.316 N 
HETATM    8  C10 UNK     1      18.480   3.703  33.713  1.00  0.00     0.262 C 
HETATM    9  O5  UNK     1      19.318   3.802  34.608  1.00  0.00    -0.267 OA
HETATM   10  H4  UNK     1      17.278   2.648  32.389  1.00  0.00     0.169 HD
BRANCH   8  11
HETATM   11  C9  UNK     1      17.895   4.917  33.133  1.00  0.00     0.108 A 
HETATM   12  C12 UNK     1      17.184   5.688  33.965  1.00  0.00     0.037 A 
HETATM   13  C11 UNK     1      16.566   6.913  33.482  1.00  0.00     0.001 A 
HETATM   14  C19 UNK     1      15.814   7.746  34.315  1.00  0.00     0.038 A 
HETATM   15  C13 UNK     1      16.727   7.266  32.147  1.00  0.00     0.089 A 
HETATM   16  C21 UNK     1      15.240   8.913  33.802  1.00  0.00     0.035 A 
HETATM   17  C22 UNK     1      15.412   9.252  32.458  1.00  0.00     0.026 A 
HETATM   18 Cl1  UNK     1      14.316   9.938  34.831  1.00  0.00    -0.084 Cl
HETATM   19  C20 UNK     1      16.160   8.426  31.621  1.00  0.00     0.040 A 
HETATM   20  O2  UNK     1      17.477   6.452  31.275  1.00  0.00    -0.274 OA
HETATM   21  C16 UNK     1      18.081   5.274  31.709  1.00  0.00     0.304 A 
HETATM   22  O6  UNK     1      18.731   4.572  30.943  1.00  0.00    -0.259 OA
ENDBRANCH   8  11
ENDBRANCH   4   7
BRANCH   3  23
HETATM   23  C6  UNK     1      19.428   0.508  31.378  1.00  0.00     0.297 C 
HETATM   24  O3  UNK     1      20.620   0.449  31.043  1.00  0.00    -0.259 OA
BRANCH  23  25
HETATM   25  O1  UNK     1      18.424   0.789  30.476  1.00  0.00    -0.313 OA
BRANCH  25  26
HETATM   26  C8  UNK     1      18.829   1.191  29.163  1.00  0.00     0.124 C 
HETATM   27  C14 UNK     1      18.968  -0.041  28.283  1.00  0.00     0.040 C 
HETATM   28  C15 UNK     1      17.811   2.174  28.605  1.00  0.00     0.040 C 
ENDBRANCH  25  26
ENDBRANCH  23  25
ENDBRANCH   3  23
BRANCH   5  29
HETATM   29  C7  UNK     1      18.494  -1.803  35.762  1.00  0.00     0.260 C 
HETATM   30  O4  UNK     1      17.401  -2.237  36.185  1.00  0.00    -0.267 OA
HETATM   31  N2  UNK     1      19.711  -2.290  36.318  1.00  0.00    -0.356 N 
HETATM   32  C17 UNK     1      21.037  -1.863  35.872  1.00  0.00     0.152 C 
HETATM   33  C18 UNK     1      19.699  -3.290  37.378  1.00  0.00     0.152 C 
ENDBRANCH   5  29
TORSDOF 6
ENDMDL
MODEL 3
REMARK VINA RESULT:      -8.1      8.211     11.526
REMARK  6 active torsions:
REMARK  status: ('A' for Active; 'I' for Inactive)
REMARK    1  A    between atoms: C6_16  and  O1_3 
REMARK    2  A    between atoms: C8_18  and  O1_3 
REMARK       I    between atoms: C10_20  and  N1_9 
REMARK    3  A    between atoms: C3_13  and  N1_9 
REMARK       I    between atoms: C7_17  and  N2_10 
REMARK    4  A    between atoms: C2_12  and  C6_16 
REMARK    5  A    between atoms: C4_14  and  C7_17 
REMARK    6  A    between atoms: C10_20  and  C9_19 
ROOT
HETATM    1  S1  UNK     1      30.596  -6.480  37.763  1.00  0.00    -0.065 SA
HETATM    2  C1  UNK     1      31.225  -8.013  35.801  1.00  0.00    -0.020 A 
HETATM    3  C2  UNK     1      29.806  -8.069  35.907  1.00  0.00     0.080 A 
HETATM    4  C3  UNK     1      29.359  -7.287  36.924  1.00  0.00     0.094 A 
HETATM    5  C4  UNK     1      31.783  -7.185  36.750  1.00  0.00     0.081 A 
HETATM    6  C5  UNK     1      32.011  -8.759  34.786  1.00  0.00     0.051 C 
ENDROOT
BRANCH   4   7
HETATM    7  N1  UNK     1      28.059  -7.047  37.380  1.00  0.00    -0.316 N 
HETATM    8  C10 UNK     1      27.488  -7.566  38.533  1.00  0.00     0.262 C 
HETATM    9  O5  UNK     1      27.989  -8.319  39.366  1.00  0.00    -0.267 OA
HETATM   10  H4  UNK     1      27.503  -6.426  36.798  1.00  0.00     0.169 HD
BRANCH   8  11
HETATM   11  C9  UNK     1      26.104  -7.109  38.712  1.00  0.00     0.108 A 
HETATM   12  C12 UNK     1      25.168  -8.064  38.770  1.00  0.00     0.037 A 
HETATM   13  C11 UNK     1      23.769  -7.709  38.946  1.00  0.00     0.001 A 
HETATM   14  C19 UNK     1      22.759  -8.672  39.011  1.00  0.00     0.038 A 
HETATM   15  C13 UNK     1      23.424  -6.365  39.052  1.00  0.00     0.089 A 
HETATM   16  C21 UNK     1      21.428  -8.279  39.181  1.00  0.00     0.035 A 
HETATM   17  C22 UNK     1      21.100  -6.925  39.285  1.00  0.00     0.026 A 
HETATM   18 Cl1  UNK     1      20.187  -9.469  39.262  1.00  0.00    -0.084 Cl
HETATM   19  C20 UNK     1      22.102  -5.959  39.221  1.00  0.00     0.040 A 
HETATM   20  O2  UNK     1      24.413  -5.364  38.990  1.00  0.00    -0.274 OA
HETATM   21  C16 UNK     1      25.761  -5.674  38.823  1.00  0.00     0.304 A 
HETATM   22  O6  UNK     1      26.615  -4.796  38.770  1.00  0.00    -0.259 OA
ENDBRANCH   8  11
ENDBRANCH   4   7
BRANCH   3  23
HETATM   23  C6  UNK     1      28.933  -8.845  35.060  1.00  0.00     0.297 C 
HETATM   24  O3  UNK     1      28.951 -10.083  34.999  1.00  0.00    -0.259 OA
BRANCH  23  25
HETATM   25  O1  UNK     1      28.060  -8.085  34.312  1.00  0.00    -0.313 OA
BRANCH  25  26
HETATM   26  C8  UNK     1      28.595  -7.442  33.150  1.00  0.00     0.124 C 
HETATM   27  C14 UNK     1      28.454  -8.372  31.954  1.00  0.00     0.040 C 
HETATM   28  C15 UNK     1      27.871  -6.122  32.931  1.00  0.00     0.040 C 
ENDBRANCH  25  26
ENDBRANCH  23  25
ENDBRANCH   3  23
BRANCH   5  29
HETATM   29  C7  UNK     1      33.156  -6.864  36.975  1.00  0.00     0.260 C 
HETATM   30  O4  UNK     1      33.830  -7.452  37.848  1.00  0.00    -0.267 OA
HETATM   31  N2  UNK     1      33.761  -5.848  36.181  1.00  0.00    -0.356 N 
HETATM   32  C17 UNK     1      33.065  -5.122  35.119  1.00  0.00     0.152 C 
HETATM   33  C18 UNK     1      35.159  -5.485  36.374  1.00  0.00     0.152 C 
ENDBRANCH   5  29
TORSDOF 6
ENDMDL
MODEL 4
REMARK VINA RESULT:      -8.1     19.033     22.888
REMARK  6 active torsions:
REMARK  status: ('A' for Active; 'I' for Inactive)
REMARK    1  A    between atoms: C6_16  and  O1_3 
REMARK    2  A    between atoms: C8_18  and  O1_3 
REMARK       I    between atoms: C10_20  and  N1_9 
REMARK    3  A    between atoms: C3_13  and  N1_9 
REMARK       I    between atoms: C7_17  and  N2_10 
REMARK    4  A    between atoms: C2_12  and  C6_16 
REMARK    5  A    between atoms: C4_14  and  C7_17 
REMARK    6  A    between atoms: C10_20  and  C9_19 
ROOT
HETATM    1  S1  UNK     1      19.027  -4.438  11.851  1.00  0.00    -0.065 SA
HETATM    2  C1  UNK     1      18.187  -6.625  12.902  1.00  0.00    -0.020 A 
HETATM    3  C2  UNK     1      18.131  -5.644  13.934  1.00  0.00     0.080 A 
HETATM    4  C3  UNK     1      18.558  -4.436  13.483  1.00  0.00     0.094 A 
HETATM    5  C4  UNK     1      18.657  -6.104  11.717  1.00  0.00     0.081 A 
HETATM    6  C5  UNK     1      17.786  -8.044  13.084  1.00  0.00     0.051 C 
ENDROOT
BRANCH   4   7
HETATM    7  N1  UNK     1      18.668  -3.208  14.145  1.00  0.00    -0.316 N 
HETATM    8  C10 UNK     1      19.512  -2.926  15.210  1.00  0.00     0.262 C 
HETATM    9  O5  UNK     1      20.311  -3.671  15.774  1.00  0.00    -0.267 OA
HETATM   10  H4  UNK     1      18.068  -2.469  13.790  1.00  0.00     0.169 HD
BRANCH   8  11
HETATM   11  C9  UNK     1      19.373  -1.538  15.665  1.00  0.00     0.108 A 
HETATM   12  C12 UNK     1      19.304  -1.352  16.989  1.00  0.00     0.037 A 
HETATM   13  C11 UNK     1      19.166  -0.011  17.535  1.00  0.00     0.001 A 
HETATM   14  C19 UNK     1      19.088   0.228  18.910  1.00  0.00     0.038 A 
HETATM   15  C13 UNK     1      19.107   1.068  16.660  1.00  0.00     0.089 A 
HETATM   16  C21 UNK     1      18.956   1.536  19.384  1.00  0.00     0.035 A 
HETATM   17  C22 UNK     1      18.899   2.608  18.492  1.00  0.00     0.026 A 
HETATM   18 Cl1  UNK     1      18.862   1.827  21.079  1.00  0.00    -0.084 Cl
HETATM   19  C20 UNK     1      18.975   2.378  17.119  1.00  0.00     0.040 A 
HETATM   20  O2  UNK     1      19.182   0.868  15.268  1.00  0.00    -0.274 OA
HETATM   21  C16 UNK     1      19.314  -0.404  14.716  1.00  0.00     0.304 A 
HETATM   22  O6  UNK     1      19.378  -0.569  13.503  1.00  0.00    -0.259 OA
ENDBRANCH   8  11
ENDBRANCH   4   7
BRANCH   3  23
HETATM   23  C6  UNK     1      17.685  -5.875  15.285  1.00  0.00     0.297 C 
HETATM   24  O3  UNK     1      18.435  -6.210  16.213  1.00  0.00    -0.259 OA
BRANCH  23  25
HETATM   25  O1  UNK     1      16.331  -5.688  15.466  1.00  0.00    -0.313 OA
BRANCH  25  26
HETATM   26  C8  UNK     1      15.694  -6.495  16.463  1.00  0.00     0.124 C 
HETATM   27  C14 UNK     1      15.498  -5.669  17.725  1.00  0.00     0.040 C 
HETATM   28  C15 UNK     1      14.375  -7.017  15.916  1.00  0.00     0.040 C 
ENDBRANCH  25  26
ENDBRANCH  23  25
ENDBRANCH   3  23
BRANCH   5  29
HETATM   29  C7  UNK     1      18.859  -6.753  10.461  1.00  0.00     0.260 C 
HETATM   30  O4  UNK     1      17.970  -6.768   9.583  1.00  0.00    -0.267 OA
HETATM   31  N2  UNK     1      20.107  -7.394  10.214  1.00  0.00    -0.356 N 
HETATM   32  C17 UNK     1      21.217  -7.408  11.166  1.00  0.00     0.152 C 
HETATM   33  C18 UNK     1      20.360  -8.069   8.947  1.00  0.00     0.152 C 
ENDBRANCH   5  29
TORSDOF 6
ENDMDL
MODEL 5
REMARK VINA RESULT:      -7.9      4.417      6.586
REMARK  6 active torsions:
REMARK  status: ('A' for Active; 'I' for Inactive)
REMARK    1  A    between atoms: C6_16  and  O1_3 
REMARK    2  A    between atoms: C8_18  and  O1_3 
REMARK       I    between atoms: C10_20  and  N1_9 
REMARK    3  A    between atoms: C3_13  and  N1_9 
REMARK       I    between atoms: C7_17  and  N2_10 
REMARK    4  A    between atoms: C2_12  and  C6_16 
REMARK    5  A    between atoms: C4_14  and  C7_17 
REMARK    6  A    between atoms: C10_20  and  C9_19 
ROOT
HETATM    1  S1  UNK     1      18.268   4.471  34.052  1.00  0.00    -0.065 SA
HETATM    2  C1  UNK     1      18.446   4.742  31.504  1.00  0.00    -0.020 A 
HETATM    3  C2  UNK     1      18.381   3.341  31.749  1.00  0.00     0.080 A 
HETATM    4  C3  UNK     1      18.285   3.079  33.078  1.00  0.00     0.094 A 
HETATM    5  C4  UNK     1      18.395   5.474  32.670  1.00  0.00     0.081 A 
HETATM    6  C5  UNK     1      18.556   5.345  30.151  1.00  0.00     0.051 C 
ENDROOT
BRANCH   4   7
HETATM    7  N1  UNK     1      18.197   1.861  33.759  1.00  0.00    -0.316 N 
HETATM    8  C10 UNK     1      18.700   1.593  35.025  1.00  0.00     0.262 C 
HETATM    9  O5  UNK     1      19.305   2.347  35.785  1.00  0.00    -0.267 OA
HETATM   10  H4  UNK     1      17.711   1.119  33.262  1.00  0.00     0.169 HD
BRANCH   8  11
HETATM   11  C9  UNK     1      18.433   0.210  35.438  1.00  0.00     0.108 A 
HETATM   12  C12 UNK     1      19.494  -0.507  35.825  1.00  0.00     0.037 A 
HETATM   13  C11 UNK     1      19.330  -1.888  36.253  1.00  0.00     0.001 A 
HETATM   14  C19 UNK     1      20.409  -2.674  36.664  1.00  0.00     0.038 A 
HETATM   15  C13 UNK     1      18.055  -2.444  36.252  1.00  0.00     0.089 A 
HETATM   16  C21 UNK     1      20.198  -3.996  37.066  1.00  0.00     0.035 A 
HETATM   17  C22 UNK     1      18.911  -4.539  37.058  1.00  0.00     0.026 A 
HETATM   18 Cl1  UNK     1      21.531  -4.961  37.573  1.00  0.00    -0.084 Cl
HETATM   19  C20 UNK     1      17.829  -3.761  36.649  1.00  0.00     0.040 A 
HETATM   20  O2  UNK     1      16.941  -1.684  35.844  1.00  0.00    -0.274 OA
HETATM   21  C16 UNK     1      17.068  -0.361  35.430  1.00  0.00     0.304 A 
HETATM   22  O6  UNK     1      16.093   0.293  35.076  1.00  0.00    -0.259 OA
ENDBRANCH   8  11
ENDBRANCH   4   7
BRANCH   3  23
HETATM   23  C6  UNK     1      18.412   2.312  30.738  1.00  0.00     0.297 C 
HETATM   24  O3  UNK     1      17.511   2.136  29.905  1.00  0.00    -0.259 OA
BRANCH  23  25
HETATM   25  O1  UNK     1      19.545   1.529  30.771  1.00  0.00    -0.313 OA
BRANCH  25  26
HETATM   26  C8  UNK     1      19.393   0.155  30.397  1.00  0.00     0.124 C 
HETATM   27  C14 UNK     1      20.483  -0.216  29.404  1.00  0.00     0.040 C 
HETATM   28  C15 UNK     1      19.442  -0.712  31.645  1.00  0.00     0.040 C 
ENDBRANCH  25  26
ENDBRANCH  23  25
ENDBRANCH   3  23
BRANCH   5  29
HETATM   29  C7  UNK     1      18.432   6.890  32.852  1.00  0.00     0.260 C 
HETATM   30  O4  UNK     1      19.512   7.503  32.990  1.00  0.00    -0.267 OA
HETATM   31  N2  UNK     1      17.203   7.611  32.874  1.00  0.00    -0.356 N 
HETATM   32  C17 UNK     1      15.892   6.988  32.696  1.00  0.00     0.152 C 
HETATM   33  C18 UNK     1      17.190   9.056  33.058  1.00  0.00     0.152 C 
ENDBRANCH   5  29
TORSDOF 6
ENDMDL
MODEL 6
REMARK VINA RESULT:      -7.9      6.899     12.210
REMARK  6 active torsions:
REMARK  status: ('A' for Active; 'I' for Inactive)
REMARK    1  A    between atoms: C6_16  and  O1_3 
REMARK    2  A    between atoms: C8_18  and  O1_3 
REMARK       I    between atoms: C10_20  and  N1_9 
REMARK    3  A    between atoms: C3_13  and  N1_9 
REMARK       I    between atoms: C7_17  and  N2_10 
REMARK    4  A    between atoms: C2_12  and  C6_16 
REMARK    5  A    between atoms: C4_14  and  C7_17 
REMARK    6  A    between atoms: C10_20  and  C9_19 
ROOT
HETATM    1  S1  UNK     1      17.971   2.199  34.984  1.00  0.00    -0.065 SA
HETATM    2  C1  UNK     1      18.779   0.692  33.067  1.00  0.00    -0.020 A 
HETATM    3  C2  UNK     1      18.455   1.946  32.474  1.00  0.00     0.080 A 
HETATM    4  C3  UNK     1      18.012   2.829  33.407  1.00  0.00     0.094 A 
HETATM    5  C4  UNK     1      18.561   0.691  34.427  1.00  0.00     0.081 A 
HETATM    6  C5  UNK     1      19.290  -0.478  32.308  1.00  0.00     0.051 C 
ENDROOT
BRANCH   4   7
HETATM    7  N1  UNK     1      17.592   4.156  33.272  1.00  0.00    -0.316 N 
HETATM    8  C10 UNK     1      18.335   5.285  33.587  1.00  0.00     0.262 C 
HETATM    9  O5  UNK     1      19.479   5.351  34.033  1.00  0.00    -0.267 OA
HETATM   10  H4  UNK     1      16.652   4.278  32.902  1.00  0.00     0.169 HD
BRANCH   8  11
HETATM   11  C9  UNK     1      17.589   6.521  33.324  1.00  0.00     0.108 A 
HETATM   12  C12 UNK     1      17.014   7.103  34.383  1.00  0.00     0.037 A 
HETATM   13  C11 UNK     1      16.254   8.332  34.223  1.00  0.00     0.001 A 
HETATM   14  C19 UNK     1      15.636   8.972  35.300  1.00  0.00     0.038 A 
HETATM   15  C13 UNK     1      16.136   8.889  32.953  1.00  0.00     0.089 A 
HETATM   16  C21 UNK     1      14.916  10.152  35.092  1.00  0.00     0.035 A 
HETATM   17  C22 UNK     1      14.809  10.697  33.811  1.00  0.00     0.026 A 
HETATM   18 Cl1  UNK     1      14.158  10.939  36.423  1.00  0.00    -0.084 Cl
HETATM   19  C20 UNK     1      15.421  10.065  32.731  1.00  0.00     0.040 A 
HETATM   20  O2  UNK     1      16.744   8.273  31.841  1.00  0.00    -0.274 OA
HETATM   21  C16 UNK     1      17.478   7.096  31.965  1.00  0.00     0.304 A 
HETATM   22  O6  UNK     1      18.003   6.567  30.991  1.00  0.00    -0.259 OA
ENDBRANCH   8  11
ENDBRANCH   4   7
BRANCH   3  23
HETATM   23  C6  UNK     1      18.573   2.264  31.073  1.00  0.00     0.297 C 
HETATM   24  O3  UNK     1      18.967   3.359  30.644  1.00  0.00    -0.259 OA
BRANCH  23  25
HETATM   25  O1  UNK     1      18.209   1.234  30.233  1.00  0.00    -0.313 OA
BRANCH  25  26
HETATM   26  C8  UNK     1      18.779   1.238  28.919  1.00  0.00     0.124 C 
HETATM   27  C14 UNK     1      19.586  -0.036  28.720  1.00  0.00     0.040 C 
HETATM   28  C15 UNK     1      17.665   1.371  27.891  1.00  0.00     0.040 C 
ENDBRANCH  25  26
ENDBRANCH  23  25
ENDBRANCH   3  23
BRANCH   5  29
HETATM   29  C7  UNK     1      18.760  -0.359  35.375  1.00  0.00     0.260 C 
HETATM   30  O4  UNK     1      19.879  -0.573  35.888  1.00  0.00    -0.267 OA
HETATM   31  N2  UNK     1      17.650  -1.176  35.736  1.00  0.00    -0.356 N 
HETATM   32  C17 UNK     1      16.298  -0.990  35.210  1.00  0.00     0.152 C 
HETATM   33  C18 UNK     1      17.804  -2.260  36.698  1.00  0.00     0.152 C 
ENDBRANCH   5  29
TORSDOF 6
ENDMDL
MODEL 7
REMARK VINA RESULT:      -7.8      1.464      2.054
REMARK  6 active torsions:
REMARK  status: ('A' for Active; 'I' for Inactive)
REMARK    1  A    between atoms: C6_16  and  O1_3 
REMARK    2  A    between atoms: C8_18  and  O1_3 
REMARK       I    between atoms: C10_20  and  N1_9 
REMARK    3  A    between atoms: C3_13  and  N1_9 
REMARK       I    between atoms: C7_17  and  N2_10 
REMARK    4  A    between atoms: C2_12  and  C6_16 
REMARK    5  A    between atoms: C4_14  and  C7_17 
REMARK    6  A    between atoms: C10_20  and  C9_19 
ROOT
HETATM    1  S1  UNK     1      17.868  -1.886  36.668  1.00  0.00    -0.065 SA
HETATM    2  C1  UNK     1      18.237  -0.524  34.521  1.00  0.00    -0.020 A 
HETATM    3  C2  UNK     1      19.169  -1.600  34.472  1.00  0.00     0.080 A 
HETATM    4  C3  UNK     1      19.061  -2.393  35.570  1.00  0.00     0.094 A 
HETATM    5  C4  UNK     1      17.467  -0.559  35.663  1.00  0.00     0.081 A 
HETATM    6  C5  UNK     1      18.111   0.514  33.467  1.00  0.00     0.051 C 
ENDROOT
BRANCH   4   7
HETATM    7  N1  UNK     1      19.768  -3.544  35.931  1.00  0.00    -0.316 N 
HETATM    8  C10 UNK     1      19.214  -4.742  36.363  1.00  0.00     0.262 C 
HETATM    9  O5  UNK     1      18.028  -5.029  36.512  1.00  0.00    -0.267 OA
HETATM   10  H4  UNK     1      20.779  -3.474  35.856  1.00  0.00     0.169 HD
BRANCH   8  11
HETATM   11  C9  UNK     1      20.244  -5.744  36.660  1.00  0.00     0.108 A 
HETATM   12  C12 UNK     1      20.159  -6.898  35.987  1.00  0.00     0.037 A 
HETATM   13  C11 UNK     1      21.136  -7.952  36.212  1.00  0.00     0.001 A 
HETATM   14  C19 UNK     1      21.084  -9.173  35.534  1.00  0.00     0.038 A 
HETATM   15  C13 UNK     1      22.154  -7.739  37.136  1.00  0.00     0.089 A 
HETATM   16  C21 UNK     1      22.047 -10.154  35.787  1.00  0.00     0.035 A 
HETATM   17  C22 UNK     1      23.062  -9.923  36.718  1.00  0.00     0.026 A 
HETATM   18 Cl1  UNK     1      21.980 -11.656  34.947  1.00  0.00    -0.084 Cl
HETATM   19  C20 UNK     1      23.120  -8.709  37.399  1.00  0.00     0.040 A 
HETATM   20  O2  UNK     1      22.239  -6.523  37.841  1.00  0.00    -0.274 OA
HETATM   21  C16 UNK     1      21.320  -5.496  37.646  1.00  0.00     0.304 A 
HETATM   22  O6  UNK     1      21.402  -4.440  38.264  1.00  0.00    -0.259 OA
ENDBRANCH   8  11
ENDBRANCH   4   7
BRANCH   3  23
HETATM   23  C6  UNK     1      20.114  -1.841  33.409  1.00  0.00     0.297 C 
HETATM   24  O3  UNK     1      21.269  -2.252  33.592  1.00  0.00    -0.259 OA
BRANCH  23  25
HETATM   25  O1  UNK     1      19.619  -1.574  32.151  1.00  0.00    -0.313 OA
BRANCH  25  26
HETATM   26  C8  UNK     1      20.578  -1.289  31.126  1.00  0.00     0.124 C 
HETATM   27  C14 UNK     1      20.442  -2.317  30.014  1.00  0.00     0.040 C 
HETATM   28  C15 UNK     1      20.360   0.128  30.619  1.00  0.00     0.040 C 
ENDBRANCH  25  26
ENDBRANCH  23  25
ENDBRANCH   3  23
BRANCH   5  29
HETATM   29  C7  UNK     1      16.431   0.331  36.083  1.00  0.00     0.260 C 
HETATM   30  O4  UNK     1      15.260   0.214  35.663  1.00  0.00    -0.267 OA
HETATM   31  N2  UNK     1      16.752   1.371  37.001  1.00  0.00    -0.356 N 
HETATM   32  C17 UNK     1      18.084   1.574  37.568  1.00  0.00     0.152 C 
HETATM   33  C18 UNK     1      15.729   2.303  37.458  1.00  0.00     0.152 C 
ENDBRANCH   5  29
TORSDOF 6
ENDMDL
MODEL 8
REMARK VINA RESULT:      -7.7     10.368     13.399
REMARK  6 active torsions:
REMARK  status: ('A' for Active; 'I' for Inactive)
REMARK    1  A    between atoms: C6_16  and  O1_3 
REMARK    2  A    between atoms: C8_18  and  O1_3 
REMARK       I    between atoms: C10_20  and  N1_9 
REMARK    3  A    between atoms: C3_13  and  N1_9 
REMARK       I    between atoms: C7_17  and  N2_10 
REMARK    4  A    between atoms: C2_12  and  C6_16 
REMARK    5  A    between atoms: C4_14  and  C7_17 
REMARK    6  A    between atoms: C10_20  and  C9_19 
ROOT
HETATM    1  S1  UNK     1      32.366  -8.698  31.863  1.00  0.00    -0.065 SA
HETATM    2  C1  UNK     1      31.297  -6.948  30.316  1.00  0.00    -0.020 A 
HETATM    3  C2  UNK     1      30.513  -6.956  31.505  1.00  0.00     0.080 A 
HETATM    4  C3  UNK     1      30.993  -7.855  32.403  1.00  0.00     0.094 A 
HETATM    5  C4  UNK     1      32.338  -7.848  30.376  1.00  0.00     0.081 A 
HETATM    6  C5  UNK     1      31.025  -6.072  29.148  1.00  0.00     0.051 C 
ENDROOT
BRANCH   4   7
HETATM    7  N1  UNK     1      30.540  -8.189  33.683  1.00  0.00    -0.316 N 
HETATM    8  C10 UNK     1      30.913  -7.572  34.869  1.00  0.00     0.262 C 
HETATM    9  O5  UNK     1      31.691  -6.635  35.035  1.00  0.00    -0.267 OA
HETATM   10  H4  UNK     1      29.873  -8.955  33.721  1.00  0.00     0.169 HD
BRANCH   8  11
HETATM   11  C9  UNK     1      30.248  -8.174  36.031  1.00  0.00     0.108 A 
HETATM   12  C12 UNK     1      28.980  -7.802  36.246  1.00  0.00     0.037 A 
HETATM   13  C11 UNK     1      28.238  -8.345  37.373  1.00  0.00     0.001 A 
HETATM   14  C19 UNK     1      26.914  -7.984  37.636  1.00  0.00     0.038 A 
HETATM   15  C13 UNK     1      28.867  -9.254  38.217  1.00  0.00     0.089 A 
HETATM   16  C21 UNK     1      26.245  -8.535  38.733  1.00  0.00     0.035 A 
HETATM   17  C22 UNK     1      26.892  -9.445  39.570  1.00  0.00     0.026 A 
HETATM   18 Cl1  UNK     1      24.613  -8.088  39.052  1.00  0.00    -0.084 Cl
HETATM   19  C20 UNK     1      28.212  -9.811  39.314  1.00  0.00     0.040 A 
HETATM   20  O2  UNK     1      30.201  -9.643  37.986  1.00  0.00    -0.274 OA
HETATM   21  C16 UNK     1      30.937  -9.140  36.915  1.00  0.00     0.304 A 
HETATM   22  O6  UNK     1      32.098  -9.484  36.722  1.00  0.00    -0.259 OA
ENDBRANCH   8  11
ENDBRANCH   4   7
BRANCH   3  23
HETATM   23  C6  UNK     1      29.357  -6.129  31.750  1.00  0.00     0.297 C 
HETATM   24  O3  UNK     1      29.410  -4.903  31.927  1.00  0.00    -0.259 OA
BRANCH  23  25
HETATM   25  O1  UNK     1      28.167  -6.823  31.772  1.00  0.00    -0.313 OA
BRANCH  25  26
HETATM   26  C8  UNK     1      27.616  -7.202  30.506  1.00  0.00     0.124 C 
HETATM   27  C14 UNK     1      27.666  -8.716  30.372  1.00  0.00     0.040 C 
HETATM   28  C15 UNK     1      26.196  -6.669  30.399  1.00  0.00     0.040 C 
ENDBRANCH  25  26
ENDBRANCH  23  25
ENDBRANCH   3  23
BRANCH   5  29
HETATM   29  C7  UNK     1      33.340  -8.140  29.401  1.00  0.00     0.260 C 
HETATM   30  O4  UNK     1      33.104  -8.886  28.426  1.00  0.00    -0.267 OA
HETATM   31  N2  UNK     1      34.633  -7.563  29.553  1.00  0.00    -0.356 N 
HETATM   32  C17 UNK     1      34.998  -6.659  30.644  1.00  0.00     0.152 C 
HETATM   33  C18 UNK     1      35.687  -7.832  28.584  1.00  0.00     0.152 C 
ENDBRANCH   5  29
TORSDOF 6
ENDMDL
MODEL 9
REMARK VINA RESULT:      -7.7      6.527      9.608
REMARK  6 active torsions:
REMARK  status: ('A' for Active; 'I' for Inactive)
REMARK    1  A    between atoms: C6_16  and  O1_3 
REMARK    2  A    between atoms: C8_18  and  O1_3 
REMARK       I    between atoms: C10_20  and  N1_9 
REMARK    3  A    between atoms: C3_13  and  N1_9 
REMARK       I    between atoms: C7_17  and  N2_10 
REMARK    4  A    between atoms: C2_12  and  C6_16 
REMARK    5  A    between atoms: C4_14  and  C7_17 
REMARK    6  A    between atoms: C10_20  and  C9_19 
ROOT
HETATM    1  S1  UNK     1      16.178   6.920  34.538  1.00  0.00    -0.065 SA
HETATM    2  C1  UNK     1      17.946   8.714  34.032  1.00  0.00    -0.020 A 
HETATM    3  C2  UNK     1      18.598   7.458  33.865  1.00  0.00     0.080 A 
HETATM    4  C3  UNK     1      17.747   6.428  34.111  1.00  0.00     0.094 A 
HETATM    5  C4  UNK     1      16.626   8.567  34.398  1.00  0.00     0.081 A 
HETATM    6  C5  UNK     1      18.610  10.027  33.836  1.00  0.00     0.051 C 
ENDROOT
BRANCH   4   7
HETATM    7  N1  UNK     1      17.959   5.046  34.066  1.00  0.00    -0.316 N 
HETATM    8  C10 UNK     1      17.765   4.224  32.964  1.00  0.00     0.262 C 
HETATM    9  O5  UNK     1      17.382   4.530  31.837  1.00  0.00    -0.267 OA
HETATM   10  H4  UNK     1      18.290   4.629  34.932  1.00  0.00     0.169 HD
BRANCH   8  11
HETATM   11  C9  UNK     1      18.082   2.823  33.265  1.00  0.00     0.108 A 
HETATM   12  C12 UNK     1      17.972   2.453  34.546  1.00  0.00     0.037 A 
HETATM   13  C11 UNK     1      18.264   1.084  34.942  1.00  0.00     0.001 A 
HETATM   14  C19 UNK     1      18.164   0.654  36.267  1.00  0.00     0.038 A 
HETATM   15  C13 UNK     1      18.658   0.172  33.967  1.00  0.00     0.089 A 
HETATM   16  C21 UNK     1      18.456  -0.673  36.596  1.00  0.00     0.035 A 
HETATM   17  C22 UNK     1      18.850  -1.574  35.605  1.00  0.00     0.026 A 
HETATM   18 Cl1  UNK     1      18.329  -1.199  38.230  1.00  0.00    -0.084 Cl
HETATM   19  C20 UNK     1      18.953  -1.153  34.280  1.00  0.00     0.040 A 
HETATM   20  O2  UNK     1      18.772   0.567  32.620  1.00  0.00    -0.274 OA
HETATM   21  C16 UNK     1      18.498   1.870  32.212  1.00  0.00     0.304 A 
HETATM   22  O6  UNK     1      18.600   2.205  31.037  1.00  0.00    -0.259 OA
ENDBRANCH   8  11
ENDBRANCH   4   7
BRANCH   3  23
HETATM   23  C6  UNK     1      19.977   7.275  33.486  1.00  0.00     0.297 C 
HETATM   24  O3  UNK     1      20.888   8.056  33.798  1.00  0.00    -0.259 OA
BRANCH  23  25
HETATM   25  O1  UNK     1      20.205   6.142  32.737  1.00  0.00    -0.313 OA
BRANCH  25  26
HETATM   26  C8  UNK     1      20.873   6.319  31.483  1.00  0.00     0.124 C 
HETATM   27  C14 UNK     1      22.256   5.691  31.559  1.00  0.00     0.040 C 
HETATM   28  C15 UNK     1      20.031   5.702  30.377  1.00  0.00     0.040 C 
ENDBRANCH  25  26
ENDBRANCH  23  25
ENDBRANCH   3  23
BRANCH   5  29
HETATM   29  C7  UNK     1      15.642   9.569  34.659  1.00  0.00     0.260 C 
HETATM   30  O4  UNK     1      15.542  10.110  35.781  1.00  0.00    -0.267 OA
HETATM   31  N2  UNK     1      14.760   9.954  33.609  1.00  0.00    -0.356 N 
HETATM   32  C17 UNK     1      14.815   9.399  32.257  1.00  0.00     0.152 C 
HETATM   33  C18 UNK     1      13.741  10.971  33.827  1.00  0.00     0.152 C 
ENDBRANCH   5  29
TORSDOF 6
ENDMDL
MODEL 10
REMARK VINA RESULT:      -7.7     27.979     31.090
REMARK  6 active torsions:
REMARK  status: ('A' for Active; 'I' for Inactive)
REMARK    1  A    between atoms: C6_16  and  O1_3 
REMARK    2  A    between atoms: C8_18  and  O1_3 
REMARK       I    between atoms: C10_20  and  N1_9 
REMARK    3  A    between atoms: C3_13  and  N1_9 
REMARK       I    between atoms: C7_17  and  N2_10 
REMARK    4  A    between atoms: C2_12  and  C6_16 
REMARK    5  A    between atoms: C4_14  and  C7_17 
REMARK    6  A    between atoms: C10_20  and  C9_19 
ROOT
HETATM    1  S1  UNK     1      12.099   8.930   8.518  1.00  0.00    -0.065 SA
HETATM    2  C1  UNK     1      12.296   6.434   9.094  1.00  0.00    -0.020 A 
HETATM    3  C2  UNK     1      13.628   6.935   9.047  1.00  0.00     0.080 A 
HETATM    4  C3  UNK     1      13.644   8.260   8.747  1.00  0.00     0.094 A 
HETATM    5  C4  UNK     1      11.365   7.414   8.824  1.00  0.00     0.081 A 
HETATM    6  C5  UNK     1      11.950   5.022   9.397  1.00  0.00     0.051 C 
ENDROOT
BRANCH   4   7
HETATM    7  N1  UNK     1      14.717   9.145   8.601  1.00  0.00    -0.316 N 
HETATM    8  C10 UNK     1      14.947  10.284   9.361  1.00  0.00     0.262 C 
HETATM    9  O5  UNK     1      14.278  10.735  10.289  1.00  0.00    -0.267 OA
HETATM   10  H4  UNK     1      15.379   8.907   7.867  1.00  0.00     0.169 HD
BRANCH   8  11
HETATM   11  C9  UNK     1      16.166  10.984   8.940  1.00  0.00     0.108 A 
HETATM   12  C12 UNK     1      17.205  10.922   9.780  1.00  0.00     0.037 A 
HETATM   13  C11 UNK     1      18.457  11.584   9.450  1.00  0.00     0.001 A 
HETATM   14  C19 UNK     1      19.567  11.546  10.298  1.00  0.00     0.038 A 
HETATM   15  C13 UNK     1      18.552  12.281   8.249  1.00  0.00     0.089 A 
HETATM   16  C21 UNK     1      20.747  12.200   9.934  1.00  0.00     0.035 A 
HETATM   17  C22 UNK     1      20.825  12.895   8.725  1.00  0.00     0.026 A 
HETATM   18 Cl1  UNK     1      22.113  12.150  10.981  1.00  0.00    -0.084 Cl
HETATM   19  C20 UNK     1      19.723  12.938   7.874  1.00  0.00     0.040 A 
HETATM   20  O2  UNK     1      17.456  12.343   7.367  1.00  0.00    -0.274 OA
HETATM   21  C16 UNK     1      16.245  11.718   7.657  1.00  0.00     0.304 A 
HETATM   22  O6  UNK     1      15.296  11.778   6.884  1.00  0.00    -0.259 OA
ENDBRANCH   8  11
ENDBRANCH   4   7
BRANCH   3  23
HETATM   23  C6  UNK     1      14.822   6.161   9.284  1.00  0.00     0.297 C 
HETATM   24  O3  UNK     1      15.329   5.400   8.447  1.00  0.00    -0.259 OA
BRANCH  23  25
HETATM   25  O1  UNK     1      15.365   6.340  10.538  1.00  0.00    -0.313 OA
BRANCH  25  26
HETATM   26  C8  UNK     1      16.145   7.524  10.742  1.00  0.00     0.124 C 
HETATM   27  C14 UNK     1      15.849   8.086  12.124  1.00  0.00     0.040 C 
HETATM   28  C15 UNK     1      17.618   7.187  10.570  1.00  0.00     0.040 C 
ENDBRANCH  25  26
ENDBRANCH  23  25
ENDBRANCH   3  23
BRANCH   5  29
HETATM   29  C7  UNK     1       9.941   7.319   8.773  1.00  0.00     0.260 C 
HETATM   30  O4  UNK     1       9.230   7.638   9.750  1.00  0.00    -0.267 OA
HETATM   31  N2  UNK     1       9.327   6.850   7.577  1.00  0.00    -0.356 N 
HETATM   32  C17 UNK     1      10.070   6.478   6.373  1.00  0.00     0.152 C 
HETATM   33  C18 UNK     1       7.878   6.736   7.477  1.00  0.00     0.152 C 
ENDBRANCH   5  29
TORSDOF 6
ENDMDL
