MODEL 1
REMARK VINA RESULT:      -9.3      0.000      0.000
REMARK  7 active torsions:
REMARK  status: ('A' for Active; 'I' for Inactive)
REMARK    1  A    between atoms: C18_27  and  O5_5 
REMARK    2  A    between atoms: C21_30  and  O6_6 
REMARK    3  A    between atoms: C34_43  and  O7_7 
REMARK       I    between atoms: C12_21  and  N2_9 
REMARK    4  A    between atoms: C24_33  and  N2_9 
REMARK    5  A    between atoms: C1_10  and  C9_18 
REMARK    6  A    between atoms: C11_20  and  C4_13 
REMARK    7  A    between atoms: C12_21  and  C8_17 
ROOT
HETATM    1  O1  UNK     1      33.444 -10.762  33.380  1.00  0.00    -0.293 OA
HETATM    2  N1  UNK     1      35.648  -6.579  33.665  1.00  0.00    -0.362 N 
HETATM    3  C1  UNK     1      36.781  -9.889  32.292  1.00  0.00     0.031 C 
HETATM    4  C2  UNK     1      36.953  -8.565  33.051  1.00  0.00     0.067 C 
HETATM    5  C3  UNK     1      34.468  -8.621  33.450  1.00  0.00     0.024 C 
HETATM    6  C4  UNK     1      33.149  -7.919  33.753  1.00  0.00     0.104 C 
HETATM    7  C5  UNK     1      35.628  -7.934  33.396  1.00  0.00     0.021 C 
HETATM    8  C6  UNK     1      35.806 -10.800  33.040  1.00  0.00     0.093 C 
HETATM    9  C7  UNK     1      34.480 -10.108  33.273  1.00  0.00     0.159 C 
HETATM   10  C8  UNK     1      33.339  -6.460  34.172  1.00  0.00     0.045 C 
HETATM   11  C10 UNK     1      34.546  -5.853  34.090  1.00  0.00     0.018 C 
HETATM   12  C15 UNK     1      34.823  -4.413  34.428  1.00  0.00     0.069 C 
HETATM   13  H7  UNK     1      36.540  -6.098  33.617  1.00  0.00     0.165 HD
ENDROOT
BRANCH  10  14
HETATM   14  C12 UNK     1      32.157  -5.771  34.714  1.00  0.00     0.255 C 
HETATM   15  O3  UNK     1      31.668  -4.829  34.097  1.00  0.00    -0.268 OA
HETATM   16  N2  UNK     1      31.743  -6.322  35.918  1.00  0.00    -0.323 N 
HETATM   17  H15 UNK     1      32.267  -7.115  36.281  1.00  0.00     0.169 HD
BRANCH  16  18
HETATM   18  C24 UNK     1      30.647  -5.916  36.717  1.00  0.00     0.035 A 
HETATM   19  C28 UNK     1      30.710  -4.708  37.389  1.00  0.00     0.032 A 
HETATM   20  C32 UNK     1      29.629  -4.308  38.175  1.00  0.00     0.039 A 
HETATM   21  C34 UNK     1      28.502  -5.123  38.277  1.00  0.00     0.068 A 
HETATM   22  C33 UNK     1      28.455  -6.337  37.594  1.00  0.00     0.039 A 
HETATM   23  C29 UNK     1      29.535  -6.737  36.807  1.00  0.00     0.032 A 
BRANCH  21  24
HETATM   24  O7  UNK     1      27.448  -4.733  39.046  1.00  0.00    -0.356 OA
HETATM   25  C35 UNK     1      26.197  -5.375  38.805  1.00  0.00     0.210 C 
ENDBRANCH  21  24
ENDBRANCH  16  18
ENDBRANCH  10  14
BRANCH   6  26
HETATM   26  C11 UNK     1      32.229  -8.002  32.564  1.00  0.00     0.029 A 
HETATM   27  C16 UNK     1      30.810  -8.374  32.792  1.00  0.00     0.194 A 
HETATM   28  O4  UNK     1      30.370  -8.611  33.908  1.00  0.00    -0.287 OA
HETATM   29  C19 UNK     1      29.952  -8.444  31.593  1.00  0.00     0.048 A 
HETATM   30  C22 UNK     1      30.509  -8.163  30.345  1.00  0.00     0.089 A 
HETATM   31  C23 UNK     1      28.602  -8.784  31.703  1.00  0.00     0.018 A 
HETATM   32  O2  UNK     1      31.828  -7.822  30.180  1.00  0.00    -0.321 OA
HETATM   33  C25 UNK     1      29.716  -8.222  29.198  1.00  0.00     0.038 A 
HETATM   34  C17 UNK     1      32.613  -7.763  31.304  1.00  0.00     0.154 A 
HETATM   35  C27 UNK     1      28.368  -8.562  29.304  1.00  0.00     0.003 A 
HETATM   36  C26 UNK     1      27.812  -8.842  30.553  1.00  0.00     0.001 A 
ENDBRANCH   6  26
BRANCH   3  37
HETATM   37  C9  UNK     1      38.111 -10.567  32.025  1.00  0.00    -0.050 A 
HETATM   38  C13 UNK     1      38.657 -10.544  30.744  1.00  0.00     0.047 A 
HETATM   39  C18 UNK     1      39.881 -11.169  30.499  1.00  0.00     0.102 A 
HETATM   40  C21 UNK     1      40.555 -11.813  31.535  1.00  0.00     0.101 A 
HETATM   41  C20 UNK     1      40.006 -11.835  32.817  1.00  0.00     0.040 A 
HETATM   42  C14 UNK     1      38.782 -11.211  33.063  1.00  0.00     0.010 A 
BRANCH  39  43
HETATM   43  O5  UNK     1      40.407 -11.141  29.242  1.00  0.00    -0.353 OA
HETATM   44  C30 UNK     1      39.950 -12.133  28.326  1.00  0.00     0.210 C 
ENDBRANCH  39  43
BRANCH  40  45
HETATM   45  O6  UNK     1      41.750 -12.427  31.307  1.00  0.00    -0.353 OA
HETATM   46  C31 UNK     1      42.715 -12.378  32.356  1.00  0.00     0.210 C 
ENDBRANCH  40  45
ENDBRANCH   3  37
TORSDOF 7
ENDMDL
MODEL 2
REMARK VINA RESULT:      -9.2      0.643      1.392
REMARK  7 active torsions:
REMARK  status: ('A' for Active; 'I' for Inactive)
REMARK    1  A    between atoms: C18_27  and  O5_5 
REMARK    2  A    between atoms: C21_30  and  O6_6 
REMARK    3  A    between atoms: C34_43  and  O7_7 
REMARK       I    between atoms: C12_21  and  N2_9 
REMARK    4  A    between atoms: C24_33  and  N2_9 
REMARK    5  A    between atoms: C1_10  and  C9_18 
REMARK    6  A    between atoms: C11_20  and  C4_13 
REMARK    7  A    between atoms: C12_21  and  C8_17 
ROOT
HETATM    1  O1  UNK     1      33.376 -10.649  33.248  1.00  0.00    -0.293 OA
HETATM    2  N1  UNK     1      35.608  -6.482  33.572  1.00  0.00    -0.362 N 
HETATM    3  C1  UNK     1      36.685  -9.761  32.085  1.00  0.00     0.031 C 
HETATM    4  C2  UNK     1      36.885  -8.458  32.871  1.00  0.00     0.067 C 
HETATM    5  C3  UNK     1      34.412  -8.514  33.341  1.00  0.00     0.024 C 
HETATM    6  C4  UNK     1      33.106  -7.814  33.699  1.00  0.00     0.104 C 
HETATM    7  C5  UNK     1      35.573  -7.830  33.270  1.00  0.00     0.021 C 
HETATM    8  C6  UNK     1      35.728 -10.687  32.838  1.00  0.00     0.093 C 
HETATM    9  C7  UNK     1      34.412  -9.996  33.126  1.00  0.00     0.159 C 
HETATM   10  C8  UNK     1      33.314  -6.367  34.148  1.00  0.00     0.045 C 
HETATM   11  C10 UNK     1      34.521  -5.763  34.046  1.00  0.00     0.018 C 
HETATM   12  C15 UNK     1      34.815  -4.333  34.411  1.00  0.00     0.069 C 
HETATM   13  H7  UNK     1      36.500  -6.004  33.510  1.00  0.00     0.165 HD
ENDROOT
BRANCH  10  14
HETATM   14  C12 UNK     1      32.151  -5.688  34.741  1.00  0.00     0.255 C 
HETATM   15  O3  UNK     1      31.694  -4.685  34.199  1.00  0.00    -0.268 OA
HETATM   16  N2  UNK     1      31.716  -6.318  35.897  1.00  0.00    -0.323 N 
HETATM   17  H15 UNK     1      32.214  -7.153  36.197  1.00  0.00     0.169 HD
BRANCH  16  18
HETATM   18  C24 UNK     1      30.630  -5.943  36.723  1.00  0.00     0.035 A 
HETATM   19  C28 UNK     1      30.694  -4.753  37.426  1.00  0.00     0.032 A 
HETATM   20  C32 UNK     1      29.623  -4.383  38.240  1.00  0.00     0.039 A 
HETATM   21  C34 UNK     1      28.504  -5.210  38.339  1.00  0.00     0.068 A 
HETATM   22  C33 UNK     1      28.457  -6.406  37.624  1.00  0.00     0.039 A 
HETATM   23  C29 UNK     1      29.527  -6.776  36.810  1.00  0.00     0.032 A 
BRANCH  21  24
HETATM   24  O7  UNK     1      27.460  -4.850  39.134  1.00  0.00    -0.356 OA
HETATM   25  C35 UNK     1      26.174  -5.366  38.790  1.00  0.00     0.210 C 
ENDBRANCH  21  24
ENDBRANCH  16  18
ENDBRANCH  10  14
BRANCH   6  26
HETATM   26  C11 UNK     1      32.152  -7.865  32.535  1.00  0.00     0.029 A 
HETATM   27  C16 UNK     1      30.752  -8.292  32.786  1.00  0.00     0.194 A 
HETATM   28  O4  UNK     1      30.354  -8.600  33.901  1.00  0.00    -0.287 OA
HETATM   29  C19 UNK     1      29.859  -8.326  31.611  1.00  0.00     0.048 A 
HETATM   30  C22 UNK     1      30.368  -7.963  30.363  1.00  0.00     0.089 A 
HETATM   31  C23 UNK     1      28.524  -8.713  31.743  1.00  0.00     0.018 A 
HETATM   32  O2  UNK     1      31.670  -7.573  30.177  1.00  0.00    -0.321 OA
HETATM   33  C25 UNK     1      29.541  -7.987  29.239  1.00  0.00     0.038 A 
HETATM   34  C17 UNK     1      32.489  -7.548  31.278  1.00  0.00     0.154 A 
HETATM   35  C27 UNK     1      28.207  -8.375  29.368  1.00  0.00     0.003 A 
HETATM   36  C26 UNK     1      27.700  -8.736  30.616  1.00  0.00     0.001 A 
ENDBRANCH   6  26
BRANCH   3  37
HETATM   37  C9  UNK     1      38.003 -10.438  31.763  1.00  0.00    -0.050 A 
HETATM   38  C13 UNK     1      38.919 -10.695  32.780  1.00  0.00     0.047 A 
HETATM   39  C18 UNK     1      40.132 -11.317  32.482  1.00  0.00     0.102 A 
HETATM   40  C21 UNK     1      40.425 -11.683  31.169  1.00  0.00     0.101 A 
HETATM   41  C20 UNK     1      39.506 -11.425  30.151  1.00  0.00     0.040 A 
HETATM   42  C14 UNK     1      38.293 -10.802  30.449  1.00  0.00     0.010 A 
BRANCH  39  43
HETATM   43  O5  UNK     1      41.022 -11.564  33.484  1.00  0.00    -0.353 OA
HETATM   44  C30 UNK     1      40.810 -12.738  34.264  1.00  0.00     0.210 C 
ENDBRANCH  39  43
BRANCH  40  45
HETATM   45  O6  UNK     1      41.606 -12.291  30.866  1.00  0.00    -0.353 OA
HETATM   46  C31 UNK     1      41.575 -13.701  30.658  1.00  0.00     0.210 C 
ENDBRANCH  40  45
ENDBRANCH   3  37
TORSDOF 7
ENDMDL
MODEL 3
REMARK VINA RESULT:      -8.9      2.091      2.392
REMARK  7 active torsions:
REMARK  status: ('A' for Active; 'I' for Inactive)
REMARK    1  A    between atoms: C18_27  and  O5_5 
REMARK    2  A    between atoms: C21_30  and  O6_6 
REMARK    3  A    between atoms: C34_43  and  O7_7 
REMARK       I    between atoms: C12_21  and  N2_9 
REMARK    4  A    between atoms: C24_33  and  N2_9 
REMARK    5  A    between atoms: C1_10  and  C9_18 
REMARK    6  A    between atoms: C11_20  and  C4_13 
REMARK    7  A    between atoms: C12_21  and  C8_17 
ROOT
HETATM    1  O1  UNK     1      32.386 -10.712  32.316  1.00  0.00    -0.293 OA
HETATM    2  N1  UNK     1      34.768  -7.782  35.177  1.00  0.00    -0.362 N 
HETATM    3  C1  UNK     1      35.839  -9.657  32.101  1.00  0.00     0.031 C 
HETATM    4  C2  UNK     1      36.016  -9.091  33.517  1.00  0.00     0.067 C 
HETATM    5  C3  UNK     1      33.508  -9.157  33.717  1.00  0.00     0.024 C 
HETATM    6  C4  UNK     1      32.206  -8.671  34.344  1.00  0.00     0.104 C 
HETATM    7  C5  UNK     1      34.701  -8.685  34.133  1.00  0.00     0.021 C 
HETATM    8  C6  UNK     1      34.763 -10.745  32.101  1.00  0.00     0.093 C 
HETATM    9  C7  UNK     1      33.459 -10.223  32.666  1.00  0.00     0.159 C 
HETATM   10  C8  UNK     1      32.435  -7.792  35.575  1.00  0.00     0.045 C 
HETATM   11  C10 UNK     1      33.673  -7.371  35.922  1.00  0.00     0.018 C 
HETATM   12  C15 UNK     1      33.995  -6.466  37.080  1.00  0.00     0.069 C 
HETATM   13  H7  UNK     1      35.684  -7.454  35.463  1.00  0.00     0.165 HD
ENDROOT
BRANCH  10  14
HETATM   14  C12 UNK     1      31.249  -7.474  36.387  1.00  0.00     0.255 C 
HETATM   15  O3  UNK     1      31.096  -6.334  36.815  1.00  0.00    -0.268 OA
HETATM   16  N2  UNK     1      30.428  -8.578  36.560  1.00  0.00    -0.323 N 
HETATM   17  H15 UNK     1      30.710  -9.452  36.120  1.00  0.00     0.169 HD
BRANCH  16  18
HETATM   18  C24 UNK     1      29.211  -8.640  37.280  1.00  0.00     0.035 A 
HETATM   19  C28 UNK     1      28.056  -8.143  36.700  1.00  0.00     0.032 A 
HETATM   20  C32 UNK     1      26.856  -8.204  37.409  1.00  0.00     0.039 A 
HETATM   21  C34 UNK     1      26.829  -8.763  38.686  1.00  0.00     0.068 A 
HETATM   22  C33 UNK     1      28.001  -9.259  39.255  1.00  0.00     0.039 A 
HETATM   23  C29 UNK     1      29.201  -9.198  38.547  1.00  0.00     0.032 A 
BRANCH  21  24
HETATM   24  O7  UNK     1      25.658  -8.822  39.378  1.00  0.00    -0.356 OA
HETATM   25  C35 UNK     1      24.586  -8.005  38.910  1.00  0.00     0.210 C 
ENDBRANCH  21  24
ENDBRANCH  16  18
ENDBRANCH  10  14
BRANCH   6  26
HETATM   26  C11 UNK     1      31.381  -7.931  33.324  1.00  0.00     0.029 A 
HETATM   27  C16 UNK     1      29.991  -8.389  33.072  1.00  0.00     0.194 A 
HETATM   28  O4  UNK     1      29.500  -9.340  33.664  1.00  0.00    -0.287 OA
HETATM   29  C19 UNK     1      29.227  -7.631  32.062  1.00  0.00     0.048 A 
HETATM   30  C22 UNK     1      29.838  -6.554  31.418  1.00  0.00     0.089 A 
HETATM   31  C23 UNK     1      27.912  -7.982  31.753  1.00  0.00     0.018 A 
HETATM   32  O2  UNK     1      31.127  -6.165  31.683  1.00  0.00    -0.321 OA
HETATM   33  C25 UNK     1      29.134  -5.823  30.459  1.00  0.00     0.038 A 
HETATM   34  C17 UNK     1      31.825  -6.880  32.624  1.00  0.00     0.154 A 
HETATM   35  C27 UNK     1      27.820  -6.173  30.149  1.00  0.00     0.003 A 
HETATM   36  C26 UNK     1      27.210  -7.249  30.794  1.00  0.00     0.001 A 
ENDBRANCH   6  26
BRANCH   3  37
HETATM   37  C9  UNK     1      37.150 -10.147  31.517  1.00  0.00    -0.050 A 
HETATM   38  C13 UNK     1      37.252 -10.395  30.150  1.00  0.00     0.047 A 
HETATM   39  C18 UNK     1      38.459 -10.846  29.614  1.00  0.00     0.102 A 
HETATM   40  C21 UNK     1      39.560 -11.047  30.446  1.00  0.00     0.101 A 
HETATM   41  C20 UNK     1      39.455 -10.798  31.814  1.00  0.00     0.040 A 
HETATM   42  C14 UNK     1      38.249 -10.347  32.351  1.00  0.00     0.010 A 
BRANCH  39  43
HETATM   43  O5  UNK     1      38.549 -11.086  28.276  1.00  0.00    -0.353 OA
HETATM   44  C30 UNK     1      38.212 -12.397  27.828  1.00  0.00     0.210 C 
ENDBRANCH  39  43
BRANCH  40  45
HETATM   45  O6  UNK     1      40.743 -11.488  29.933  1.00  0.00    -0.353 OA
HETATM   46  C31 UNK     1      41.098 -12.844  30.194  1.00  0.00     0.210 C 
ENDBRANCH  40  45
ENDBRANCH   3  37
TORSDOF 7
ENDMDL
MODEL 4
REMARK VINA RESULT:      -8.7     32.706     36.456
REMARK  7 active torsions:
REMARK  status: ('A' for Active; 'I' for Inactive)
REMARK    1  A    between atoms: C18_27  and  O5_5 
REMARK    2  A    between atoms: C21_30  and  O6_6 
REMARK    3  A    between atoms: C34_43  and  O7_7 
REMARK       I    between atoms: C12_21  and  N2_9 
REMARK    4  A    between atoms: C24_33  and  N2_9 
REMARK    5  A    between atoms: C1_10  and  C9_18 
REMARK    6  A    between atoms: C11_20  and  C4_13 
REMARK    7  A    between atoms: C12_21  and  C8_17 
ROOT
HETATM    1  O1  UNK     1      18.133   9.411  10.161  1.00  0.00    -0.293 OA
HETATM    2  N1  UNK     1      15.290  12.078   7.467  1.00  0.00    -0.362 N 
HETATM    3  C1  UNK     1      14.660   8.864   9.312  1.00  0.00     0.031 C 
HETATM    4  C2  UNK     1      14.534   9.839   8.132  1.00  0.00     0.067 C 
HETATM    5  C3  UNK     1      16.719  10.833   8.890  1.00  0.00     0.024 C 
HETATM    6  C4  UNK     1      17.706  11.993   8.952  1.00  0.00     0.104 C 
HETATM    7  C5  UNK     1      15.571  10.932   8.188  1.00  0.00     0.021 C 
HETATM    8  C6  UNK     1      16.105   8.379   9.441  1.00  0.00     0.093 C 
HETATM    9  C7  UNK     1      17.063   9.544   9.568  1.00  0.00     0.159 C 
HETATM   10  C8  UNK     1      17.342  13.132   7.998  1.00  0.00     0.045 C 
HETATM   11  C10 UNK     1      16.167  13.143   7.328  1.00  0.00     0.018 C 
HETATM   12  C15 UNK     1      15.696  14.238   6.409  1.00  0.00     0.069 C 
HETATM   13  H7  UNK     1      14.419  12.112   6.951  1.00  0.00     0.165 HD
ENDROOT
BRANCH  10  14
HETATM   14  C12 UNK     1      18.356  14.182   7.809  1.00  0.00     0.255 C 
HETATM   15  O3  UNK     1      18.032  15.362   7.909  1.00  0.00    -0.268 OA
HETATM   16  N2  UNK     1      19.605  13.652   7.526  1.00  0.00    -0.323 N 
HETATM   17  H15 UNK     1      19.693  12.638   7.490  1.00  0.00     0.169 HD
BRANCH  16  18
HETATM   18  C24 UNK     1      20.807  14.362   7.287  1.00  0.00     0.035 A 
HETATM   19  C28 UNK     1      20.997  14.979   6.063  1.00  0.00     0.032 A 
HETATM   20  C32 UNK     1      22.180  15.679   5.829  1.00  0.00     0.039 A 
HETATM   21  C34 UNK     1      23.156  15.752   6.823  1.00  0.00     0.068 A 
HETATM   22  C33 UNK     1      22.948  15.124   8.051  1.00  0.00     0.039 A 
HETATM   23  C29 UNK     1      21.765  14.424   8.285  1.00  0.00     0.032 A 
BRANCH  21  24
HETATM   24  O7  UNK     1      24.311  16.434   6.594  1.00  0.00    -0.356 OA
HETATM   25  C35 UNK     1      24.342  17.807   6.982  1.00  0.00     0.210 C 
ENDBRANCH  21  24
ENDBRANCH  16  18
ENDBRANCH  10  14
BRANCH   6  26
HETATM   26  C11 UNK     1      17.813  12.512  10.362  1.00  0.00     0.029 A 
HETATM   27  C16 UNK     1      19.147  12.526  11.012  1.00  0.00     0.194 A 
HETATM   28  O4  UNK     1      20.155  12.134  10.440  1.00  0.00    -0.287 OA
HETATM   29  C19 UNK     1      19.195  13.042  12.394  1.00  0.00     0.048 A 
HETATM   30  C22 UNK     1      18.014  13.477  12.996  1.00  0.00     0.089 A 
HETATM   31  C23 UNK     1      20.404  13.097  13.092  1.00  0.00     0.018 A 
HETATM   32  O2  UNK     1      16.800  13.447  12.357  1.00  0.00    -0.321 OA
HETATM   33  C25 UNK     1      18.036  13.969  14.302  1.00  0.00     0.038 A 
HETATM   34  C17 UNK     1      16.771  12.963  11.073  1.00  0.00     0.154 A 
HETATM   35  C27 UNK     1      19.242  14.024  15.001  1.00  0.00     0.003 A 
HETATM   36  C26 UNK     1      20.422  13.590  14.398  1.00  0.00     0.001 A 
ENDBRANCH   6  26
BRANCH   3  37
HETATM   37  C9  UNK     1      13.676   7.715   9.207  1.00  0.00    -0.050 A 
HETATM   38  C13 UNK     1      12.540   7.844   8.411  1.00  0.00     0.047 A 
HETATM   39  C18 UNK     1      11.635   6.786   8.315  1.00  0.00     0.102 A 
HETATM   40  C21 UNK     1      11.869   5.602   9.013  1.00  0.00     0.101 A 
HETATM   41  C20 UNK     1      13.007   5.475   9.810  1.00  0.00     0.040 A 
HETATM   42  C14 UNK     1      13.912   6.533   9.906  1.00  0.00     0.010 A 
BRANCH  39  43
HETATM   43  O5  UNK     1      10.526   6.922   7.534  1.00  0.00    -0.353 OA
HETATM   44  C30 UNK     1      10.707   6.794   6.125  1.00  0.00     0.210 C 
ENDBRANCH  39  43
BRANCH  40  45
HETATM   45  O6  UNK     1      10.992   4.563   8.928  1.00  0.00    -0.353 OA
HETATM   46  C31 UNK     1      10.124   4.353  10.039  1.00  0.00     0.210 C 
ENDBRANCH  40  45
ENDBRANCH   3  37
TORSDOF 7
ENDMDL
MODEL 5
REMARK VINA RESULT:      -8.7     31.048     35.083
REMARK  7 active torsions:
REMARK  status: ('A' for Active; 'I' for Inactive)
REMARK    1  A    between atoms: C18_27  and  O5_5 
REMARK    2  A    between atoms: C21_30  and  O6_6 
REMARK    3  A    between atoms: C34_43  and  O7_7 
REMARK       I    between atoms: C12_21  and  N2_9 
REMARK    4  A    between atoms: C24_33  and  N2_9 
REMARK    5  A    between atoms: C1_10  and  C9_18 
REMARK    6  A    between atoms: C11_20  and  C4_13 
REMARK    7  A    between atoms: C12_21  and  C8_17 
ROOT
HETATM    1  O1  UNK     1      17.485   8.951   9.561  1.00  0.00    -0.293 OA
HETATM    2  N1  UNK     1      14.977  12.863  10.483  1.00  0.00    -0.362 N 
HETATM    3  C1  UNK     1      17.615  12.161   7.899  1.00  0.00     0.031 C 
HETATM    4  C2  UNK     1      16.886  13.015   8.947  1.00  0.00     0.067 C 
HETATM    5  C3  UNK     1      16.131  10.853   9.993  1.00  0.00     0.024 C 
HETATM    6  C4  UNK     1      15.159  10.056  10.856  1.00  0.00     0.104 C 
HETATM    7  C5  UNK     1      15.987  12.185   9.828  1.00  0.00     0.021 C 
HETATM    8  C6  UNK     1      18.294  10.968   8.574  1.00  0.00     0.093 C 
HETATM    9  C7  UNK     1      17.299  10.152   9.372  1.00  0.00     0.159 C 
HETATM   10  C8  UNK     1      14.188  10.949  11.631  1.00  0.00     0.045 C 
HETATM   11  C10 UNK     1      14.118  12.281  11.403  1.00  0.00     0.018 C 
HETATM   12  C15 UNK     1      13.165  13.233  12.074  1.00  0.00     0.069 C 
HETATM   13  H7  UNK     1      14.904  13.864  10.336  1.00  0.00     0.165 HD
ENDROOT
BRANCH  10  14
HETATM   14  C12 UNK     1      13.376  10.294  12.669  1.00  0.00     0.255 C 
HETATM   15  O3  UNK     1      12.477   9.525  12.339  1.00  0.00    -0.268 OA
HETATM   16  N2  UNK     1      13.769  10.664  13.946  1.00  0.00    -0.323 N 
HETATM   17  H15 UNK     1      14.550  11.312  14.033  1.00  0.00     0.169 HD
BRANCH  16  18
HETATM   18  C24 UNK     1      13.216  10.231  15.175  1.00  0.00     0.035 A 
HETATM   19  C28 UNK     1      14.052  10.026  16.259  1.00  0.00     0.032 A 
HETATM   20  C32 UNK     1      13.506   9.601  17.470  1.00  0.00     0.039 A 
HETATM   21  C34 UNK     1      12.132   9.388  17.579  1.00  0.00     0.068 A 
HETATM   22  C33 UNK     1      11.304   9.599  16.477  1.00  0.00     0.039 A 
HETATM   23  C29 UNK     1      11.849  10.024  15.266  1.00  0.00     0.032 A 
BRANCH  21  24
HETATM   24  O7  UNK     1      11.600   8.971  18.761  1.00  0.00    -0.356 OA
HETATM   25  C35 UNK     1      12.507   8.462  19.738  1.00  0.00     0.210 C 
ENDBRANCH  21  24
ENDBRANCH  16  18
ENDBRANCH  10  14
BRANCH   6  26
HETATM   26  C11 UNK     1      14.396   9.073  10.009  1.00  0.00     0.029 A 
HETATM   27  C16 UNK     1      14.500   7.628  10.335  1.00  0.00     0.194 A 
HETATM   28  O4  UNK     1      15.180   7.217  11.265  1.00  0.00    -0.287 OA
HETATM   29  C19 UNK     1      13.734   6.707   9.473  1.00  0.00     0.048 A 
HETATM   30  C22 UNK     1      12.974   7.232   8.427  1.00  0.00     0.089 A 
HETATM   31  C23 UNK     1      13.765   5.329   9.698  1.00  0.00     0.018 A 
HETATM   32  O2  UNK     1      12.906   8.577   8.161  1.00  0.00    -0.321 OA
HETATM   33  C25 UNK     1      12.242   6.380   7.599  1.00  0.00     0.038 A 
HETATM   34  C17 UNK     1      13.625   9.421   8.971  1.00  0.00     0.154 A 
HETATM   35  C27 UNK     1      12.272   5.003   7.822  1.00  0.00     0.003 A 
HETATM   36  C26 UNK     1      13.031   4.480   8.869  1.00  0.00     0.001 A 
ENDBRANCH   6  26
BRANCH   3  37
HETATM   37  C9  UNK     1      18.585  12.982   7.073  1.00  0.00    -0.050 A 
HETATM   38  C13 UNK     1      19.934  13.020   7.420  1.00  0.00     0.047 A 
HETATM   39  C18 UNK     1      20.827  13.776   6.659  1.00  0.00     0.102 A 
HETATM   40  C21 UNK     1      20.368  14.491   5.553  1.00  0.00     0.101 A 
HETATM   41  C20 UNK     1      19.017  14.452   5.207  1.00  0.00     0.040 A 
HETATM   42  C14 UNK     1      18.125  13.696   5.968  1.00  0.00     0.010 A 
BRANCH  39  43
HETATM   43  O5  UNK     1      22.144  13.807   7.007  1.00  0.00    -0.353 OA
HETATM   44  C30 UNK     1      22.508  14.659   8.090  1.00  0.00     0.210 C 
ENDBRANCH  39  43
BRANCH  40  45
HETATM   45  O6  UNK     1      21.230  15.233   4.803  1.00  0.00    -0.353 OA
HETATM   46  C31 UNK     1      21.213  16.646   5.001  1.00  0.00     0.210 C 
ENDBRANCH  40  45
ENDBRANCH   3  37
TORSDOF 7
ENDMDL
MODEL 6
REMARK VINA RESULT:      -8.6      1.044      1.840
REMARK  7 active torsions:
REMARK  status: ('A' for Active; 'I' for Inactive)
REMARK    1  A    between atoms: C18_27  and  O5_5 
REMARK    2  A    between atoms: C21_30  and  O6_6 
REMARK    3  A    between atoms: C34_43  and  O7_7 
REMARK       I    between atoms: C12_21  and  N2_9 
REMARK    4  A    between atoms: C24_33  and  N2_9 
REMARK    5  A    between atoms: C1_10  and  C9_18 
REMARK    6  A    between atoms: C11_20  and  C4_13 
REMARK    7  A    between atoms: C12_21  and  C8_17 
ROOT
HETATM    1  O1  UNK     1      33.855 -11.250  32.957  1.00  0.00    -0.293 OA
HETATM    2  N1  UNK     1      36.070  -7.232  34.139  1.00  0.00    -0.362 N 
HETATM    3  C1  UNK     1      37.271 -10.270  32.280  1.00  0.00     0.031 C 
HETATM    4  C2  UNK     1      37.399  -9.106  33.273  1.00  0.00     0.067 C 
HETATM    5  C3  UNK     1      34.891  -9.178  33.480  1.00  0.00     0.024 C 
HETATM    6  C4  UNK     1      33.560  -8.512  33.810  1.00  0.00     0.104 C 
HETATM    7  C5  UNK     1      36.058  -8.518  33.632  1.00  0.00     0.021 C 
HETATM    8  C6  UNK     1      36.236 -11.278  32.782  1.00  0.00     0.093 C 
HETATM    9  C7  UNK     1      34.902 -10.610  33.041  1.00  0.00     0.159 C 
HETATM   10  C8  UNK     1      33.731  -7.155  34.495  1.00  0.00     0.045 C 
HETATM   11  C10 UNK     1      34.946  -6.570  34.609  1.00  0.00     0.018 C 
HETATM   12  C15 UNK     1      35.211  -5.220  35.217  1.00  0.00     0.069 C 
HETATM   13  H7  UNK     1      36.967  -6.771  34.241  1.00  0.00     0.165 HD
ENDROOT
BRANCH  10  14
HETATM   14  C12 UNK     1      32.519  -6.549  35.068  1.00  0.00     0.255 C 
HETATM   15  O3  UNK     1      31.950  -5.645  34.462  1.00  0.00    -0.268 OA
HETATM   16  N2  UNK     1      32.176  -7.122  36.283  1.00  0.00    -0.323 N 
HETATM   17  H15 UNK     1      32.763  -7.876  36.633  1.00  0.00     0.169 HD
BRANCH  16  18
HETATM   18  C24 UNK     1      31.076  -6.791  37.110  1.00  0.00     0.035 A 
HETATM   19  C28 UNK     1      30.062  -7.716  37.291  1.00  0.00     0.032 A 
HETATM   20  C32 UNK     1      28.978  -7.389  38.106  1.00  0.00     0.039 A 
HETATM   21  C34 UNK     1      28.926  -6.143  38.729  1.00  0.00     0.068 A 
HETATM   22  C33 UNK     1      29.955  -5.223  38.536  1.00  0.00     0.039 A 
HETATM   23  C29 UNK     1      31.038  -5.548  37.720  1.00  0.00     0.032 A 
BRANCH  21  24
HETATM   24  O7  UNK     1      27.868  -5.824  39.524  1.00  0.00    -0.356 OA
HETATM   25  C35 UNK     1      26.617  -5.590  38.878  1.00  0.00     0.210 C 
ENDBRANCH  21  24
ENDBRANCH  16  18
ENDBRANCH  10  14
BRANCH   6  26
HETATM   26  C11 UNK     1      32.728  -8.363  32.564  1.00  0.00     0.029 A 
HETATM   27  C16 UNK     1      31.357  -8.932  32.555  1.00  0.00     0.194 A 
HETATM   28  O4  UNK     1      30.887  -9.513  33.524  1.00  0.00    -0.287 OA
HETATM   29  C19 UNK     1      30.586  -8.760  31.309  1.00  0.00     0.048 A 
HETATM   30  C22 UNK     1      31.174  -8.089  30.236  1.00  0.00     0.089 A 
HETATM   31  C23 UNK     1      29.287  -9.260  31.201  1.00  0.00     0.018 A 
HETATM   32  O2  UNK     1      32.446  -7.577  30.288  1.00  0.00    -0.321 OA
HETATM   33  C25 UNK     1      30.463  -7.914  29.048  1.00  0.00     0.038 A 
HETATM   34  C17 UNK     1      33.151  -7.746  31.453  1.00  0.00     0.154 A 
HETATM   35  C27 UNK     1      29.165  -8.413  28.937  1.00  0.00     0.003 A 
HETATM   36  C26 UNK     1      28.578  -9.083  30.011  1.00  0.00     0.001 A 
ENDBRANCH   6  26
BRANCH   3  37
HETATM   37  C9  UNK     1      38.610 -10.919  31.989  1.00  0.00    -0.050 A 
HETATM   38  C13 UNK     1      39.431 -11.320  33.041  1.00  0.00     0.047 A 
HETATM   39  C18 UNK     1      40.663 -11.917  32.773  1.00  0.00     0.102 A 
HETATM   40  C21 UNK     1      41.071 -12.112  31.454  1.00  0.00     0.101 A 
HETATM   41  C20 UNK     1      40.248 -11.709  30.402  1.00  0.00     0.040 A 
HETATM   42  C14 UNK     1      39.016 -11.112  30.670  1.00  0.00     0.010 A 
BRANCH  39  43
HETATM   43  O5  UNK     1      41.458 -12.306  33.809  1.00  0.00    -0.353 OA
HETATM   44  C30 UNK     1      42.239 -11.295  34.442  1.00  0.00     0.210 C 
ENDBRANCH  39  43
BRANCH  40  45
HETATM   45  O6  UNK     1      42.273 -12.693  31.180  1.00  0.00    -0.353 OA
HETATM   46  C31 UNK     1      42.247 -14.009  30.631  1.00  0.00     0.210 C 
ENDBRANCH  40  45
ENDBRANCH   3  37
TORSDOF 7
ENDMDL
MODEL 7
REMARK VINA RESULT:      -8.3     32.989     36.225
REMARK  7 active torsions:
REMARK  status: ('A' for Active; 'I' for Inactive)
REMARK    1  A    between atoms: C18_27  and  O5_5 
REMARK    2  A    between atoms: C21_30  and  O6_6 
REMARK    3  A    between atoms: C34_43  and  O7_7 
REMARK       I    between atoms: C12_21  and  N2_9 
REMARK    4  A    between atoms: C24_33  and  N2_9 
REMARK    5  A    between atoms: C1_10  and  C9_18 
REMARK    6  A    between atoms: C11_20  and  C4_13 
REMARK    7  A    between atoms: C12_21  and  C8_17 
ROOT
HETATM    1  O1  UNK     1      15.090  13.133   8.208  1.00  0.00    -0.293 OA
HETATM    2  N1  UNK     1      17.836   9.492   9.490  1.00  0.00    -0.362 N 
HETATM    3  C1  UNK     1      18.695  13.006   8.472  1.00  0.00     0.031 C 
HETATM    4  C2  UNK     1      18.890  11.483   8.516  1.00  0.00     0.067 C 
HETATM    5  C3  UNK     1      16.417  11.312   8.956  1.00  0.00     0.024 C 
HETATM    6  C4  UNK     1      15.208  10.561   9.504  1.00  0.00     0.104 C 
HETATM    7  C5  UNK     1      17.652  10.769   8.995  1.00  0.00     0.021 C 
HETATM    8  C6  UNK     1      17.415  13.351   7.710  1.00  0.00     0.093 C 
HETATM    9  C7  UNK     1      16.216  12.647   8.310  1.00  0.00     0.159 C 
HETATM   10  C8  UNK     1      15.532   9.115   9.883  1.00  0.00     0.045 C 
HETATM   11  C10 UNK     1      16.804   8.654   9.885  1.00  0.00     0.018 C 
HETATM   12  C15 UNK     1      17.229   7.268  10.289  1.00  0.00     0.069 C 
HETATM   13  H7  UNK     1      18.778   9.118   9.499  1.00  0.00     0.165 HD
ENDROOT
BRANCH  10  14
HETATM   14  C12 UNK     1      14.387   8.243  10.191  1.00  0.00     0.255 C 
HETATM   15  O3  UNK     1      14.252   7.799  11.327  1.00  0.00    -0.268 OA
HETATM   16  N2  UNK     1      13.580   8.036   9.083  1.00  0.00    -0.323 N 
HETATM   17  H15 UNK     1      13.842   8.496   8.213  1.00  0.00     0.169 HD
BRANCH  16  18
HETATM   18  C24 UNK     1      12.400   7.258   9.012  1.00  0.00     0.035 A 
HETATM   19  C28 UNK     1      12.482   5.886   9.184  1.00  0.00     0.032 A 
HETATM   20  C32 UNK     1      11.319   5.120   9.115  1.00  0.00     0.039 A 
HETATM   21  C34 UNK     1      10.091   5.736   8.876  1.00  0.00     0.068 A 
HETATM   22  C33 UNK     1      10.026   7.118   8.706  1.00  0.00     0.039 A 
HETATM   23  C29 UNK     1      11.188   7.885   8.774  1.00  0.00     0.032 A 
BRANCH  21  24
HETATM   24  O7  UNK     1       8.956   4.987   8.808  1.00  0.00    -0.356 OA
HETATM   25  C35 UNK     1       8.327   4.647  10.043  1.00  0.00     0.210 C 
ENDBRANCH  21  24
ENDBRANCH  16  18
ENDBRANCH  10  14
BRANCH   6  26
HETATM   26  C11 UNK     1      14.634  11.291  10.689  1.00  0.00     0.029 A 
HETATM   27  C16 UNK     1      13.158  11.396  10.809  1.00  0.00     0.194 A 
HETATM   28  O4  UNK     1      12.401  10.909   9.981  1.00  0.00    -0.287 OA
HETATM   29  C19 UNK     1      12.648  12.123  11.987  1.00  0.00     0.048 A 
HETATM   30  C22 UNK     1      13.559  12.658  12.900  1.00  0.00     0.089 A 
HETATM   31  C23 UNK     1      11.275  12.276  12.191  1.00  0.00     0.018 A 
HETATM   32  O2  UNK     1      14.917  12.537  12.750  1.00  0.00    -0.321 OA
HETATM   33  C25 UNK     1      13.098  13.349  14.021  1.00  0.00     0.038 A 
HETATM   34  C17 UNK     1      15.376  11.859  11.648  1.00  0.00     0.154 A 
HETATM   35  C27 UNK     1      11.727  13.503  14.227  1.00  0.00     0.003 A 
HETATM   36  C26 UNK     1      10.818  12.967  13.314  1.00  0.00     0.001 A 
ENDBRANCH   6  26
BRANCH   3  37
HETATM   37  C9  UNK     1      19.909  13.717   7.906  1.00  0.00    -0.050 A 
HETATM   38  C13 UNK     1      20.024  13.908   6.531  1.00  0.00     0.047 A 
HETATM   39  C18 UNK     1      21.142  14.562   6.011  1.00  0.00     0.102 A 
HETATM   40  C21 UNK     1      22.140  15.025   6.867  1.00  0.00     0.101 A 
HETATM   41  C20 UNK     1      22.023  14.833   8.244  1.00  0.00     0.040 A 
HETATM   42  C14 UNK     1      20.906  14.179   8.764  1.00  0.00     0.010 A 
BRANCH  39  43
HETATM   43  O5  UNK     1      21.245  14.743   4.664  1.00  0.00    -0.353 OA
HETATM   44  C30 UNK     1      20.825  13.665   3.831  1.00  0.00     0.210 C 
ENDBRANCH  39  43
BRANCH  40  45
HETATM   45  O6  UNK     1      23.236  15.665   6.370  1.00  0.00    -0.353 OA
HETATM   46  C31 UNK     1      23.625  16.878   7.011  1.00  0.00     0.210 C 
ENDBRANCH  40  45
ENDBRANCH   3  37
TORSDOF 7
ENDMDL
MODEL 8
REMARK VINA RESULT:      -8.2      2.717      5.493
REMARK  7 active torsions:
REMARK  status: ('A' for Active; 'I' for Inactive)
REMARK    1  A    between atoms: C18_27  and  O5_5 
REMARK    2  A    between atoms: C21_30  and  O6_6 
REMARK    3  A    between atoms: C34_43  and  O7_7 
REMARK       I    between atoms: C12_21  and  N2_9 
REMARK    4  A    between atoms: C24_33  and  N2_9 
REMARK    5  A    between atoms: C1_10  and  C9_18 
REMARK    6  A    between atoms: C11_20  and  C4_13 
REMARK    7  A    between atoms: C12_21  and  C8_17 
ROOT
HETATM    1  O1  UNK     1      35.575  -7.641  32.771  1.00  0.00    -0.293 OA
HETATM    2  N1  UNK     1      33.476 -11.879  33.048  1.00  0.00    -0.362 N 
HETATM    3  C1  UNK     1      37.070 -10.861  33.464  1.00  0.00     0.031 C 
HETATM    4  C2  UNK     1      35.928 -11.773  32.994  1.00  0.00     0.067 C 
HETATM    5  C3  UNK     1      34.463  -9.726  33.003  1.00  0.00     0.024 C 
HETATM    6  C4  UNK     1      33.089  -9.069  33.079  1.00  0.00     0.104 C 
HETATM    7  C5  UNK     1      34.595 -11.069  33.015  1.00  0.00     0.021 C 
HETATM    8  C6  UNK     1      37.028  -9.533  32.705  1.00  0.00     0.093 C 
HETATM    9  C7  UNK     1      35.677  -8.864  32.848  1.00  0.00     0.159 C 
HETATM   10  C8  UNK     1      31.944 -10.076  32.964  1.00  0.00     0.045 C 
HETATM   11  C10 UNK     1      32.173 -11.410  32.977  1.00  0.00     0.018 C 
HETATM   12  C15 UNK     1      31.114 -12.478  32.921  1.00  0.00     0.069 C 
HETATM   13  H7  UNK     1      33.617 -12.883  33.054  1.00  0.00     0.165 HD
ENDROOT
BRANCH  10  14
HETATM   14  C12 UNK     1      30.594  -9.520  32.785  1.00  0.00     0.255 C 
HETATM   15  O3  UNK     1      29.736  -9.726  33.638  1.00  0.00    -0.268 OA
HETATM   16  N2  UNK     1      30.481  -8.802  31.604  1.00  0.00    -0.323 N 
HETATM   17  H15 UNK     1      31.307  -8.726  31.014  1.00  0.00     0.169 HD
BRANCH  16  18
HETATM   18  C24 UNK     1      29.335  -8.132  31.111  1.00  0.00     0.035 A 
HETATM   19  C28 UNK     1      29.278  -6.751  31.175  1.00  0.00     0.032 A 
HETATM   20  C32 UNK     1      28.149  -6.092  30.689  1.00  0.00     0.039 A 
HETATM   21  C34 UNK     1      27.094  -6.824  30.144  1.00  0.00     0.068 A 
HETATM   22  C33 UNK     1      27.168  -8.215  30.087  1.00  0.00     0.039 A 
HETATM   23  C29 UNK     1      28.296  -8.875  30.573  1.00  0.00     0.032 A 
BRANCH  21  24
HETATM   24  O7  UNK     1      25.992  -6.181  29.671  1.00  0.00    -0.356 OA
HETATM   25  C35 UNK     1      24.794  -6.295  30.437  1.00  0.00     0.210 C 
ENDBRANCH  21  24
ENDBRANCH  16  18
ENDBRANCH  10  14
BRANCH   6  26
HETATM   26  C11 UNK     1      32.960  -8.280  34.355  1.00  0.00     0.029 A 
HETATM   27  C16 UNK     1      32.485  -6.875  34.274  1.00  0.00     0.194 A 
HETATM   28  O4  UNK     1      32.197  -6.345  33.210  1.00  0.00    -0.287 OA
HETATM   29  C19 UNK     1      32.378  -6.147  35.553  1.00  0.00     0.048 A 
HETATM   30  C22 UNK     1      32.720  -6.803  36.737  1.00  0.00     0.089 A 
HETATM   31  C23 UNK     1      31.940  -4.821  35.583  1.00  0.00     0.018 A 
HETATM   32  O2  UNK     1      33.154  -8.104  36.766  1.00  0.00    -0.321 OA
HETATM   33  C25 UNK     1      32.625  -6.133  37.958  1.00  0.00     0.038 A 
HETATM   34  C17 UNK     1      33.250  -8.768  35.568  1.00  0.00     0.154 A 
HETATM   35  C27 UNK     1      32.189  -4.809  37.990  1.00  0.00     0.003 A 
HETATM   36  C26 UNK     1      31.847  -4.155  36.806  1.00  0.00     0.001 A 
ENDBRANCH   6  26
BRANCH   3  37
HETATM   37  C9  UNK     1      38.421 -11.541  33.356  1.00  0.00    -0.050 A 
HETATM   38  C13 UNK     1      39.501 -10.858  32.803  1.00  0.00     0.047 A 
HETATM   39  C18 UNK     1      40.744 -11.484  32.705  1.00  0.00     0.102 A 
HETATM   40  C21 UNK     1      40.903 -12.792  33.161  1.00  0.00     0.101 A 
HETATM   41  C20 UNK     1      39.821 -13.475  33.715  1.00  0.00     0.040 A 
HETATM   42  C14 UNK     1      38.578 -12.848  33.813  1.00  0.00     0.010 A 
BRANCH  39  43
HETATM   43  O5  UNK     1      41.794 -10.807  32.162  1.00  0.00    -0.353 OA
HETATM   44  C30 UNK     1      42.364  -9.759  32.943  1.00  0.00     0.210 C 
ENDBRANCH  39  43
BRANCH  40  45
HETATM   45  O6  UNK     1      42.112 -13.414  33.069  1.00  0.00    -0.353 OA
HETATM   46  C31 UNK     1      42.918 -13.443  34.246  1.00  0.00     0.210 C 
ENDBRANCH  40  45
ENDBRANCH   3  37
TORSDOF 7
ENDMDL
MODEL 9
REMARK VINA RESULT:      -8.2     31.480     35.373
REMARK  7 active torsions:
REMARK  status: ('A' for Active; 'I' for Inactive)
REMARK    1  A    between atoms: C18_27  and  O5_5 
REMARK    2  A    between atoms: C21_30  and  O6_6 
REMARK    3  A    between atoms: C34_43  and  O7_7 
REMARK       I    between atoms: C12_21  and  N2_9 
REMARK    4  A    between atoms: C24_33  and  N2_9 
REMARK    5  A    between atoms: C1_10  and  C9_18 
REMARK    6  A    between atoms: C11_20  and  C4_13 
REMARK    7  A    between atoms: C12_21  and  C8_17 
ROOT
HETATM    1  O1  UNK     1      18.747  12.576  12.220  1.00  0.00    -0.293 OA
HETATM    2  N1  UNK     1      19.839  13.835   7.785  1.00  0.00    -0.362 N 
HETATM    3  C1  UNK     1      21.993  12.648  10.626  1.00  0.00     0.031 C 
HETATM    4  C2  UNK     1      21.654  13.517   9.406  1.00  0.00     0.067 C 
HETATM    5  C3  UNK     1      19.231  13.116   9.959  1.00  0.00     0.024 C 
HETATM    6  C4  UNK     1      17.764  13.043   9.550  1.00  0.00     0.104 C 
HETATM    7  C5  UNK     1      20.184  13.476   9.074  1.00  0.00     0.021 C 
HETATM    8  C6  UNK     1      21.059  12.987  11.789  1.00  0.00     0.093 C 
HETATM    9  C7  UNK     1      19.607  12.845  11.382  1.00  0.00     0.159 C 
HETATM   10  C8  UNK     1      17.511  13.604   8.149  1.00  0.00     0.045 C 
HETATM   11  C10 UNK     1      18.533  13.946   7.331  1.00  0.00     0.018 C 
HETATM   12  C15 UNK     1      18.390  14.457   5.923  1.00  0.00     0.069 C 
HETATM   13  H7  UNK     1      20.583  14.102   7.151  1.00  0.00     0.165 HD
ENDROOT
BRANCH  10  14
HETATM   14  C12 UNK     1      16.105  13.799   7.762  1.00  0.00     0.255 C 
HETATM   15  O3  UNK     1      15.651  13.187   6.799  1.00  0.00    -0.268 OA
HETATM   16  N2  UNK     1      15.459  14.702   8.593  1.00  0.00    -0.323 N 
HETATM   17  H15 UNK     1      15.994  15.110   9.356  1.00  0.00     0.169 HD
BRANCH  16  18
HETATM   18  C24 UNK     1      14.110  15.126   8.517  1.00  0.00     0.035 A 
HETATM   19  C28 UNK     1      13.144  14.443   9.236  1.00  0.00     0.032 A 
HETATM   20  C32 UNK     1      11.816  14.862   9.162  1.00  0.00     0.039 A 
HETATM   21  C34 UNK     1      11.474  15.959   8.371  1.00  0.00     0.068 A 
HETATM   22  C33 UNK     1      12.460  16.636   7.654  1.00  0.00     0.039 A 
HETATM   23  C29 UNK     1      13.788  16.217   7.727  1.00  0.00     0.032 A 
BRANCH  21  24
HETATM   24  O7  UNK     1      10.177  16.367   8.298  1.00  0.00    -0.356 OA
HETATM   25  C35 UNK     1       9.181  15.445   8.736  1.00  0.00     0.210 C 
ENDBRANCH  21  24
ENDBRANCH  16  18
ENDBRANCH  10  14
BRANCH   6  26
HETATM   26  C11 UNK     1      17.269  11.624   9.638  1.00  0.00     0.029 A 
HETATM   27  C16 UNK     1      15.973  11.367  10.315  1.00  0.00     0.194 A 
HETATM   28  O4  UNK     1      15.301  12.267  10.799  1.00  0.00    -0.287 OA
HETATM   29  C19 UNK     1      15.535   9.959  10.376  1.00  0.00     0.048 A 
HETATM   30  C22 UNK     1      16.343   8.973   9.807  1.00  0.00     0.089 A 
HETATM   31  C23 UNK     1      14.330   9.613  10.991  1.00  0.00     0.018 A 
HETATM   32  O2  UNK     1      17.535   9.256   9.189  1.00  0.00    -0.321 OA
HETATM   33  C25 UNK     1      15.948   7.635   9.852  1.00  0.00     0.038 A 
HETATM   34  C17 UNK     1      17.930  10.570   9.142  1.00  0.00     0.154 A 
HETATM   35  C27 UNK     1      14.745   7.288  10.467  1.00  0.00     0.003 A 
HETATM   36  C26 UNK     1      13.938   8.274  11.034  1.00  0.00     0.001 A 
ENDBRANCH   6  26
BRANCH   3  37
HETATM   37  C9  UNK     1      23.455  12.761  11.014  1.00  0.00    -0.050 A 
HETATM   38  C13 UNK     1      23.822  13.500  12.136  1.00  0.00     0.047 A 
HETATM   39  C18 UNK     1      25.167  13.602  12.492  1.00  0.00     0.102 A 
HETATM   40  C21 UNK     1      26.142  12.965  11.726  1.00  0.00     0.101 A 
HETATM   41  C20 UNK     1      25.773  12.225  10.602  1.00  0.00     0.040 A 
HETATM   42  C14 UNK     1      24.428  12.122  10.246  1.00  0.00     0.010 A 
BRANCH  39  43
HETATM   43  O5  UNK     1      25.515  14.328  13.592  1.00  0.00    -0.353 OA
HETATM   44  C30 UNK     1      24.492  14.581  14.552  1.00  0.00     0.210 C 
ENDBRANCH  39  43
BRANCH  40  45
HETATM   45  O6  UNK     1      27.458  13.058  12.063  1.00  0.00    -0.353 OA
HETATM   46  C31 UNK     1      28.205  11.844  12.111  1.00  0.00     0.210 C 
ENDBRANCH  40  45
ENDBRANCH   3  37
TORSDOF 7
ENDMDL
MODEL 10
REMARK VINA RESULT:      -8.1     23.975     28.570
REMARK  7 active torsions:
REMARK  status: ('A' for Active; 'I' for Inactive)
REMARK    1  A    between atoms: C18_27  and  O5_5 
REMARK    2  A    between atoms: C21_30  and  O6_6 
REMARK    3  A    between atoms: C34_43  and  O7_7 
REMARK       I    between atoms: C12_21  and  N2_9 
REMARK    4  A    between atoms: C24_33  and  N2_9 
REMARK    5  A    between atoms: C1_10  and  C9_18 
REMARK    6  A    between atoms: C11_20  and  C4_13 
REMARK    7  A    between atoms: C12_21  and  C8_17 
ROOT
HETATM    1  O1  UNK     1      20.898  -2.571   9.691  1.00  0.00    -0.293 OA
HETATM    2  N1  UNK     1      22.069  -6.419   7.188  1.00  0.00    -0.362 N 
HETATM    3  C1  UNK     1      24.079  -3.404   8.184  1.00  0.00     0.031 C 
HETATM    4  C2  UNK     1      23.621  -4.518   7.232  1.00  0.00     0.067 C 
HETATM    5  C3  UNK     1      21.466  -4.564   8.533  1.00  0.00     0.024 C 
HETATM    6  C4  UNK     1      20.205  -5.283   9.001  1.00  0.00     0.104 C 
HETATM    7  C5  UNK     1      22.334  -5.158   7.687  1.00  0.00     0.021 C 
HETATM    8  C6  UNK     1      22.929  -2.429   8.445  1.00  0.00     0.093 C 
HETATM    9  C7  UNK     1      21.708  -3.153   8.972  1.00  0.00     0.159 C 
HETATM   10  C8  UNK     1      19.966  -6.600   8.261  1.00  0.00     0.045 C 
HETATM   11  C10 UNK     1      20.894  -7.118   7.423  1.00  0.00     0.018 C 
HETATM   12  C15 UNK     1      20.775  -8.427   6.691  1.00  0.00     0.069 C 
HETATM   13  H7  UNK     1      22.744  -6.830   6.554  1.00  0.00     0.165 HD
ENDROOT
BRANCH  10  14
HETATM   14  C12 UNK     1      18.659  -7.243   8.467  1.00  0.00     0.255 C 
HETATM   15  O3  UNK     1      18.554  -8.153   9.284  1.00  0.00    -0.268 OA
HETATM   16  N2  UNK     1      17.676  -6.693   7.658  1.00  0.00    -0.323 N 
HETATM   17  H15 UNK     1      17.944  -5.930   7.040  1.00  0.00     0.169 HD
BRANCH  16  18
HETATM   18  C24 UNK     1      16.311  -7.062   7.591  1.00  0.00     0.035 A 
HETATM   19  C28 UNK     1      15.760  -7.402   6.367  1.00  0.00     0.032 A 
HETATM   20  C32 UNK     1      14.416  -7.766   6.302  1.00  0.00     0.039 A 
HETATM   21  C34 UNK     1      13.642  -7.785   7.463  1.00  0.00     0.068 A 
HETATM   22  C33 UNK     1      14.212  -7.439   8.687  1.00  0.00     0.039 A 
HETATM   23  C29 UNK     1      15.556  -7.075   8.753  1.00  0.00     0.032 A 
BRANCH  21  24
HETATM   24  O7  UNK     1      12.329  -8.139   7.399  1.00  0.00    -0.356 OA
HETATM   25  C35 UNK     1      11.974  -9.414   7.931  1.00  0.00     0.210 C 
ENDBRANCH  21  24
ENDBRANCH  16  18
ENDBRANCH  10  14
BRANCH   6  26
HETATM   26  C11 UNK     1      20.264  -5.525  10.485  1.00  0.00     0.029 A 
HETATM   27  C16 UNK     1      19.227  -4.902  11.346  1.00  0.00     0.194 A 
HETATM   28  O4  UNK     1      18.332  -4.205  10.887  1.00  0.00    -0.287 OA
HETATM   29  C19 UNK     1      19.332  -5.169  12.793  1.00  0.00     0.048 A 
HETATM   30  C22 UNK     1      20.373  -5.973  13.260  1.00  0.00     0.089 A 
HETATM   31  C23 UNK     1      18.404  -4.629  13.686  1.00  0.00     0.018 A 
HETATM   32  O2  UNK     1      21.311  -6.530  12.428  1.00  0.00    -0.321 OA
HETATM   33  C25 UNK     1      20.491  -6.239  14.625  1.00  0.00     0.038 A 
HETATM   34  C17 UNK     1      21.201  -6.270  11.085  1.00  0.00     0.154 A 
HETATM   35  C27 UNK     1      19.566  -5.700  15.519  1.00  0.00     0.003 A 
HETATM   36  C26 UNK     1      18.525  -4.898  15.051  1.00  0.00     0.001 A 
ENDBRANCH   6  26
BRANCH   3  37
HETATM   37  C9  UNK     1      25.324  -2.701   7.678  1.00  0.00    -0.050 A 
HETATM   38  C13 UNK     1      25.310  -1.323   7.476  1.00  0.00     0.047 A 
HETATM   39  C18 UNK     1      26.455  -0.676   7.011  1.00  0.00     0.102 A 
HETATM   40  C21 UNK     1      27.612  -1.409   6.749  1.00  0.00     0.101 A 
HETATM   41  C20 UNK     1      27.624  -2.790   6.951  1.00  0.00     0.040 A 
HETATM   42  C14 UNK     1      26.478  -3.436   7.417  1.00  0.00     0.010 A 
BRANCH  39  43
HETATM   43  O5  UNK     1      26.431   0.672   6.817  1.00  0.00    -0.353 OA
HETATM   44  C30 UNK     1      25.695   1.153   5.694  1.00  0.00     0.210 C 
ENDBRANCH  39  43
BRANCH  40  45
HETATM   45  O6  UNK     1      28.736  -0.789   6.293  1.00  0.00    -0.353 OA
HETATM   46  C31 UNK     1      29.195  -1.152   4.992  1.00  0.00     0.210 C 
ENDBRANCH  40  45
ENDBRANCH   3  37
TORSDOF 7
ENDMDL
