MODEL 1
REMARK VINA RESULT:      -9.6      0.000      0.000
REMARK  6 active torsions:
REMARK  status: ('A' for Active; 'I' for Inactive)
REMARK    1  A    between atoms: C10_17  and  O2_2 
REMARK    2  A    between atoms: C4_11  and  O2_2 
REMARK    3  A    between atoms: C15_22  and  O3_3 
REMARK    4  A    between atoms: C5_12  and  O3_3 
REMARK    5  A    between atoms: C18_25  and  N1_7 
REMARK    6  A    between atoms: C10_17  and  C11_18 
ROOT
HETATM    1  O1  UNK     1      19.729  -0.618  32.037  1.00  0.00    -0.311 OA
HETATM    2  O4  UNK     1      17.136   1.605  34.256  1.00  0.00    -0.284 OA
HETATM    3  C1  UNK     1      18.584  -0.253  34.146  1.00  0.00     0.051 A 
HETATM    4  C2  UNK     1      19.460  -0.970  33.335  1.00  0.00     0.092 A 
HETATM    5  C3  UNK     1      17.915   0.934  33.593  1.00  0.00     0.221 A 
HETATM    6  C4  UNK     1      19.877  -2.507  35.149  1.00  0.00     0.071 A 
HETATM    7  C5  UNK     1      18.237   1.272  32.187  1.00  0.00     0.156 A 
HETATM    8  C6  UNK     1      20.108  -2.100  33.836  1.00  0.00     0.075 A 
HETATM    9  C7  UNK     1      19.101   0.499  31.506  1.00  0.00     0.087 A 
HETATM   10  C8  UNK     1      18.350  -0.658  35.463  1.00  0.00     0.021 A 
HETATM   11  C9  UNK     1      18.999  -1.788  35.961  1.00  0.00     0.038 A 
HETATM   12  C12 UNK     1      19.493   0.755  30.082  1.00  0.00     0.080 C 
ENDROOT
BRANCH   6  13
HETATM   13  O2  UNK     1      20.508  -3.610  35.640  1.00  0.00    -0.347 OA
BRANCH  13  14
HETATM   14  C10 UNK     1      19.710  -4.545  36.364  1.00  0.00     0.214 C 
BRANCH  14  15
HETATM   15  C11 UNK     1      20.239  -5.929  36.125  1.00  0.00    -0.034 A 
HETATM   16  C13 UNK     1      20.864  -6.615  37.161  1.00  0.00     0.012 A 
HETATM   17  C16 UNK     1      21.356  -7.901  36.939  1.00  0.00     0.037 A 
HETATM   18  C18 UNK     1      21.220  -8.493  35.684  1.00  0.00     0.102 A 
HETATM   19  C17 UNK     1      20.593  -7.799  34.650  1.00  0.00     0.037 A 
HETATM   20  C14 UNK     1      20.101  -6.512  34.871  1.00  0.00     0.012 A 
BRANCH  18  21
HETATM   21  N1  UNK     1      21.719  -9.803  35.460  1.00  0.00    -0.116 N 
HETATM   22  O5  UNK     1      22.088 -10.491  36.443  1.00  0.00    -0.532 OA
HETATM   23  O6  UNK     1      21.780 -10.238  34.284  1.00  0.00    -0.532 OA
ENDBRANCH  18  21
ENDBRANCH  14  15
ENDBRANCH  13  14
ENDBRANCH   6  13
BRANCH   7  24
HETATM   24  O3  UNK     1      17.631   2.376  31.628  1.00  0.00    -0.304 OA
BRANCH  24  25
HETATM   25  C15 UNK     1      18.298   3.564  31.724  1.00  0.00     0.076 A 
HETATM   26  C19 UNK     1      18.272   4.278  32.920  1.00  0.00     0.037 A 
HETATM   27  C21 UNK     1      18.953   5.492  33.016  1.00  0.00     0.003 A 
HETATM   28  C23 UNK     1      19.658   5.986  31.918  1.00  0.00     0.000 A 
HETATM   29  C22 UNK     1      19.681   5.267  30.723  1.00  0.00     0.003 A 
HETATM   30  C20 UNK     1      19.000   4.054  30.626  1.00  0.00     0.037 A 
ENDBRANCH  24  25
ENDBRANCH   7  24
TORSDOF 6
ENDMDL
MODEL 2
REMARK VINA RESULT:      -9.4      4.060     11.018
REMARK  6 active torsions:
REMARK  status: ('A' for Active; 'I' for Inactive)
REMARK    1  A    between atoms: C10_17  and  O2_2 
REMARK    2  A    between atoms: C4_11  and  O2_2 
REMARK    3  A    between atoms: C15_22  and  O3_3 
REMARK    4  A    between atoms: C5_12  and  O3_3 
REMARK    5  A    between atoms: C18_25  and  N1_7 
REMARK    6  A    between atoms: C10_17  and  C11_18 
ROOT
HETATM    1  O1  UNK     1      18.725  -0.912  35.167  1.00  0.00    -0.311 OA
HETATM    2  O4  UNK     1      21.044  -3.655  33.248  1.00  0.00    -0.284 OA
HETATM    3  C1  UNK     1      19.799  -1.657  33.122  1.00  0.00     0.051 A 
HETATM    4  C2  UNK     1      19.013  -0.756  33.836  1.00  0.00     0.092 A 
HETATM    5  C3  UNK     1      20.346  -2.830  33.820  1.00  0.00     0.221 A 
HETATM    6  C4  UNK     1      18.740   0.580  31.843  1.00  0.00     0.071 A 
HETATM    7  C5  UNK     1      20.006  -2.955  35.257  1.00  0.00     0.156 A 
HETATM    8  C6  UNK     1      18.482   0.364  33.196  1.00  0.00     0.075 A 
HETATM    9  C7  UNK     1      19.236  -2.016  35.834  1.00  0.00     0.087 A 
HETATM   10  C8  UNK     1      20.061  -1.446  31.766  1.00  0.00     0.021 A 
HETATM   11  C9  UNK     1      19.528  -0.324  31.129  1.00  0.00     0.038 A 
HETATM   12  C12 UNK     1      18.835  -2.050  37.279  1.00  0.00     0.080 C 
ENDROOT
BRANCH   6  13
HETATM   13  O2  UNK     1      18.222   1.672  31.217  1.00  0.00    -0.347 OA
BRANCH  13  14
HETATM   14  C10 UNK     1      19.151   2.612  30.678  1.00  0.00     0.214 C 
BRANCH  14  15
HETATM   15  C11 UNK     1      18.651   4.002  30.944  1.00  0.00    -0.034 A 
HETATM   16  C13 UNK     1      18.948   5.023  30.048  1.00  0.00     0.012 A 
HETATM   17  C16 UNK     1      18.482   6.314  30.295  1.00  0.00     0.037 A 
HETATM   18  C18 UNK     1      17.724   6.577  31.436  1.00  0.00     0.102 A 
HETATM   19  C17 UNK     1      17.431   5.548  32.330  1.00  0.00     0.037 A 
HETATM   20  C14 UNK     1      17.896   4.256  32.083  1.00  0.00     0.012 A 
BRANCH  18  21
HETATM   21  N1  UNK     1      17.250   7.891  31.685  1.00  0.00    -0.116 N 
HETATM   22  O5  UNK     1      17.670   8.509  32.694  1.00  0.00    -0.532 OA
HETATM   23  O6  UNK     1      16.423   8.401  30.890  1.00  0.00    -0.532 OA
ENDBRANCH  18  21
ENDBRANCH  14  15
ENDBRANCH  13  14
ENDBRANCH   6  13
BRANCH   7  24
HETATM   24  O3  UNK     1      20.497  -4.040  35.950  1.00  0.00    -0.304 OA
BRANCH  24  25
HETATM   25  C15 UNK     1      19.763  -5.191  35.901  1.00  0.00     0.076 A 
HETATM   26  C19 UNK     1      20.092  -6.183  34.983  1.00  0.00     0.037 A 
HETATM   27  C21 UNK     1      19.341  -7.358  34.933  1.00  0.00     0.003 A 
HETATM   28  C23 UNK     1      18.264  -7.535  35.802  1.00  0.00     0.000 A 
HETATM   29  C22 UNK     1      17.937  -6.536  36.720  1.00  0.00     0.003 A 
HETATM   30  C20 UNK     1      18.688  -5.362  36.770  1.00  0.00     0.037 A 
ENDBRANCH  24  25
ENDBRANCH   7  24
TORSDOF 6
ENDMDL
MODEL 3
REMARK VINA RESULT:      -9.2      5.300      8.534
REMARK  6 active torsions:
REMARK  status: ('A' for Active; 'I' for Inactive)
REMARK    1  A    between atoms: C10_17  and  O2_2 
REMARK    2  A    between atoms: C4_11  and  O2_2 
REMARK    3  A    between atoms: C15_22  and  O3_3 
REMARK    4  A    between atoms: C5_12  and  O3_3 
REMARK    5  A    between atoms: C18_25  and  N1_7 
REMARK    6  A    between atoms: C10_17  and  C11_18 
ROOT
HETATM    1  O1  UNK     1      16.093   6.381  32.649  1.00  0.00    -0.311 OA
HETATM    2  O4  UNK     1      18.974   8.456  34.643  1.00  0.00    -0.284 OA
HETATM    3  C1  UNK     1      18.447   6.868  32.982  1.00  0.00     0.051 A 
HETATM    4  C2  UNK     1      17.414   6.192  32.338  1.00  0.00     0.092 A 
HETATM    5  C3  UNK     1      18.112   7.830  34.043  1.00  0.00     0.221 A 
HETATM    6  C4  UNK     1      19.031   5.038  30.965  1.00  0.00     0.071 A 
HETATM    7  C5  UNK     1      16.671   8.000  34.343  1.00  0.00     0.156 A 
HETATM    8  C6  UNK     1      17.705   5.274  31.329  1.00  0.00     0.075 A 
HETATM    9  C7  UNK     1      15.767   7.286  33.650  1.00  0.00     0.087 A 
HETATM   10  C8  UNK     1      19.777   6.635  32.621  1.00  0.00     0.021 A 
HETATM   11  C9  UNK     1      20.064   5.717  31.611  1.00  0.00     0.038 A 
HETATM   12  C12 UNK     1      14.288   7.384  33.876  1.00  0.00     0.080 C 
ENDROOT
BRANCH   6  13
HETATM   13  O2  UNK     1      19.317   4.142  29.980  1.00  0.00    -0.347 OA
BRANCH  13  14
HETATM   14  C10 UNK     1      18.359   3.113  29.742  1.00  0.00     0.214 C 
BRANCH  14  15
HETATM   15  C11 UNK     1      18.939   1.796  30.168  1.00  0.00    -0.034 A 
HETATM   16  C13 UNK     1      18.796   1.375  31.486  1.00  0.00     0.012 A 
HETATM   17  C16 UNK     1      19.335   0.151  31.881  1.00  0.00     0.037 A 
HETATM   18  C18 UNK     1      20.013  -0.645  30.957  1.00  0.00     0.102 A 
HETATM   19  C17 UNK     1      20.152  -0.216  29.638  1.00  0.00     0.037 A 
HETATM   20  C14 UNK     1      19.614   1.009  29.242  1.00  0.00     0.012 A 
BRANCH  18  21
HETATM   21  N1  UNK     1      20.559  -1.891  31.361  1.00  0.00    -0.116 N 
HETATM   22  O5  UNK     1      20.884  -2.054  32.562  1.00  0.00    -0.532 OA
HETATM   23  O6  UNK     1      20.704  -2.798  30.505  1.00  0.00    -0.532 OA
ENDBRANCH  18  21
ENDBRANCH  14  15
ENDBRANCH  13  14
ENDBRANCH   6  13
BRANCH   7  24
HETATM   24  O3  UNK     1      16.313   8.890  35.331  1.00  0.00    -0.304 OA
BRANCH  24  25
HETATM   25  C15 UNK     1      15.793  10.087  34.927  1.00  0.00     0.076 A 
HETATM   26  C19 UNK     1      14.477  10.413  35.246  1.00  0.00     0.037 A 
HETATM   27  C21 UNK     1      13.947  11.636  34.833  1.00  0.00     0.003 A 
HETATM   28  C23 UNK     1      14.734  12.527  34.103  1.00  0.00     0.000 A 
HETATM   29  C22 UNK     1      16.052  12.195  33.786  1.00  0.00     0.003 A 
HETATM   30  C20 UNK     1      16.582  10.973  34.199  1.00  0.00     0.037 A 
ENDBRANCH  24  25
ENDBRANCH   7  24
TORSDOF 6
ENDMDL
MODEL 4
REMARK VINA RESULT:      -9.1      1.533      2.043
REMARK  6 active torsions:
REMARK  status: ('A' for Active; 'I' for Inactive)
REMARK    1  A    between atoms: C10_17  and  O2_2 
REMARK    2  A    between atoms: C4_11  and  O2_2 
REMARK    3  A    between atoms: C15_22  and  O3_3 
REMARK    4  A    between atoms: C5_12  and  O3_3 
REMARK    5  A    between atoms: C18_25  and  N1_7 
REMARK    6  A    between atoms: C10_17  and  C11_18 
ROOT
HETATM    1  O1  UNK     1      19.774  -0.568  31.839  1.00  0.00    -0.311 OA
HETATM    2  O4  UNK     1      17.174   1.711  33.991  1.00  0.00    -0.284 OA
HETATM    3  C1  UNK     1      18.609  -0.159  33.928  1.00  0.00     0.051 A 
HETATM    4  C2  UNK     1      19.488  -0.896  33.139  1.00  0.00     0.092 A 
HETATM    5  C3  UNK     1      17.955   1.023  33.348  1.00  0.00     0.221 A 
HETATM    6  C4  UNK     1      19.872  -2.406  34.983  1.00  0.00     0.071 A 
HETATM    7  C5  UNK     1      18.295   1.336  31.940  1.00  0.00     0.156 A 
HETATM    8  C6  UNK     1      20.121  -2.022  33.665  1.00  0.00     0.075 A 
HETATM    9  C7  UNK     1      19.161   0.545  31.282  1.00  0.00     0.087 A 
HETATM   10  C8  UNK     1      18.356  -0.540  35.248  1.00  0.00     0.021 A 
HETATM   11  C9  UNK     1      18.991  -1.667  35.772  1.00  0.00     0.038 A 
HETATM   12  C12 UNK     1      19.572   0.775  29.858  1.00  0.00     0.080 C 
ENDROOT
BRANCH   6  13
HETATM   13  O2  UNK     1      20.489  -3.506  35.499  1.00  0.00    -0.347 OA
BRANCH  13  14
HETATM   14  C10 UNK     1      20.486  -3.644  36.918  1.00  0.00     0.214 C 
BRANCH  14  15
HETATM   15  C11 UNK     1      20.256  -5.085  37.269  1.00  0.00    -0.034 A 
HETATM   16  C13 UNK     1      19.079  -5.711  36.874  1.00  0.00     0.012 A 
HETATM   17  C16 UNK     1      18.866  -7.050  37.200  1.00  0.00     0.037 A 
HETATM   18  C18 UNK     1      19.831  -7.755  37.919  1.00  0.00     0.102 A 
HETATM   19  C17 UNK     1      21.009  -7.121  38.313  1.00  0.00     0.037 A 
HETATM   20  C14 UNK     1      21.222  -5.781  37.987  1.00  0.00     0.012 A 
BRANCH  18  21
HETATM   21  N1  UNK     1      19.614  -9.118  38.249  1.00  0.00    -0.116 N 
HETATM   22  O5  UNK     1      19.179  -9.897  37.365  1.00  0.00    -0.532 OA
HETATM   23  O6  UNK     1      19.861  -9.509  39.415  1.00  0.00    -0.532 OA
ENDBRANCH  18  21
ENDBRANCH  14  15
ENDBRANCH  13  14
ENDBRANCH   6  13
BRANCH   7  24
HETATM   24  O3  UNK     1      17.704   2.435  31.356  1.00  0.00    -0.304 OA
BRANCH  24  25
HETATM   25  C15 UNK     1      18.361   3.628  31.474  1.00  0.00     0.076 A 
HETATM   26  C19 UNK     1      19.085   4.128  30.396  1.00  0.00     0.037 A 
HETATM   27  C21 UNK     1      19.756   5.346  30.518  1.00  0.00     0.003 A 
HETATM   28  C23 UNK     1      19.700   6.057  31.717  1.00  0.00     0.000 A 
HETATM   29  C22 UNK     1      18.973   5.550  32.794  1.00  0.00     0.003 A 
HETATM   30  C20 UNK     1      18.303   4.333  32.673  1.00  0.00     0.037 A 
ENDBRANCH  24  25
ENDBRANCH   7  24
TORSDOF 6
ENDMDL
MODEL 5
REMARK VINA RESULT:      -9.1      9.948     12.658
REMARK  6 active torsions:
REMARK  status: ('A' for Active; 'I' for Inactive)
REMARK    1  A    between atoms: C10_17  and  O2_2 
REMARK    2  A    between atoms: C4_11  and  O2_2 
REMARK    3  A    between atoms: C15_22  and  O3_3 
REMARK    4  A    between atoms: C5_12  and  O3_3 
REMARK    5  A    between atoms: C18_25  and  N1_7 
REMARK    6  A    between atoms: C10_17  and  C11_18 
ROOT
HETATM    1  O1  UNK     1      30.082  -8.194  37.831  1.00  0.00    -0.311 OA
HETATM    2  O4  UNK     1      30.474  -4.315  39.008  1.00  0.00    -0.284 OA
HETATM    3  C1  UNK     1      29.035  -6.124  38.544  1.00  0.00     0.051 A 
HETATM    4  C2  UNK     1      28.969  -7.454  38.137  1.00  0.00     0.092 A 
HETATM    5  C3  UNK     1      30.352  -5.479  38.654  1.00  0.00     0.221 A 
HETATM    6  C4  UNK     1      26.563  -7.388  38.323  1.00  0.00     0.071 A 
HETATM    7  C5  UNK     1      31.524  -6.319  38.312  1.00  0.00     0.156 A 
HETATM    8  C6  UNK     1      27.732  -8.088  38.025  1.00  0.00     0.075 A 
HETATM    9  C7  UNK     1      31.329  -7.594  37.930  1.00  0.00     0.087 A 
HETATM   10  C8  UNK     1      27.866  -5.419  38.845  1.00  0.00     0.021 A 
HETATM   11  C9  UNK     1      26.630  -6.056  38.732  1.00  0.00     0.038 A 
HETATM   12  C12 UNK     1      32.445  -8.526  37.563  1.00  0.00     0.080 C 
ENDROOT
BRANCH   6  13
HETATM   13  O2  UNK     1      25.354  -8.006  38.214  1.00  0.00    -0.347 OA
BRANCH  13  14
HETATM   14  C10 UNK     1      24.266  -7.434  38.938  1.00  0.00     0.214 C 
BRANCH  14  15
HETATM   15  C11 UNK     1      23.013  -8.197  38.623  1.00  0.00    -0.034 A 
HETATM   16  C13 UNK     1      22.029  -8.336  39.595  1.00  0.00     0.012 A 
HETATM   17  C16 UNK     1      20.864  -9.045  39.302  1.00  0.00     0.037 A 
HETATM   18  C18 UNK     1      20.691  -9.610  38.039  1.00  0.00     0.102 A 
HETATM   19  C17 UNK     1      21.682  -9.468  37.069  1.00  0.00     0.037 A 
HETATM   20  C14 UNK     1      22.848  -8.759  37.362  1.00  0.00     0.012 A 
BRANCH  18  21
HETATM   21  N1  UNK     1      19.504 -10.330  37.742  1.00  0.00    -0.116 N 
HETATM   22  O5  UNK     1      18.571  -9.745  37.140  1.00  0.00    -0.532 OA
HETATM   23  O6  UNK     1      19.419 -11.533  38.089  1.00  0.00    -0.532 OA
ENDBRANCH  18  21
ENDBRANCH  14  15
ENDBRANCH  13  14
ENDBRANCH   6  13
BRANCH   7  24
HETATM   24  O3  UNK     1      32.777  -5.755  38.399  1.00  0.00    -0.304 OA
BRANCH  24  25
HETATM   25  C15 UNK     1      33.375  -5.389  37.227  1.00  0.00     0.076 A 
HETATM   26  C19 UNK     1      34.646  -5.866  36.920  1.00  0.00     0.037 A 
HETATM   27  C21 UNK     1      35.257  -5.491  35.723  1.00  0.00     0.003 A 
HETATM   28  C23 UNK     1      34.593  -4.642  34.837  1.00  0.00     0.000 A 
HETATM   29  C22 UNK     1      33.319  -4.166  35.150  1.00  0.00     0.003 A 
HETATM   30  C20 UNK     1      32.709  -4.540  36.347  1.00  0.00     0.037 A 
ENDBRANCH  24  25
ENDBRANCH   7  24
TORSDOF 6
ENDMDL
MODEL 6
REMARK VINA RESULT:      -9.1     10.890     13.589
REMARK  6 active torsions:
REMARK  status: ('A' for Active; 'I' for Inactive)
REMARK    1  A    between atoms: C10_17  and  O2_2 
REMARK    2  A    between atoms: C4_11  and  O2_2 
REMARK    3  A    between atoms: C15_22  and  O3_3 
REMARK    4  A    between atoms: C5_12  and  O3_3 
REMARK    5  A    between atoms: C18_25  and  N1_7 
REMARK    6  A    between atoms: C10_17  and  C11_18 
ROOT
HETATM    1  O1  UNK     1      30.694  -5.127  32.764  1.00  0.00    -0.311 OA
HETATM    2  O4  UNK     1      32.365  -8.464  31.135  1.00  0.00    -0.284 OA
HETATM    3  C1  UNK     1      32.088  -7.095  33.035  1.00  0.00     0.051 A 
HETATM    4  C2  UNK     1      31.487  -5.941  33.531  1.00  0.00     0.092 A 
HETATM    5  C3  UNK     1      31.866  -7.462  31.628  1.00  0.00     0.221 A 
HETATM    6  C4  UNK     1      32.476  -6.360  35.693  1.00  0.00     0.071 A 
HETATM    7  C5  UNK     1      31.003  -6.550  30.841  1.00  0.00     0.156 A 
HETATM    8  C6  UNK     1      31.681  -5.571  34.862  1.00  0.00     0.075 A 
HETATM    9  C7  UNK     1      30.480  -5.464  31.436  1.00  0.00     0.087 A 
HETATM   10  C8  UNK     1      32.885  -7.889  33.864  1.00  0.00     0.021 A 
HETATM   11  C9  UNK     1      33.077  -7.516  35.195  1.00  0.00     0.038 A 
HETATM   12  C12 UNK     1      29.596  -4.480  30.729  1.00  0.00     0.080 C 
ENDROOT
BRANCH   6  13
HETATM   13  O2  UNK     1      32.668  -6.000  36.992  1.00  0.00    -0.347 OA
BRANCH  13  14
HETATM   14  C10 UNK     1      32.147  -6.875  37.991  1.00  0.00     0.214 C 
BRANCH  14  15
HETATM   15  C11 UNK     1      30.686  -6.588  38.181  1.00  0.00    -0.034 A 
HETATM   16  C13 UNK     1      29.754  -7.601  37.988  1.00  0.00     0.012 A 
HETATM   17  C16 UNK     1      28.397  -7.334  38.165  1.00  0.00     0.037 A 
HETATM   18  C18 UNK     1      27.980  -6.055  38.534  1.00  0.00     0.102 A 
HETATM   19  C17 UNK     1      28.920  -5.043  38.726  1.00  0.00     0.037 A 
HETATM   20  C14 UNK     1      30.278  -5.311  38.548  1.00  0.00     0.012 A 
BRANCH  18  21
HETATM   21  N1  UNK     1      26.599  -5.785  38.716  1.00  0.00    -0.116 N 
HETATM   22  O5  UNK     1      25.770  -6.714  38.556  1.00  0.00    -0.532 OA
HETATM   23  O6  UNK     1      26.242  -4.624  39.031  1.00  0.00    -0.532 OA
ENDBRANCH  18  21
ENDBRANCH  14  15
ENDBRANCH  13  14
ENDBRANCH   6  13
BRANCH   7  24
HETATM   24  O3  UNK     1      30.771  -6.856  29.518  1.00  0.00    -0.304 OA
BRANCH  24  25
HETATM   25  C15 UNK     1      29.882  -7.862  29.261  1.00  0.00     0.076 A 
HETATM   26  C19 UNK     1      28.646  -7.873  29.903  1.00  0.00     0.037 A 
HETATM   27  C21 UNK     1      27.739  -8.901  29.641  1.00  0.00     0.003 A 
HETATM   28  C23 UNK     1      28.072  -9.912  28.739  1.00  0.00     0.000 A 
HETATM   29  C22 UNK     1      29.312  -9.896  28.099  1.00  0.00     0.003 A 
HETATM   30  C20 UNK     1      30.218  -8.869  28.361  1.00  0.00     0.037 A 
ENDBRANCH  24  25
ENDBRANCH   7  24
TORSDOF 6
ENDMDL
MODEL 7
REMARK VINA RESULT:      -9.1     26.606     29.558
REMARK  6 active torsions:
REMARK  status: ('A' for Active; 'I' for Inactive)
REMARK    1  A    between atoms: C10_17  and  O2_2 
REMARK    2  A    between atoms: C4_11  and  O2_2 
REMARK    3  A    between atoms: C15_22  and  O3_3 
REMARK    4  A    between atoms: C5_12  and  O3_3 
REMARK    5  A    between atoms: C18_25  and  N1_7 
REMARK    6  A    between atoms: C10_17  and  C11_18 
ROOT
HETATM    1  O1  UNK     1      13.552   9.248   9.630  1.00  0.00    -0.311 OA
HETATM    2  O4  UNK     1      13.902   5.194   9.799  1.00  0.00    -0.284 OA
HETATM    3  C1  UNK     1      14.979   7.292   9.799  1.00  0.00     0.051 A 
HETATM    4  C2  UNK     1      14.791   8.670   9.737  1.00  0.00     0.092 A 
HETATM    5  C3  UNK     1      13.801   6.412   9.747  1.00  0.00     0.221 A 
HETATM    6  C4  UNK     1      17.177   8.999   9.895  1.00  0.00     0.071 A 
HETATM    7  C5  UNK     1      12.486   7.084   9.630  1.00  0.00     0.156 A 
HETATM    8  C6  UNK     1      15.891   9.526   9.785  1.00  0.00     0.075 A 
HETATM    9  C7  UNK     1      12.436   8.426   9.579  1.00  0.00     0.087 A 
HETATM   10  C8  UNK     1      16.266   6.759   9.910  1.00  0.00     0.021 A 
HETATM   11  C9  UNK     1      17.364   7.618   9.957  1.00  0.00     0.038 A 
HETATM   12  C12 UNK     1      11.157   9.202   9.461  1.00  0.00     0.080 C 
ENDROOT
BRANCH   6  13
HETATM   13  O2  UNK     1      18.253   9.833   9.941  1.00  0.00    -0.347 OA
BRANCH  13  14
HETATM   14  C10 UNK     1      17.986  11.233   9.993  1.00  0.00     0.214 C 
BRANCH  14  15
HETATM   15  C11 UNK     1      18.421  11.864   8.703  1.00  0.00    -0.034 A 
HETATM   16  C13 UNK     1      17.474  12.169   7.732  1.00  0.00     0.012 A 
HETATM   17  C16 UNK     1      17.880  12.755   6.533  1.00  0.00     0.037 A 
HETATM   18  C18 UNK     1      19.228  13.033   6.313  1.00  0.00     0.102 A 
HETATM   19  C17 UNK     1      20.173  12.723   7.291  1.00  0.00     0.037 A 
HETATM   20  C14 UNK     1      19.767  12.137   8.490  1.00  0.00     0.012 A 
BRANCH  18  21
HETATM   21  N1  UNK     1      19.639  13.631   5.093  1.00  0.00    -0.116 N 
HETATM   22  O5  UNK     1      19.699  12.924   4.057  1.00  0.00    -0.532 OA
HETATM   23  O6  UNK     1      19.933  14.851   5.082  1.00  0.00    -0.532 OA
ENDBRANCH  18  21
ENDBRANCH  14  15
ENDBRANCH  13  14
ENDBRANCH   6  13
BRANCH   7  24
HETATM   24  O3  UNK     1      11.356   6.297   9.577  1.00  0.00    -0.304 OA
BRANCH  24  25
HETATM   25  C15 UNK     1      10.699   6.236   8.380  1.00  0.00     0.076 A 
HETATM   26  C19 UNK     1      11.425   6.128   7.197  1.00  0.00     0.037 A 
HETATM   27  C21 UNK     1      10.754   6.067   5.975  1.00  0.00     0.003 A 
HETATM   28  C23 UNK     1       9.360   6.113   5.942  1.00  0.00     0.000 A 
HETATM   29  C22 UNK     1       8.637   6.222   7.131  1.00  0.00     0.003 A 
HETATM   30  C20 UNK     1       9.308   6.283   8.352  1.00  0.00     0.037 A 
ENDBRANCH  24  25
ENDBRANCH   7  24
TORSDOF 6
ENDMDL
MODEL 8
REMARK VINA RESULT:      -9.0     10.843     13.599
REMARK  6 active torsions:
REMARK  status: ('A' for Active; 'I' for Inactive)
REMARK    1  A    between atoms: C10_17  and  O2_2 
REMARK    2  A    between atoms: C4_11  and  O2_2 
REMARK    3  A    between atoms: C15_22  and  O3_3 
REMARK    4  A    between atoms: C5_12  and  O3_3 
REMARK    5  A    between atoms: C18_25  and  N1_7 
REMARK    6  A    between atoms: C10_17  and  C11_18 
ROOT
HETATM    1  O1  UNK     1      30.683  -5.244  32.969  1.00  0.00    -0.311 OA
HETATM    2  O4  UNK     1      32.366  -8.508  31.208  1.00  0.00    -0.284 OA
HETATM    3  C1  UNK     1      32.074  -7.224  33.164  1.00  0.00     0.051 A 
HETATM    4  C2  UNK     1      31.469  -6.092  33.705  1.00  0.00     0.092 A 
HETATM    5  C3  UNK     1      31.863  -7.529  31.741  1.00  0.00     0.221 A 
HETATM    6  C4  UNK     1      32.441  -6.605  35.855  1.00  0.00     0.071 A 
HETATM    7  C5  UNK     1      31.007  -6.582  30.987  1.00  0.00     0.156 A 
HETATM    8  C6  UNK     1      31.653  -5.781  35.052  1.00  0.00     0.075 A 
HETATM    9  C7  UNK     1      30.480  -5.523  31.625  1.00  0.00     0.087 A 
HETATM   10  C8  UNK     1      32.864  -8.053  33.964  1.00  0.00     0.021 A 
HETATM   11  C9  UNK     1      33.046  -7.739  35.311  1.00  0.00     0.038 A 
HETATM   12  C12 UNK     1      29.601  -4.508  30.955  1.00  0.00     0.080 C 
ENDROOT
BRANCH   6  13
HETATM   13  O2  UNK     1      32.622  -6.303  37.170  1.00  0.00    -0.347 OA
BRANCH  13  14
HETATM   14  C10 UNK     1      32.048  -7.193  38.125  1.00  0.00     0.214 C 
BRANCH  14  15
HETATM   15  C11 UNK     1      30.584  -6.890  38.257  1.00  0.00    -0.034 A 
HETATM   16  C13 UNK     1      29.648  -7.880  37.976  1.00  0.00     0.012 A 
HETATM   17  C16 UNK     1      28.288  -7.598  38.100  1.00  0.00     0.037 A 
HETATM   18  C18 UNK     1      27.871  -6.330  38.504  1.00  0.00     0.102 A 
HETATM   19  C17 UNK     1      28.815  -5.343  38.783  1.00  0.00     0.037 A 
HETATM   20  C14 UNK     1      30.176  -5.624  38.659  1.00  0.00     0.012 A 
BRANCH  18  21
HETATM   21  N1  UNK     1      26.487  -6.046  38.630  1.00  0.00    -0.116 N 
HETATM   22  O5  UNK     1      26.119  -4.852  38.758  1.00  0.00    -0.532 OA
HETATM   23  O6  UNK     1      25.666  -6.995  38.612  1.00  0.00    -0.532 OA
ENDBRANCH  18  21
ENDBRANCH  14  15
ENDBRANCH  13  14
ENDBRANCH   6  13
BRANCH   7  24
HETATM   24  O3  UNK     1      30.785  -6.830  29.650  1.00  0.00    -0.304 OA
BRANCH  24  25
HETATM   25  C15 UNK     1      29.915  -7.838  29.343  1.00  0.00     0.076 A 
HETATM   26  C19 UNK     1      30.286  -8.815  28.424  1.00  0.00     0.037 A 
HETATM   27  C21 UNK     1      29.397  -9.844  28.110  1.00  0.00     0.003 A 
HETATM   28  C23 UNK     1      28.142  -9.891  28.717  1.00  0.00     0.000 A 
HETATM   29  C22 UNK     1      27.775  -8.909  29.637  1.00  0.00     0.003 A 
HETATM   30  C20 UNK     1      28.663  -7.880  29.951  1.00  0.00     0.037 A 
ENDBRANCH  24  25
ENDBRANCH   7  24
TORSDOF 6
ENDMDL
MODEL 9
REMARK VINA RESULT:      -8.9     26.532     29.056
REMARK  6 active torsions:
REMARK  status: ('A' for Active; 'I' for Inactive)
REMARK    1  A    between atoms: C10_17  and  O2_2 
REMARK    2  A    between atoms: C4_11  and  O2_2 
REMARK    3  A    between atoms: C15_22  and  O3_3 
REMARK    4  A    between atoms: C5_12  and  O3_3 
REMARK    5  A    between atoms: C18_25  and  N1_7 
REMARK    6  A    between atoms: C10_17  and  C11_18 
ROOT
HETATM    1  O1  UNK     1      15.015  10.756   8.350  1.00  0.00    -0.311 OA
HETATM    2  O4  UNK     1      18.835  10.656   9.761  1.00  0.00    -0.284 OA
HETATM    3  C1  UNK     1      16.803   9.510   9.420  1.00  0.00     0.051 A 
HETATM    4  C2  UNK     1      15.507   9.609   8.919  1.00  0.00     0.092 A 
HETATM    5  C3  UNK     1      17.687  10.682   9.339  1.00  0.00     0.221 A 
HETATM    6  C4  UNK     1      15.091   7.316   9.550  1.00  0.00     0.071 A 
HETATM    7  C5  UNK     1      17.109  11.897   8.718  1.00  0.00     0.156 A 
HETATM    8  C6  UNK     1      14.649   8.512   8.984  1.00  0.00     0.075 A 
HETATM    9  C7  UNK     1      15.842  11.867   8.271  1.00  0.00     0.087 A 
HETATM   10  C8  UNK     1      17.250   8.314   9.988  1.00  0.00     0.021 A 
HETATM   11  C9  UNK     1      16.389   7.218  10.051  1.00  0.00     0.038 A 
HETATM   12  C12 UNK     1      15.165  13.041   7.627  1.00  0.00     0.080 C 
ENDROOT
BRANCH   6  13
HETATM   13  O2  UNK     1      14.254   6.244   9.614  1.00  0.00    -0.347 OA
BRANCH  13  14
HETATM   14  C10 UNK     1      13.898   5.624   8.380  1.00  0.00     0.214 C 
BRANCH  14  15
HETATM   15  C11 UNK     1      12.409   5.696   8.207  1.00  0.00    -0.034 A 
HETATM   16  C13 UNK     1      11.877   6.110   6.991  1.00  0.00     0.012 A 
HETATM   17  C16 UNK     1      10.493   6.176   6.830  1.00  0.00     0.037 A 
HETATM   18  C18 UNK     1       9.651   5.829   7.886  1.00  0.00     0.102 A 
HETATM   19  C17 UNK     1      10.191   5.416   9.103  1.00  0.00     0.037 A 
HETATM   20  C14 UNK     1      11.576   5.350   9.264  1.00  0.00     0.012 A 
BRANCH  18  21
HETATM   21  N1  UNK     1       8.243   5.896   7.720  1.00  0.00    -0.116 N 
HETATM   22  O5  UNK     1       7.546   4.895   8.018  1.00  0.00    -0.532 OA
HETATM   23  O6  UNK     1       7.731   6.954   7.280  1.00  0.00    -0.532 OA
ENDBRANCH  18  21
ENDBRANCH  14  15
ENDBRANCH  13  14
ENDBRANCH   6  13
BRANCH   7  24
HETATM   24  O3  UNK     1      17.903  13.019   8.623  1.00  0.00    -0.304 OA
BRANCH  24  25
HETATM   25  C15 UNK     1      18.394  13.328   7.385  1.00  0.00     0.076 A 
HETATM   26  C19 UNK     1      18.560  14.661   7.020  1.00  0.00     0.037 A 
HETATM   27  C21 UNK     1      19.060  14.975   5.756  1.00  0.00     0.003 A 
HETATM   28  C23 UNK     1      19.392  13.956   4.863  1.00  0.00     0.000 A 
HETATM   29  C22 UNK     1      19.223  12.621   5.234  1.00  0.00     0.003 A 
HETATM   30  C20 UNK     1      18.723  12.307   6.498  1.00  0.00     0.037 A 
ENDBRANCH  24  25
ENDBRANCH   7  24
TORSDOF 6
ENDMDL
MODEL 10
REMARK VINA RESULT:      -8.8     25.586     27.758
REMARK  6 active torsions:
REMARK  status: ('A' for Active; 'I' for Inactive)
REMARK    1  A    between atoms: C10_17  and  O2_2 
REMARK    2  A    between atoms: C4_11  and  O2_2 
REMARK    3  A    between atoms: C15_22  and  O3_3 
REMARK    4  A    between atoms: C5_12  and  O3_3 
REMARK    5  A    between atoms: C18_25  and  N1_7 
REMARK    6  A    between atoms: C10_17  and  C11_18 
ROOT
HETATM    1  O1  UNK     1      15.753   6.862   9.790  1.00  0.00    -0.311 OA
HETATM    2  O4  UNK     1      12.347   9.089   9.629  1.00  0.00    -0.284 OA
HETATM    3  C1  UNK     1      14.704   9.049   9.697  1.00  0.00     0.051 A 
HETATM    4  C2  UNK     1      15.829   8.230   9.752  1.00  0.00     0.092 A 
HETATM    5  C3  UNK     1      13.372   8.424   9.679  1.00  0.00     0.221 A 
HETATM    6  C4  UNK     1      17.247  10.184   9.733  1.00  0.00     0.071 A 
HETATM    7  C5  UNK     1      13.342   6.943   9.722  1.00  0.00     0.156 A 
HETATM    8  C6  UNK     1      17.103   8.798   9.771  1.00  0.00     0.075 A 
HETATM    9  C7  UNK     1      14.501   6.264   9.774  1.00  0.00     0.087 A 
HETATM   10  C8  UNK     1      14.842  10.439   9.659  1.00  0.00     0.021 A 
HETATM   11  C9  UNK     1      16.119  11.003   9.678  1.00  0.00     0.038 A 
HETATM   12  C12 UNK     1      14.579   4.767   9.820  1.00  0.00     0.080 C 
ENDROOT
BRANCH   6  13
HETATM   13  O2  UNK     1      18.490  10.740   9.752  1.00  0.00    -0.347 OA
BRANCH  13  14
HETATM   14  C10 UNK     1      18.574  12.129  10.067  1.00  0.00     0.214 C 
BRANCH  14  15
HETATM   15  C11 UNK     1      19.635  12.332  11.109  1.00  0.00    -0.034 A 
HETATM   16  C13 UNK     1      20.925  11.868  10.877  1.00  0.00     0.012 A 
HETATM   17  C16 UNK     1      21.910  12.058  11.846  1.00  0.00     0.037 A 
HETATM   18  C18 UNK     1      21.600  12.709  13.039  1.00  0.00     0.102 A 
HETATM   19  C17 UNK     1      20.304  13.170  13.265  1.00  0.00     0.037 A 
HETATM   20  C14 UNK     1      19.318  12.981  12.296  1.00  0.00     0.012 A 
BRANCH  18  21
HETATM   21  N1  UNK     1      22.604  12.902  14.023  1.00  0.00    -0.116 N 
HETATM   22  O5  UNK     1      22.541  13.909  14.770  1.00  0.00    -0.532 OA
HETATM   23  O6  UNK     1      23.531  12.061  14.121  1.00  0.00    -0.532 OA
ENDBRANCH  18  21
ENDBRANCH  14  15
ENDBRANCH  13  14
ENDBRANCH   6  13
BRANCH   7  24
HETATM   24  O3  UNK     1      12.115   6.317   9.707  1.00  0.00    -0.304 OA
BRANCH  24  25
HETATM   25  C15 UNK     1      11.448   6.289   8.515  1.00  0.00     0.076 A 
HETATM   26  C19 UNK     1      10.060   6.393   8.497  1.00  0.00     0.037 A 
HETATM   27  C21 UNK     1       9.379   6.364   7.279  1.00  0.00     0.003 A 
HETATM   28  C23 UNK     1      10.090   6.231   6.085  1.00  0.00     0.000 A 
HETATM   29  C22 UNK     1      11.481   6.126   6.110  1.00  0.00     0.003 A 
HETATM   30  C20 UNK     1      12.161   6.156   7.327  1.00  0.00     0.037 A 
ENDBRANCH  24  25
ENDBRANCH   7  24
TORSDOF 6
ENDMDL
