MODEL 1
REMARK VINA RESULT:      -8.8      0.000      0.000
REMARK  4 active torsions:
REMARK  status: ('A' for Active; 'I' for Inactive)
REMARK    1  A    between atoms: C5_10  and  N1_3 
REMARK    2  A    between atoms: C7_12  and  N2_4 
REMARK    3  A    between atoms: C5_10  and  C6_11 
REMARK    4  A    between atoms: C13_18  and  C17_22 
ROOT
HETATM    1  O1  UNK     1      17.535  -0.376  35.441  1.00  0.00    -0.275 OA
HETATM    2  O2  UNK     1      16.962  -0.197  37.648  1.00  0.00    -0.260 OA
HETATM    3  C6  UNK     1      19.624  -2.115  36.227  1.00  0.00    -0.011 A 
HETATM    4  C8  UNK     1      19.428  -1.785  34.809  1.00  0.00     0.007 A 
HETATM    5  C9  UNK     1      18.798  -1.580  37.138  1.00  0.00     0.092 A 
HETATM    6  C10 UNK     1      18.387  -0.923  34.461  1.00  0.00     0.090 A 
HETATM    7  C11 UNK     1      20.229  -2.286  33.775  1.00  0.00     0.022 A 
HETATM    8  C13 UNK     1      19.987  -1.930  32.444  1.00  0.00    -0.058 A 
HETATM    9  C14 UNK     1      17.696  -0.669  36.786  1.00  0.00     0.288 A 
HETATM   10  C15 UNK     1      18.132  -0.557  33.137  1.00  0.00     0.039 A 
HETATM   11  C16 UNK     1      18.940  -1.066  32.125  1.00  0.00     0.010 A 
ENDROOT
BRANCH   3  12
HETATM   12  C5  UNK     1      20.734  -3.038  36.635  1.00  0.00     0.312 C 
BRANCH  12  13
HETATM   13  N1  UNK     1      20.224  -4.325  37.107  1.00  0.00     0.095 N 
HETATM   14  C1  UNK     1      19.825  -5.168  35.974  1.00  0.00     0.292 C 
HETATM   15  C3  UNK     1      19.235  -6.495  36.459  1.00  0.00     0.154 C 
HETATM   16  N2  UNK     1      20.165  -7.168  37.375  1.00  0.00    -0.362 N 
HETATM   17  C4  UNK     1      20.697  -6.339  38.461  1.00  0.00     0.154 C 
HETATM   18  C2  UNK     1      21.238  -5.016  37.912  1.00  0.00     0.292 C 
BRANCH  16  19
HETATM   19  C7  UNK     1      20.023  -8.547  37.560  1.00  0.00     0.125 A 
HETATM   20  C12 UNK     1      19.462  -8.973  38.753  1.00  0.00     0.050 A 
HETATM   21  C18 UNK     1      19.313 -10.341  38.950  1.00  0.00     0.005 A 
HETATM   22  C20 UNK     1      19.725 -11.229  37.963  1.00  0.00     0.019 A 
HETATM   23  C19 UNK     1      20.274 -10.703  36.805  1.00  0.00     0.119 A 
HETATM   24  N3  UNK     1      20.435  -9.380  36.577  1.00  0.00    -0.244 NA
ENDBRANCH  16  19
ENDBRANCH  12  13
ENDBRANCH   3  12
BRANCH   8  25
HETATM   25  C17 UNK     1      20.853  -2.477  31.358  1.00  0.00     0.034 C 
HETATM   26  C21 UNK     1      20.399  -2.028  29.973  1.00  0.00     0.010 C 
ENDBRANCH   8  25
TORSDOF 4
ENDMDL
MODEL 2
REMARK VINA RESULT:      -8.6      1.634      3.636
REMARK  4 active torsions:
REMARK  status: ('A' for Active; 'I' for Inactive)
REMARK    1  A    between atoms: C5_10  and  N1_3 
REMARK    2  A    between atoms: C7_12  and  N2_4 
REMARK    3  A    between atoms: C5_10  and  C6_11 
REMARK    4  A    between atoms: C13_18  and  C17_22 
ROOT
HETATM    1  O1  UNK     1      19.360  -1.078  32.754  1.00  0.00    -0.275 OA
HETATM    2  O2  UNK     1      20.818  -2.567  31.810  1.00  0.00    -0.260 OA
HETATM    3  C6  UNK     1      19.957  -2.237  35.265  1.00  0.00    -0.011 A 
HETATM    4  C8  UNK     1      19.000  -1.126  35.170  1.00  0.00     0.007 A 
HETATM    5  C9  UNK     1      20.540  -2.690  34.146  1.00  0.00     0.092 A 
HETATM    6  C10 UNK     1      18.731  -0.582  33.913  1.00  0.00     0.090 A 
HETATM    7  C11 UNK     1      18.334  -0.575  36.272  1.00  0.00     0.022 A 
HETATM    8  C13 UNK     1      17.434   0.483  36.110  1.00  0.00    -0.058 A 
HETATM    9  C14 UNK     1      20.267  -2.125  32.813  1.00  0.00     0.288 A 
HETATM   10  C15 UNK     1      17.835   0.475  33.734  1.00  0.00     0.039 A 
HETATM   11  C16 UNK     1      17.184   1.007  34.842  1.00  0.00     0.010 A 
ENDROOT
BRANCH   3  12
HETATM   12  C5  UNK     1      20.267  -2.846  36.601  1.00  0.00     0.312 C 
BRANCH  12  13
HETATM   13  N1  UNK     1      20.321  -4.306  36.532  1.00  0.00     0.095 N 
HETATM   14  C1  UNK     1      21.113  -4.845  37.644  1.00  0.00     0.292 C 
HETATM   15  C3  UNK     1      21.224  -6.369  37.550  1.00  0.00     0.154 C 
HETATM   16  N2  UNK     1      19.892  -6.977  37.447  1.00  0.00    -0.362 N 
HETATM   17  C4  UNK     1      19.007  -6.398  36.433  1.00  0.00     0.154 C 
HETATM   18  C2  UNK     1      18.968  -4.873  36.561  1.00  0.00     0.292 C 
BRANCH  16  19
HETATM   19  C7  UNK     1      19.756  -8.324  37.800  1.00  0.00     0.125 A 
HETATM   20  C12 UNK     1      19.883  -8.644  39.143  1.00  0.00     0.050 A 
HETATM   21  C18 UNK     1      19.750  -9.978  39.509  1.00  0.00     0.005 A 
HETATM   22  C20 UNK     1      19.497 -10.939  38.536  1.00  0.00     0.019 A 
HETATM   23  C19 UNK     1      19.387 -10.517  37.221  1.00  0.00     0.119 A 
HETATM   24  N3  UNK     1      19.510  -9.229  36.827  1.00  0.00    -0.244 NA
ENDBRANCH  16  19
ENDBRANCH  12  13
ENDBRANCH   3  12
BRANCH   8  25
HETATM   25  C17 UNK     1      16.737   1.055  37.299  1.00  0.00     0.034 C 
HETATM   26  C21 UNK     1      17.684   1.284  38.472  1.00  0.00     0.010 C 
ENDBRANCH   8  25
TORSDOF 4
ENDMDL
MODEL 3
REMARK VINA RESULT:      -8.5      6.783     11.684
REMARK  4 active torsions:
REMARK  status: ('A' for Active; 'I' for Inactive)
REMARK    1  A    between atoms: C5_10  and  N1_3 
REMARK    2  A    between atoms: C7_12  and  N2_4 
REMARK    3  A    between atoms: C5_10  and  C6_11 
REMARK    4  A    between atoms: C13_18  and  C17_22 
ROOT
HETATM    1  O1  UNK     1      20.563  -1.254  30.523  1.00  0.00    -0.275 OA
HETATM    2  O2  UNK     1      21.260  -0.859  28.380  1.00  0.00    -0.260 OA
HETATM    3  C6  UNK     1      19.015   1.108  30.350  1.00  0.00    -0.011 A 
HETATM    4  C8  UNK     1      19.011   0.307  31.582  1.00  0.00     0.007 A 
HETATM    5  C9  UNK     1      19.762   0.701  29.314  1.00  0.00     0.092 A 
HETATM    6  C10 UNK     1      19.787  -0.852  31.628  1.00  0.00     0.090 A 
HETATM    7  C11 UNK     1      18.268   0.637  32.723  1.00  0.00     0.022 A 
HETATM    8  C13 UNK     1      18.310  -0.171  33.864  1.00  0.00    -0.058 A 
HETATM    9  C14 UNK     1      20.586  -0.519  29.348  1.00  0.00     0.288 A 
HETATM   10  C15 UNK     1      19.841  -1.669  32.759  1.00  0.00     0.039 A 
HETATM   11  C16 UNK     1      19.096  -1.323  33.882  1.00  0.00     0.010 A 
ENDROOT
BRANCH   3  12
HETATM   12  C5  UNK     1      18.192   2.359  30.268  1.00  0.00     0.312 C 
BRANCH  12  13
HETATM   13  N1  UNK     1      18.726   3.418  31.125  1.00  0.00     0.095 N 
HETATM   14  C1  UNK     1      19.044   4.611  30.332  1.00  0.00     0.292 C 
HETATM   15  C3  UNK     1      19.658   5.705  31.210  1.00  0.00     0.154 C 
HETATM   16  N2  UNK     1      18.788   5.994  32.357  1.00  0.00    -0.362 N 
HETATM   17  C4  UNK     1      18.334   4.826  33.119  1.00  0.00     0.154 C 
HETATM   18  C2  UNK     1      17.765   3.760  32.180  1.00  0.00     0.292 C 
BRANCH  16  19
HETATM   19  C7  UNK     1      18.935   7.228  32.999  1.00  0.00     0.125 A 
HETATM   20  C12 UNK     1      20.154   7.487  33.603  1.00  0.00     0.050 A 
HETATM   21  C18 UNK     1      20.316   8.709  34.245  1.00  0.00     0.005 A 
HETATM   22  C20 UNK     1      19.268   9.623  34.263  1.00  0.00     0.019 A 
HETATM   23  C19 UNK     1      18.088   9.269  33.629  1.00  0.00     0.119 A 
HETATM   24  N3  UNK     1      17.894   8.090  32.995  1.00  0.00    -0.244 NA
ENDBRANCH  16  19
ENDBRANCH  12  13
ENDBRANCH   3  12
BRANCH   8  25
HETATM   25  C17 UNK     1      17.510   0.200  35.068  1.00  0.00     0.034 C 
HETATM   26  C21 UNK     1      16.120  -0.426  35.055  1.00  0.00     0.010 C 
ENDBRANCH   8  25
TORSDOF 4
ENDMDL
MODEL 4
REMARK VINA RESULT:      -8.2      6.334      9.102
REMARK  4 active torsions:
REMARK  status: ('A' for Active; 'I' for Inactive)
REMARK    1  A    between atoms: C5_10  and  N1_3 
REMARK    2  A    between atoms: C7_12  and  N2_4 
REMARK    3  A    between atoms: C5_10  and  C6_11 
REMARK    4  A    between atoms: C13_18  and  C17_22 
ROOT
HETATM    1  O1  UNK     1      20.892  -6.869  36.628  1.00  0.00    -0.275 OA
HETATM    2  O2  UNK     1      20.668  -4.969  37.882  1.00  0.00    -0.260 OA
HETATM    3  C6  UNK     1      23.025  -7.621  38.328  1.00  0.00    -0.011 A 
HETATM    4  C8  UNK     1      22.624  -8.490  37.213  1.00  0.00     0.007 A 
HETATM    5  C9  UNK     1      22.365  -6.471  38.525  1.00  0.00     0.092 A 
HETATM    6  C10 UNK     1      21.567  -8.084  36.397  1.00  0.00     0.090 A 
HETATM    7  C11 UNK     1      23.242  -9.711  36.916  1.00  0.00     0.022 A 
HETATM    8  C13 UNK     1      22.809 -10.489  35.837  1.00  0.00    -0.058 A 
HETATM    9  C14 UNK     1      21.248  -6.030  37.673  1.00  0.00     0.288 A 
HETATM   10  C15 UNK     1      21.123  -8.849  35.316  1.00  0.00     0.039 A 
HETATM   11  C16 UNK     1      21.751 -10.059  35.038  1.00  0.00     0.010 A 
ENDROOT
BRANCH   3  12
HETATM   12  C5  UNK     1      24.157  -8.027  39.224  1.00  0.00     0.312 C 
BRANCH  12  13
HETATM   13  N1  UNK     1      25.457  -7.697  38.639  1.00  0.00     0.095 N 
HETATM   14  C1  UNK     1      25.855  -6.333  39.008  1.00  0.00     0.292 C 
HETATM   15  C3  UNK     1      27.187  -5.955  38.355  1.00  0.00     0.154 C 
HETATM   16  N2  UNK     1      28.216  -6.957  38.665  1.00  0.00    -0.362 N 
HETATM   17  C4  UNK     1      27.832  -8.352  38.433  1.00  0.00     0.154 C 
HETATM   18  C2  UNK     1      26.479  -8.653  39.082  1.00  0.00     0.292 C 
BRANCH  16  19
HETATM   19  C7  UNK     1      29.558  -6.577  38.552  1.00  0.00     0.125 A 
HETATM   20  C12 UNK     1      30.489  -7.587  38.372  1.00  0.00     0.050 A 
HETATM   21  C18 UNK     1      31.827  -7.225  38.258  1.00  0.00     0.005 A 
HETATM   22  C20 UNK     1      32.187  -5.884  38.326  1.00  0.00     0.019 A 
HETATM   23  C19 UNK     1      31.180  -4.950  38.508  1.00  0.00     0.119 A 
HETATM   24  N3  UNK     1      29.869  -5.264  38.623  1.00  0.00    -0.244 NA
ENDBRANCH  16  19
ENDBRANCH  12  13
ENDBRANCH   3  12
BRANCH   8  25
HETATM   25  C17 UNK     1      23.483 -11.787  35.539  1.00  0.00     0.034 C 
HETATM   26  C21 UNK     1      24.892 -11.855  36.119  1.00  0.00     0.010 C 
ENDBRANCH   8  25
TORSDOF 4
ENDMDL
MODEL 5
REMARK VINA RESULT:      -8.1     10.450     12.170
REMARK  4 active torsions:
REMARK  status: ('A' for Active; 'I' for Inactive)
REMARK    1  A    between atoms: C5_10  and  N1_3 
REMARK    2  A    between atoms: C7_12  and  N2_4 
REMARK    3  A    between atoms: C5_10  and  C6_11 
REMARK    4  A    between atoms: C13_18  and  C17_22 
ROOT
HETATM    1  O1  UNK     1      28.210  -6.939  39.499  1.00  0.00    -0.275 OA
HETATM    2  O2  UNK     1      27.308  -9.011  39.855  1.00  0.00    -0.260 OA
HETATM    3  C6  UNK     1      29.800  -8.090  37.462  1.00  0.00    -0.011 A 
HETATM    4  C8  UNK     1      29.910  -6.657  37.767  1.00  0.00     0.007 A 
HETATM    5  C9  UNK     1      28.937  -8.839  38.162  1.00  0.00     0.092 A 
HETATM    6  C10 UNK     1      29.108  -6.127  38.779  1.00  0.00     0.090 A 
HETATM    7  C11 UNK     1      30.776  -5.782  37.099  1.00  0.00     0.022 A 
HETATM    8  C13 UNK     1      30.829  -4.426  37.441  1.00  0.00    -0.058 A 
HETATM    9  C14 UNK     1      28.086  -8.294  39.233  1.00  0.00     0.288 A 
HETATM   10  C15 UNK     1      29.150  -4.776  39.134  1.00  0.00     0.039 A 
HETATM   11  C16 UNK     1      30.018  -3.924  38.458  1.00  0.00     0.010 A 
ENDROOT
BRANCH   3  12
HETATM   12  C5  UNK     1      30.648  -8.692  36.380  1.00  0.00     0.312 C 
BRANCH  12  13
HETATM   13  N1  UNK     1      29.911  -8.821  35.122  1.00  0.00     0.095 N 
HETATM   14  C1  UNK     1      30.480  -7.935  34.099  1.00  0.00     0.292 C 
HETATM   15  C3  UNK     1      29.682  -8.020  32.796  1.00  0.00     0.154 C 
HETATM   16  N2  UNK     1      29.569  -9.414  32.349  1.00  0.00    -0.362 N 
HETATM   17  C4  UNK     1      29.122 -10.371  33.365  1.00  0.00     0.154 C 
HETATM   18  C2  UNK     1      29.937 -10.211  34.651  1.00  0.00     0.292 C 
BRANCH  16  19
HETATM   19  C7  UNK     1      29.287  -9.651  30.999  1.00  0.00     0.125 A 
HETATM   20  C12 UNK     1      28.221  -8.963  30.444  1.00  0.00     0.050 A 
HETATM   21  C18 UNK     1      27.929  -9.188  29.104  1.00  0.00     0.005 A 
HETATM   22  C20 UNK     1      28.701 -10.082  28.370  1.00  0.00     0.019 A 
HETATM   23  C19 UNK     1      29.746 -10.720  29.018  1.00  0.00     0.119 A 
HETATM   24  N3  UNK     1      30.060 -10.527  30.319  1.00  0.00    -0.244 NA
ENDBRANCH  16  19
ENDBRANCH  12  13
ENDBRANCH   3  12
BRANCH   8  25
HETATM   25  C17 UNK     1      31.760  -3.513  36.716  1.00  0.00     0.034 C 
HETATM   26  C21 UNK     1      32.648  -4.258  35.725  1.00  0.00     0.010 C 
ENDBRANCH   8  25
TORSDOF 4
ENDMDL
MODEL 6
REMARK VINA RESULT:      -8.0      6.944     10.526
REMARK  4 active torsions:
REMARK  status: ('A' for Active; 'I' for Inactive)
REMARK    1  A    between atoms: C5_10  and  N1_3 
REMARK    2  A    between atoms: C7_12  and  N2_4 
REMARK    3  A    between atoms: C5_10  and  C6_11 
REMARK    4  A    between atoms: C13_18  and  C17_22 
ROOT
HETATM    1  O1  UNK     1      20.232   7.215  33.730  1.00  0.00    -0.275 OA
HETATM    2  O2  UNK     1      22.127   6.432  32.715  1.00  0.00    -0.260 OA
HETATM    3  C6  UNK     1      18.745   6.079  31.609  1.00  0.00    -0.011 A 
HETATM    4  C8  UNK     1      18.060   6.794  32.695  1.00  0.00     0.007 A 
HETATM    5  C9  UNK     1      20.081   5.974  31.642  1.00  0.00     0.092 A 
HETATM    6  C10 UNK     1      18.829   7.341  33.723  1.00  0.00     0.090 A 
HETATM    7  C11 UNK     1      16.672   6.963  32.762  1.00  0.00     0.022 A 
HETATM    8  C13 UNK     1      16.084   7.656  33.826  1.00  0.00    -0.058 A 
HETATM    9  C14 UNK     1      20.905   6.546  32.720  1.00  0.00     0.288 A 
HETATM   10  C15 UNK     1      18.259   8.036  34.792  1.00  0.00     0.039 A 
HETATM   11  C16 UNK     1      16.877   8.193  34.840  1.00  0.00     0.010 A 
ENDROOT
BRANCH   3  12
HETATM   12  C5  UNK     1      17.948   5.480  30.488  1.00  0.00     0.312 C 
BRANCH  12  13
HETATM   13  N1  UNK     1      17.955   4.018  30.538  1.00  0.00     0.095 N 
HETATM   14  C1  UNK     1      18.748   3.469  29.431  1.00  0.00     0.292 C 
HETATM   15  C3  UNK     1      18.715   1.938  29.440  1.00  0.00     0.154 C 
HETATM   16  N2  UNK     1      19.127   1.421  30.751  1.00  0.00    -0.362 N 
HETATM   17  C4  UNK     1      18.456   2.022  31.909  1.00  0.00     0.154 C 
HETATM   18  C2  UNK     1      18.495   3.549  31.820  1.00  0.00     0.292 C 
BRANCH  16  19
HETATM   19  C7  UNK     1      19.588   0.102  30.823  1.00  0.00     0.125 A 
HETATM   20  C12 UNK     1      20.151  -0.435  29.676  1.00  0.00     0.050 A 
HETATM   21  C18 UNK     1      20.614  -1.745  29.732  1.00  0.00     0.005 A 
HETATM   22  C20 UNK     1      20.502  -2.467  30.915  1.00  0.00     0.019 A 
HETATM   23  C19 UNK     1      19.924  -1.838  32.006  1.00  0.00     0.119 A 
HETATM   24  N3  UNK     1      19.462  -0.567  31.990  1.00  0.00    -0.244 NA
ENDBRANCH  16  19
ENDBRANCH  12  13
ENDBRANCH   3  12
BRANCH   8  25
HETATM   25  C17 UNK     1      14.603   7.823  33.877  1.00  0.00     0.034 C 
HETATM   26  C21 UNK     1      14.190   9.278  34.074  1.00  0.00     0.010 C 
ENDBRANCH   8  25
TORSDOF 4
ENDMDL
MODEL 7
REMARK VINA RESULT:      -7.8     10.874     12.882
REMARK  4 active torsions:
REMARK  status: ('A' for Active; 'I' for Inactive)
REMARK    1  A    between atoms: C5_10  and  N1_3 
REMARK    2  A    between atoms: C7_12  and  N2_4 
REMARK    3  A    between atoms: C5_10  and  C6_11 
REMARK    4  A    between atoms: C13_18  and  C17_22 
ROOT
HETATM    1  O1  UNK     1      31.906  -3.727  36.836  1.00  0.00    -0.275 OA
HETATM    2  O2  UNK     1      33.589  -3.488  35.305  1.00  0.00    -0.260 OA
HETATM    3  C6  UNK     1      31.743  -6.449  36.084  1.00  0.00    -0.011 A 
HETATM    4  C8  UNK     1      30.849  -5.911  37.118  1.00  0.00     0.007 A 
HETATM    5  C9  UNK     1      32.634  -5.631  35.506  1.00  0.00     0.092 A 
HETATM    6  C10 UNK     1      30.960  -4.563  37.462  1.00  0.00     0.090 A 
HETATM    7  C11 UNK     1      29.884  -6.674  37.787  1.00  0.00     0.022 A 
HETATM    8  C13 UNK     1      29.064  -6.097  38.763  1.00  0.00    -0.058 A 
HETATM    9  C14 UNK     1      32.763  -4.207  35.858  1.00  0.00     0.288 A 
HETATM   10  C15 UNK     1      30.150  -3.971  38.433  1.00  0.00     0.039 A 
HETATM   11  C16 UNK     1      29.197  -4.747  39.086  1.00  0.00     0.010 A 
ENDROOT
BRANCH   3  12
HETATM   12  C5  UNK     1      31.649  -7.894  35.691  1.00  0.00     0.312 C 
BRANCH  12  13
HETATM   13  N1  UNK     1      31.436  -8.052  34.252  1.00  0.00     0.095 N 
HETATM   14  C1  UNK     1      31.577  -9.460  33.863  1.00  0.00     0.292 C 
HETATM   15  C3  UNK     1      31.413  -9.630  32.350  1.00  0.00     0.154 C 
HETATM   16  N2  UNK     1      30.149  -9.034  31.899  1.00  0.00    -0.362 N 
HETATM   17  C4  UNK     1      29.892  -7.666  32.360  1.00  0.00     0.154 C 
HETATM   18  C2  UNK     1      30.107  -7.559  33.872  1.00  0.00     0.292 C 
BRANCH  16  19
HETATM   19  C7  UNK     1      29.616  -9.468  30.680  1.00  0.00     0.125 A 
HETATM   20  C12 UNK     1      28.409  -8.916  30.284  1.00  0.00     0.050 A 
HETATM   21  C18 UNK     1      27.867  -9.337  29.075  1.00  0.00     0.005 A 
HETATM   22  C20 UNK     1      28.540 -10.284  28.310  1.00  0.00     0.019 A 
HETATM   23  C19 UNK     1      29.741 -10.774  28.793  1.00  0.00     0.119 A 
HETATM   24  N3  UNK     1      30.299 -10.389  29.964  1.00  0.00    -0.244 NA
ENDBRANCH  16  19
ENDBRANCH  12  13
ENDBRANCH   3  12
BRANCH   8  25
HETATM   25  C17 UNK     1      28.043  -6.930  39.463  1.00  0.00     0.034 C 
HETATM   26  C21 UNK     1      28.005  -8.362  38.941  1.00  0.00     0.010 C 
ENDBRANCH   8  25
TORSDOF 4
ENDMDL
MODEL 8
REMARK VINA RESULT:      -7.8      8.537     13.518
REMARK  4 active torsions:
REMARK  status: ('A' for Active; 'I' for Inactive)
REMARK    1  A    between atoms: C5_10  and  N1_3 
REMARK    2  A    between atoms: C7_12  and  N2_4 
REMARK    3  A    between atoms: C5_10  and  C6_11 
REMARK    4  A    between atoms: C13_18  and  C17_22 
ROOT
HETATM    1  O1  UNK     1      18.259   2.186  31.439  1.00  0.00    -0.275 OA
HETATM    2  O2  UNK     1      18.450   3.454  29.546  1.00  0.00    -0.260 OA
HETATM    3  C6  UNK     1      18.648   4.550  32.943  1.00  0.00    -0.011 A 
HETATM    4  C8  UNK     1      18.447   3.263  33.624  1.00  0.00     0.007 A 
HETATM    5  C9  UNK     1      18.644   4.584  31.603  1.00  0.00     0.092 A 
HETATM    6  C10 UNK     1      18.259   2.119  32.847  1.00  0.00     0.090 A 
HETATM    7  C11 UNK     1      18.433   3.112  35.016  1.00  0.00     0.022 A 
HETATM    8  C13 UNK     1      18.236   1.855  35.599  1.00  0.00    -0.058 A 
HETATM    9  C14 UNK     1      18.446   3.385  30.770  1.00  0.00     0.288 A 
HETATM   10  C15 UNK     1      18.061   0.857  33.412  1.00  0.00     0.039 A 
HETATM   11  C16 UNK     1      18.051   0.729  34.798  1.00  0.00     0.010 A 
ENDROOT
BRANCH   3  12
HETATM   12  C5  UNK     1      18.855   5.798  33.749  1.00  0.00     0.312 C 
BRANCH  12  13
HETATM   13  N1  UNK     1      17.781   6.768  33.531  1.00  0.00     0.095 N 
HETATM   14  C1  UNK     1      16.652   6.497  34.428  1.00  0.00     0.292 C 
HETATM   15  C3  UNK     1      15.499   7.471  34.169  1.00  0.00     0.154 C 
HETATM   16  N2  UNK     1      15.971   8.859  34.245  1.00  0.00    -0.362 N 
HETATM   17  C4  UNK     1      17.174   9.164  33.464  1.00  0.00     0.154 C 
HETATM   18  C2  UNK     1      18.272   8.135  33.744  1.00  0.00     0.292 C 
BRANCH  16  19
HETATM   19  C7  UNK     1      15.025   9.862  34.484  1.00  0.00     0.125 A 
HETATM   20  C12 UNK     1      14.157  10.175  33.451  1.00  0.00     0.050 A 
HETATM   21  C18 UNK     1      13.212  11.169  33.674  1.00  0.00     0.005 A 
HETATM   22  C20 UNK     1      13.163  11.811  34.907  1.00  0.00     0.019 A 
HETATM   23  C19 UNK     1      14.075  11.425  35.876  1.00  0.00     0.119 A 
HETATM   24  N3  UNK     1      15.009  10.463  35.695  1.00  0.00    -0.244 NA
ENDBRANCH  16  19
ENDBRANCH  12  13
ENDBRANCH   3  12
BRANCH   8  25
HETATM   25  C17 UNK     1      18.224   1.718  37.085  1.00  0.00     0.034 C 
HETATM   26  C21 UNK     1      16.875   1.243  37.612  1.00  0.00     0.010 C 
ENDBRANCH   8  25
TORSDOF 4
ENDMDL
MODEL 9
REMARK VINA RESULT:      -7.8     11.550     13.365
REMARK  4 active torsions:
REMARK  status: ('A' for Active; 'I' for Inactive)
REMARK    1  A    between atoms: C5_10  and  N1_3 
REMARK    2  A    between atoms: C7_12  and  N2_4 
REMARK    3  A    between atoms: C5_10  and  C6_11 
REMARK    4  A    between atoms: C13_18  and  C17_22 
ROOT
HETATM    1  O1  UNK     1      28.449  -5.587  39.583  1.00  0.00    -0.275 OA
HETATM    2  O2  UNK     1      29.588  -3.645  39.984  1.00  0.00    -0.260 OA
HETATM    3  C6  UNK     1      29.605  -5.616  37.001  1.00  0.00    -0.011 A 
HETATM    4  C8  UNK     1      28.687  -6.686  37.414  1.00  0.00     0.007 A 
HETATM    5  C9  UNK     1      29.884  -4.630  37.866  1.00  0.00     0.092 A 
HETATM    6  C10 UNK     1      28.137  -6.637  38.696  1.00  0.00     0.090 A 
HETATM    7  C11 UNK     1      28.327  -7.763  36.594  1.00  0.00     0.022 A 
HETATM    8  C13 UNK     1      27.446  -8.749  37.051  1.00  0.00    -0.058 A 
HETATM    9  C14 UNK     1      29.312  -4.565  39.221  1.00  0.00     0.288 A 
HETATM   10  C15 UNK     1      27.256  -7.612  39.168  1.00  0.00     0.039 A 
HETATM   11  C16 UNK     1      26.910  -8.673  38.336  1.00  0.00     0.010 A 
ENDROOT
BRANCH   3  12
HETATM   12  C5  UNK     1      30.214  -5.639  35.630  1.00  0.00     0.312 C 
BRANCH  12  13
HETATM   13  N1  UNK     1      31.565  -6.199  35.645  1.00  0.00     0.095 N 
HETATM   14  C1  UNK     1      31.543  -7.610  35.240  1.00  0.00     0.292 C 
HETATM   15  C3  UNK     1      32.944  -8.222  35.308  1.00  0.00     0.154 C 
HETATM   16  N2  UNK     1      33.896  -7.418  34.532  1.00  0.00    -0.362 N 
HETATM   17  C4  UNK     1      33.880  -5.977  34.804  1.00  0.00     0.154 C 
HETATM   18  C2  UNK     1      32.449  -5.437  34.755  1.00  0.00     0.292 C 
BRANCH  16  19
HETATM   19  C7  UNK     1      35.080  -8.031  34.105  1.00  0.00     0.125 A 
HETATM   20  C12 UNK     1      36.269  -7.382  34.393  1.00  0.00     0.050 A 
HETATM   21  C18 UNK     1      37.453  -7.979  33.976  1.00  0.00     0.005 A 
HETATM   22  C20 UNK     1      37.412  -9.189  33.292  1.00  0.00     0.019 A 
HETATM   23  C19 UNK     1      36.172  -9.758  33.053  1.00  0.00     0.119 A 
HETATM   24  N3  UNK     1      35.000  -9.207  33.444  1.00  0.00    -0.244 NA
ENDBRANCH  16  19
ENDBRANCH  12  13
ENDBRANCH   3  12
BRANCH   8  25
HETATM   25  C17 UNK     1      27.077  -9.887  36.160  1.00  0.00     0.034 C 
HETATM   26  C21 UNK     1      25.851 -10.643  36.663  1.00  0.00     0.010 C 
ENDBRANCH   8  25
TORSDOF 4
ENDMDL
MODEL 10
REMARK VINA RESULT:      -7.8      5.370     10.067
REMARK  4 active torsions:
REMARK  status: ('A' for Active; 'I' for Inactive)
REMARK    1  A    between atoms: C5_10  and  N1_3 
REMARK    2  A    between atoms: C7_12  and  N2_4 
REMARK    3  A    between atoms: C5_10  and  C6_11 
REMARK    4  A    between atoms: C13_18  and  C17_22 
ROOT
HETATM    1  O1  UNK     1      20.768  -2.920  33.336  1.00  0.00    -0.275 OA
HETATM    2  O2  UNK     1      20.537  -3.323  35.575  1.00  0.00    -0.260 OA
HETATM    3  C6  UNK     1      18.817  -0.889  33.600  1.00  0.00    -0.011 A 
HETATM    4  C8  UNK     1      19.425  -1.166  32.292  1.00  0.00     0.007 A 
HETATM    5  C9  UNK     1      19.201  -1.612  34.662  1.00  0.00     0.092 A 
HETATM    6  C10 UNK     1      20.384  -2.176  32.202  1.00  0.00     0.090 A 
HETATM    7  C11 UNK     1      19.100  -0.474  31.119  1.00  0.00     0.022 A 
HETATM    8  C13 UNK     1      19.719  -0.790  29.905  1.00  0.00    -0.058 A 
HETATM    9  C14 UNK     1      20.211  -2.680  34.582  1.00  0.00     0.288 A 
HETATM   10  C15 UNK     1      21.011  -2.505  30.998  1.00  0.00     0.039 A 
HETATM   11  C16 UNK     1      20.673  -1.805  29.844  1.00  0.00     0.010 A 
ENDROOT
BRANCH   3  12
HETATM   12  C5  UNK     1      17.782   0.190  33.731  1.00  0.00     0.312 C 
BRANCH  12  13
HETATM   13  N1  UNK     1      18.380   1.524  33.680  1.00  0.00     0.095 N 
HETATM   14  C1  UNK     1      17.737   2.337  32.640  1.00  0.00     0.292 C 
HETATM   15  C3  UNK     1      18.394   3.716  32.539  1.00  0.00     0.154 C 
HETATM   16  N2  UNK     1      18.414   4.375  33.851  1.00  0.00    -0.362 N 
HETATM   17  C4  UNK     1      18.933   3.567  34.959  1.00  0.00     0.154 C 
HETATM   18  C2  UNK     1      18.261   2.192  34.981  1.00  0.00     0.292 C 
BRANCH  16  19
HETATM   19  C7  UNK     1      18.547   5.768  33.885  1.00  0.00     0.125 A 
HETATM   20  C12 UNK     1      19.821   6.287  33.724  1.00  0.00     0.050 A 
HETATM   21  C18 UNK     1      19.969   7.669  33.755  1.00  0.00     0.005 A 
HETATM   22  C20 UNK     1      18.854   8.478  33.944  1.00  0.00     0.019 A 
HETATM   23  C19 UNK     1      17.623   7.861  34.096  1.00  0.00     0.119 A 
HETATM   24  N3  UNK     1      17.440   6.521  34.071  1.00  0.00    -0.244 NA
ENDBRANCH  16  19
ENDBRANCH  12  13
ENDBRANCH   3  12
BRANCH   8  25
HETATM   25  C17 UNK     1      19.356  -0.039  28.667  1.00  0.00     0.034 C 
HETATM   26  C21 UNK     1      18.568   1.231  28.971  1.00  0.00     0.010 C 
ENDBRANCH   8  25
TORSDOF 4
ENDMDL
