MODEL 1
REMARK VINA RESULT:      -7.4      0.000      0.000
REMARK  1 active torsions:
REMARK  status: ('A' for Active; 'I' for Inactive)
REMARK    1  A    between atoms: C6_9  and  O2_2 
ROOT
HETATM    1  O1  UNK     1      19.518   2.987  20.236  1.00  0.00    -0.275 OA
HETATM    2  O3  UNK     1      19.484   2.645  22.502  1.00  0.00    -0.260 OA
HETATM    3  C1  UNK     1      19.235   1.082  18.748  1.00  0.00     0.001 A 
HETATM    4  C2  UNK     1      19.431   2.448  18.937  1.00  0.00     0.089 A 
HETATM    5  C3  UNK     1      19.154   0.585  17.446  1.00  0.00     0.050 A 
HETATM    6  C4  UNK     1      19.547   3.326  17.863  1.00  0.00     0.041 A 
HETATM    7  C5  UNK     1      19.123   0.222  19.914  1.00  0.00     0.020 A 
HETATM    8  C6  UNK     1      19.269   1.455  16.358  1.00  0.00     0.066 A 
HETATM    9  C7  UNK     1      19.465   2.822  16.566  1.00  0.00     0.039 A 
HETATM   10  C8  UNK     1      19.207   0.741  21.142  1.00  0.00     0.083 A 
HETATM   11  C9  UNK     1      19.413   2.184  21.368  1.00  0.00     0.288 A 
ENDROOT
BRANCH   8  12
HETATM   12  O2  UNK     1      19.190   0.968  15.089  1.00  0.00    -0.361 OA
HETATM   13  H6  UNK     1      19.576   1.618  14.477  1.00  0.00     0.217 HD
ENDBRANCH   8  12
TORSDOF 1
ENDMDL
MODEL 2
REMARK VINA RESULT:      -7.3      0.812      4.826
REMARK  1 active torsions:
REMARK  status: ('A' for Active; 'I' for Inactive)
REMARK    1  A    between atoms: C6_9  and  O2_2 
ROOT
HETATM    1  O1  UNK     1      19.177   0.276  17.111  1.00  0.00    -0.275 OA
HETATM    2  O3  UNK     1      19.269   0.547  14.838  1.00  0.00    -0.260 OA
HETATM    3  C1  UNK     1      19.339   2.237  18.543  1.00  0.00     0.001 A 
HETATM    4  C2  UNK     1      19.201   0.860  18.394  1.00  0.00     0.089 A 
HETATM    5  C3  UNK     1      19.358   2.779  19.830  1.00  0.00     0.050 A 
HETATM    6  C4  UNK     1      19.079   0.013  19.493  1.00  0.00     0.041 A 
HETATM    7  C5  UNK     1      19.461   3.063  17.354  1.00  0.00     0.020 A 
HETATM    8  C6  UNK     1      19.238   1.940  20.942  1.00  0.00     0.066 A 
HETATM    9  C7  UNK     1      19.099   0.561  20.773  1.00  0.00     0.039 A 
HETATM   10  C8  UNK     1      19.438   2.502  16.141  1.00  0.00     0.083 A 
HETATM   11  C9  UNK     1      19.291   1.046  15.957  1.00  0.00     0.288 A 
ENDROOT
BRANCH   8  12
HETATM   12  O2  UNK     1      19.257   2.470  22.196  1.00  0.00    -0.361 OA
HETATM   13  H6  UNK     1      18.569   3.154  22.260  1.00  0.00     0.217 HD
ENDBRANCH   8  12
TORSDOF 1
ENDMDL
MODEL 3
REMARK VINA RESULT:      -6.7     10.030     11.914
REMARK  1 active torsions:
REMARK  status: ('A' for Active; 'I' for Inactive)
REMARK    1  A    between atoms: C6_9  and  O2_2 
ROOT
HETATM    1  O1  UNK     1      20.161  -0.633  31.996  1.00  0.00    -0.275 OA
HETATM    2  O3  UNK     1      21.214  -2.564  32.635  1.00  0.00    -0.260 OA
HETATM    3  C1  UNK     1      19.603  -0.311  29.649  1.00  0.00     0.001 A 
HETATM    4  C2  UNK     1      19.603   0.148  30.964  1.00  0.00     0.089 A 
HETATM    5  C3  UNK     1      19.041   0.492  28.654  1.00  0.00     0.050 A 
HETATM    6  C4  UNK     1      19.055   1.381  31.310  1.00  0.00     0.041 A 
HETATM    7  C5  UNK     1      20.192  -1.607  29.359  1.00  0.00     0.020 A 
HETATM    8  C6  UNK     1      18.488   1.732  28.986  1.00  0.00     0.066 A 
HETATM    9  C7  UNK     1      18.496   2.175  30.311  1.00  0.00     0.039 A 
HETATM   10  C8  UNK     1      20.719  -2.341  30.343  1.00  0.00     0.083 A 
HETATM   11  C9  UNK     1      20.729  -1.878  31.743  1.00  0.00     0.288 A 
ENDROOT
BRANCH   8  12
HETATM   12  O2  UNK     1      17.941   2.512  28.014  1.00  0.00    -0.361 OA
HETATM   13  H6  UNK     1      17.970   2.031  27.170  1.00  0.00     0.217 HD
ENDBRANCH   8  12
TORSDOF 1
ENDMDL
MODEL 4
REMARK VINA RESULT:      -6.6      1.489      4.306
REMARK  1 active torsions:
REMARK  status: ('A' for Active; 'I' for Inactive)
REMARK    1  A    between atoms: C6_9  and  O2_2 
ROOT
HETATM    1  O1  UNK     1      19.471   2.827  17.612  1.00  0.00    -0.275 OA
HETATM    2  O3  UNK     1      19.292   3.091  15.344  1.00  0.00    -0.260 OA
HETATM    3  C1  UNK     1      19.303   0.592  18.560  1.00  0.00     0.001 A 
HETATM    4  C2  UNK     1      19.476   1.964  18.726  1.00  0.00     0.089 A 
HETATM    5  C3  UNK     1      19.313  -0.231  19.688  1.00  0.00     0.050 A 
HETATM    6  C4  UNK     1      19.660   2.531  19.984  1.00  0.00     0.041 A 
HETATM    7  C5  UNK     1      19.115   0.066  17.219  1.00  0.00     0.020 A 
HETATM    8  C6  UNK     1      19.497   0.325  20.957  1.00  0.00     0.066 A 
HETATM    9  C7  UNK     1      19.669   1.703  21.105  1.00  0.00     0.039 A 
HETATM   10  C8  UNK     1      19.112   0.891  16.168  1.00  0.00     0.083 A 
HETATM   11  C9  UNK     1      19.295   2.347  16.318  1.00  0.00     0.288 A 
ENDROOT
BRANCH   8  12
HETATM   12  O2  UNK     1      19.506  -0.480  22.055  1.00  0.00    -0.361 OA
HETATM   13  H6  UNK     1      18.640  -0.426  22.493  1.00  0.00     0.217 HD
ENDBRANCH   8  12
TORSDOF 1
ENDMDL
MODEL 5
REMARK VINA RESULT:      -6.4     17.991     20.734
REMARK  1 active torsions:
REMARK  status: ('A' for Active; 'I' for Inactive)
REMARK    1  A    between atoms: C6_9  and  O2_2 
ROOT
HETATM    1  O1  UNK     1      21.222  -8.237  34.731  1.00  0.00    -0.275 OA
HETATM    2  O3  UNK     1      20.887  -6.371  33.444  1.00  0.00    -0.260 OA
HETATM    3  C1  UNK     1      19.530  -8.867  36.363  1.00  0.00     0.001 A 
HETATM    4  C2  UNK     1      20.754  -9.102  35.741  1.00  0.00     0.089 A 
HETATM    5  C3  UNK     1      19.100  -9.747  37.359  1.00  0.00     0.050 A 
HETATM    6  C4  UNK     1      21.554 -10.189  36.084  1.00  0.00     0.041 A 
HETATM    7  C5  UNK     1      18.746  -7.714  35.956  1.00  0.00     0.020 A 
HETATM    8  C6  UNK     1      19.893 -10.842  37.714  1.00  0.00     0.066 A 
HETATM    9  C7  UNK     1      21.117 -11.061  37.079  1.00  0.00     0.039 A 
HETATM   10  C8  UNK     1      19.197  -6.899  34.999  1.00  0.00     0.083 A 
HETATM   11  C9  UNK     1      20.488  -7.127  34.323  1.00  0.00     0.288 A 
ENDROOT
BRANCH   8  12
HETATM   12  O2  UNK     1      19.472 -11.697  38.686  1.00  0.00    -0.361 OA
HETATM   13  H6  UNK     1      19.027 -12.454  38.268  1.00  0.00     0.217 HD
ENDBRANCH   8  12
TORSDOF 1
ENDMDL
MODEL 6
REMARK VINA RESULT:      -6.4     12.733     14.643
REMARK  1 active torsions:
REMARK  status: ('A' for Active; 'I' for Inactive)
REMARK    1  A    between atoms: C6_9  and  O2_2 
ROOT
HETATM    1  O1  UNK     1      17.349   6.712  32.191  1.00  0.00    -0.275 OA
HETATM    2  O3  UNK     1      15.723   7.366  33.667  1.00  0.00    -0.260 OA
HETATM    3  C1  UNK     1      19.663   6.634  32.939  1.00  0.00     0.001 A 
HETATM    4  C2  UNK     1      18.711   6.458  31.938  1.00  0.00     0.089 A 
HETATM    5  C3  UNK     1      21.004   6.372  32.649  1.00  0.00     0.050 A 
HETATM    6  C4  UNK     1      19.063   6.025  30.661  1.00  0.00     0.041 A 
HETATM    7  C5  UNK     1      19.227   7.088  34.249  1.00  0.00     0.020 A 
HETATM    8  C6  UNK     1      21.371   5.938  31.373  1.00  0.00     0.066 A 
HETATM    9  C7  UNK     1      20.403   5.766  30.381  1.00  0.00     0.039 A 
HETATM   10  C8  UNK     1      17.934   7.327  34.481  1.00  0.00     0.083 A 
HETATM   11  C9  UNK     1      16.907   7.146  33.437  1.00  0.00     0.288 A 
ENDROOT
BRANCH   8  12
HETATM   12  O2  UNK     1      22.679   5.684  31.093  1.00  0.00    -0.361 OA
HETATM   13  H6  UNK     1      23.104   6.507  30.797  1.00  0.00     0.217 HD
ENDBRANCH   8  12
TORSDOF 1
ENDMDL
MODEL 7
REMARK VINA RESULT:      -6.4      1.346      4.637
REMARK  1 active torsions:
REMARK  status: ('A' for Active; 'I' for Inactive)
REMARK    1  A    between atoms: C6_9  and  O2_2 
ROOT
HETATM    1  O1  UNK     1      19.258   1.080  15.516  1.00  0.00    -0.275 OA
HETATM    2  O3  UNK     1      19.308  -0.470  13.830  1.00  0.00    -0.260 OA
HETATM    3  C1  UNK     1      18.885   0.330  17.801  1.00  0.00     0.001 A 
HETATM    4  C2  UNK     1      19.112   1.359  16.890  1.00  0.00     0.089 A 
HETATM    5  C3  UNK     1      18.746   0.646  19.155  1.00  0.00     0.050 A 
HETATM    6  C4  UNK     1      19.206   2.688  17.294  1.00  0.00     0.041 A 
HETATM    7  C5  UNK     1      18.798  -1.035  17.311  1.00  0.00     0.020 A 
HETATM    8  C6  UNK     1      18.837   1.976  19.575  1.00  0.00     0.066 A 
HETATM    9  C7  UNK     1      19.066   2.994  18.646  1.00  0.00     0.039 A 
HETATM   10  C8  UNK     1      18.937  -1.290  16.007  1.00  0.00     0.083 A 
HETATM   11  C9  UNK     1      19.180  -0.219  15.023  1.00  0.00     0.288 A 
ENDROOT
BRANCH   8  12
HETATM   12  O2  UNK     1      18.701   2.281  20.894  1.00  0.00    -0.361 OA
HETATM   13  H6  UNK     1      19.564   2.185  21.331  1.00  0.00     0.217 HD
ENDBRANCH   8  12
TORSDOF 1
ENDMDL
MODEL 8
REMARK VINA RESULT:      -6.4     11.160     12.445
REMARK  1 active torsions:
REMARK  status: ('A' for Active; 'I' for Inactive)
REMARK    1  A    between atoms: C6_9  and  O2_2 
ROOT
HETATM    1  O1  UNK     1      18.518   1.440  31.951  1.00  0.00    -0.275 OA
HETATM    2  O3  UNK     1      17.711   3.561  31.636  1.00  0.00    -0.260 OA
HETATM    3  C1  UNK     1      19.501   0.257  30.066  1.00  0.00     0.001 A 
HETATM    4  C2  UNK     1      19.137   0.296  31.410  1.00  0.00     0.089 A 
HETATM    5  C3  UNK     1      20.113  -0.895  29.566  1.00  0.00     0.050 A 
HETATM    6  C4  UNK     1      19.371  -0.779  32.264  1.00  0.00     0.041 A 
HETATM    7  C5  UNK     1      19.228   1.414  29.231  1.00  0.00     0.020 A 
HETATM    8  C6  UNK     1      20.353  -1.982  30.411  1.00  0.00     0.066 A 
HETATM    9  C7  UNK     1      19.982  -1.924  31.757  1.00  0.00     0.039 A 
HETATM   10  C8  UNK     1      18.640   2.495  29.752  1.00  0.00     0.083 A 
HETATM   11  C9  UNK     1      18.247   2.562  31.173  1.00  0.00     0.288 A 
ENDROOT
BRANCH   8  12
HETATM   12  O2  UNK     1      20.949  -3.103  29.921  1.00  0.00    -0.361 OA
HETATM   13  H6  UNK     1      21.538  -3.471  30.602  1.00  0.00     0.217 HD
ENDBRANCH   8  12
TORSDOF 1
ENDMDL
MODEL 9
REMARK VINA RESULT:      -6.2     10.491     13.463
REMARK  1 active torsions:
REMARK  status: ('A' for Active; 'I' for Inactive)
REMARK    1  A    between atoms: C6_9  and  O2_2 
ROOT
HETATM    1  O1  UNK     1      18.718   0.704  30.716  1.00  0.00    -0.275 OA
HETATM    2  O3  UNK     1      18.794   1.709  28.659  1.00  0.00    -0.260 OA
HETATM    3  C1  UNK     1      20.151  -1.215  31.149  1.00  0.00     0.001 A 
HETATM    4  C2  UNK     1      19.186  -0.307  31.579  1.00  0.00     0.089 A 
HETATM    5  C3  UNK     1      20.590  -2.202  32.034  1.00  0.00     0.050 A 
HETATM    6  C4  UNK     1      18.653  -0.358  32.865  1.00  0.00     0.041 A 
HETATM    7  C5  UNK     1      20.664  -1.104  29.795  1.00  0.00     0.020 A 
HETATM    8  C6  UNK     1      20.064  -2.266  33.327  1.00  0.00     0.066 A 
HETATM    9  C7  UNK     1      19.097  -1.347  33.741  1.00  0.00     0.039 A 
HETATM   10  C8  UNK     1      20.215  -0.143  28.983  1.00  0.00     0.083 A 
HETATM   11  C9  UNK     1      19.195   0.831  29.415  1.00  0.00     0.288 A 
ENDROOT
BRANCH   8  12
HETATM   12  O2  UNK     1      20.494  -3.230  34.187  1.00  0.00    -0.361 OA
HETATM   13  H6  UNK     1      19.729  -3.582  34.674  1.00  0.00     0.217 HD
ENDBRANCH   8  12
TORSDOF 1
ENDMDL
MODEL 10
REMARK VINA RESULT:      -6.2     19.092     20.661
REMARK  1 active torsions:
REMARK  status: ('A' for Active; 'I' for Inactive)
REMARK    1  A    between atoms: C6_9  and  O2_2 
ROOT
HETATM    1  O1  UNK     1      21.553  -9.287  35.057  1.00  0.00    -0.275 OA
HETATM    2  O3  UNK     1      22.924 -11.122  35.060  1.00  0.00    -0.260 OA
HETATM    3  C1  UNK     1      19.859  -9.074  36.791  1.00  0.00     0.001 A 
HETATM    4  C2  UNK     1      20.493  -8.577  35.655  1.00  0.00     0.089 A 
HETATM    5  C3  UNK     1      18.812  -8.341  37.355  1.00  0.00     0.050 A 
HETATM    6  C4  UNK     1      20.111  -7.371  35.072  1.00  0.00     0.041 A 
HETATM    7  C5  UNK     1      20.307 -10.338  37.348  1.00  0.00     0.020 A 
HETATM    8  C6  UNK     1      18.418  -7.129  36.780  1.00  0.00     0.066 A 
HETATM    9  C7  UNK     1      19.066  -6.646  35.641  1.00  0.00     0.039 A 
HETATM   10  C8  UNK     1      21.313 -11.006  36.775  1.00  0.00     0.083 A 
HETATM   11  C9  UNK     1      22.001 -10.500  35.573  1.00  0.00     0.288 A 
ENDROOT
BRANCH   8  12
HETATM   12  O2  UNK     1      17.397  -6.417  37.332  1.00  0.00    -0.361 OA
HETATM   13  H6  UNK     1      16.631  -6.450  36.734  1.00  0.00     0.217 HD
ENDBRANCH   8  12
TORSDOF 1
ENDMDL
