MODEL 1
REMARK VINA RESULT:      -8.7      0.000      0.000
REMARK  5 active torsions:
REMARK  status: ('A' for Active; 'I' for Inactive)
REMARK    1  A    between atoms: C13_20  and  O2_2 
REMARK    2  A    between atoms: C19_26  and  O2_2 
REMARK    3  A    between atoms: C12_19  and  C6_13 
REMARK    4  A    between atoms: C10_17  and  C13_20 
REMARK    5  A    between atoms: C15_22  and  C19_26 
ROOT
HETATM    1  O1  UNK     1      29.585  -9.805  35.743  1.00  0.00    -0.293 OA
HETATM    2  N1  UNK     1      30.193  -5.466  37.535  1.00  0.00    -0.362 N 
HETATM    3  C1  UNK     1      27.969  -8.309  38.657  1.00  0.00    -0.036 C 
HETATM    4  C2  UNK     1      28.940  -7.126  38.841  1.00  0.00     0.067 C 
HETATM    5  C3  UNK     1      28.696  -9.449  37.930  1.00  0.00     0.092 C 
HETATM    6  C4  UNK     1      29.675  -6.746  37.581  1.00  0.00     0.021 C 
HETATM    7  C5  UNK     1      29.846  -7.587  36.541  1.00  0.00     0.024 C 
HETATM    8  C6  UNK     1      30.557  -7.134  35.271  1.00  0.00     0.104 C 
HETATM    9  C7  UNK     1      29.373  -9.000  36.651  1.00  0.00     0.159 C 
HETATM   10  C8  UNK     1      27.508  -8.803  40.042  1.00  0.00     0.015 C 
HETATM   11  C9  UNK     1      26.718  -7.874  37.866  1.00  0.00     0.015 C 
HETATM   12  C10 UNK     1      31.201  -5.750  35.411  1.00  0.00     0.052 C 
HETATM   13  C11 UNK     1      30.984  -4.980  36.503  1.00  0.00     0.018 C 
HETATM   14  C14 UNK     1      31.545  -3.606  36.751  1.00  0.00     0.069 C 
HETATM   15  H12 UNK     1      30.054  -4.869  38.342  1.00  0.00     0.165 HD
ENDROOT
BRANCH   8  16
HETATM   16  C12 UNK     1      29.602  -7.147  34.108  1.00  0.00     0.029 A 
HETATM   17  C16 UNK     1      29.852  -8.099  32.996  1.00  0.00     0.194 A 
HETATM   18  O6  UNK     1      30.806  -8.866  32.998  1.00  0.00    -0.287 OA
HETATM   19  C22 UNK     1      28.887  -8.070  31.881  1.00  0.00     0.049 A 
HETATM   20  C23 UNK     1      27.818  -7.174  31.933  1.00  0.00     0.089 A 
HETATM   21  C24 UNK     1      29.035  -8.927  30.788  1.00  0.00     0.025 A 
HETATM   22  O4  UNK     1      27.624  -6.311  32.981  1.00  0.00    -0.321 OA
HETATM   23  C25 UNK     1      26.893  -7.130  30.890  1.00  0.00     0.039 A 
HETATM   24  C18 UNK     1      28.532  -6.349  34.012  1.00  0.00     0.154 A 
HETATM   25  C27 UNK     1      27.039  -7.985  29.796  1.00  0.00     0.009 A 
HETATM   26  C26 UNK     1      28.107  -8.881  29.746  1.00  0.00    -0.061 A 
HETATM   27  C28 UNK     1      28.258  -9.793  28.574  1.00  0.00     0.048 C 
ENDBRANCH   8  16
BRANCH  12  28
HETATM   28  C13 UNK     1      32.072  -5.328  34.301  1.00  0.00     0.292 C 
HETATM   29  O5  UNK     1      31.952  -4.263  33.725  1.00  0.00    -0.259 OA
BRANCH  28  30
HETATM   30  O2  UNK     1      32.976  -6.311  34.071  1.00  0.00    -0.315 OA
BRANCH  30  31
HETATM   31  C19 UNK     1      34.344  -5.930  34.248  1.00  0.00     0.211 C 
BRANCH  31  32
HETATM   32  C15 UNK     1      34.819  -6.408  35.605  1.00  0.00     0.145 C 
HETATM   33  O3  UNK     1      34.686  -5.351  36.571  1.00  0.00    -0.384 OA
HETATM   34  C21 UNK     1      34.184  -5.912  37.792  1.00  0.00     0.168 C 
HETATM   35  C20 UNK     1      34.219  -7.418  37.635  1.00  0.00     0.029 C 
HETATM   36  C17 UNK     1      34.020  -7.580  36.148  1.00  0.00     0.036 C 
ENDBRANCH  31  32
ENDBRANCH  30  31
ENDBRANCH  28  30
ENDBRANCH  12  28
TORSDOF 5
ENDMDL
MODEL 2
REMARK VINA RESULT:      -8.7      1.720      5.088
REMARK  5 active torsions:
REMARK  status: ('A' for Active; 'I' for Inactive)
REMARK    1  A    between atoms: C13_20  and  O2_2 
REMARK    2  A    between atoms: C19_26  and  O2_2 
REMARK    3  A    between atoms: C12_19  and  C6_13 
REMARK    4  A    between atoms: C10_17  and  C13_20 
REMARK    5  A    between atoms: C15_22  and  C19_26 
ROOT
HETATM    1  O1  UNK     1      31.729  -5.232  34.083  1.00  0.00    -0.293 OA
HETATM    2  N1  UNK     1      32.422  -8.885  37.013  1.00  0.00    -0.362 N 
HETATM    3  C1  UNK     1      34.828  -7.048  34.750  1.00  0.00    -0.036 C 
HETATM    4  C2  UNK     1      34.374  -7.754  36.043  1.00  0.00     0.067 C 
HETATM    5  C3  UNK     1      34.007  -5.764  34.562  1.00  0.00     0.092 C 
HETATM    6  C4  UNK     1      32.878  -7.902  36.157  1.00  0.00     0.021 C 
HETATM    7  C5  UNK     1      32.003  -7.127  35.484  1.00  0.00     0.024 C 
HETATM    8  C6  UNK     1      30.500  -7.351  35.601  1.00  0.00     0.104 C 
HETATM    9  C7  UNK     1      32.512  -5.999  34.646  1.00  0.00     0.159 C 
HETATM   10  C8  UNK     1      36.319  -6.682  34.872  1.00  0.00     0.015 C 
HETATM   11  C9  UNK     1      34.664  -7.977  33.530  1.00  0.00     0.015 C 
HETATM   12  C10 UNK     1      30.134  -8.370  36.685  1.00  0.00     0.052 C 
HETATM   13  C11 UNK     1      31.085  -9.095  37.320  1.00  0.00     0.018 C 
HETATM   14  C14 UNK     1      30.853 -10.130  38.387  1.00  0.00     0.069 C 
HETATM   15  H12 UNK     1      33.111  -9.438  37.509  1.00  0.00     0.165 HD
ENDROOT
BRANCH   8  16
HETATM   16  C12 UNK     1      29.934  -7.777  34.274  1.00  0.00     0.029 A 
HETATM   17  C16 UNK     1      28.858  -6.956  33.665  1.00  0.00     0.194 A 
HETATM   18  O6  UNK     1      28.422  -5.949  34.208  1.00  0.00    -0.287 OA
HETATM   19  C22 UNK     1      28.338  -7.419  32.364  1.00  0.00     0.049 A 
HETATM   20  C23 UNK     1      28.874  -8.573  31.792  1.00  0.00     0.089 A 
HETATM   21  C24 UNK     1      27.325  -6.713  31.710  1.00  0.00     0.025 A 
HETATM   22  O4  UNK     1      29.869  -9.303  32.390  1.00  0.00    -0.321 OA
HETATM   23  C25 UNK     1      28.397  -9.029  30.563  1.00  0.00     0.039 A 
HETATM   24  C18 UNK     1      30.343  -8.861  33.601  1.00  0.00     0.154 A 
HETATM   25  C27 UNK     1      27.385  -8.327  29.908  1.00  0.00     0.009 A 
HETATM   26  C26 UNK     1      26.851  -7.172  30.480  1.00  0.00    -0.061 A 
HETATM   27  C28 UNK     1      25.769  -6.425  29.774  1.00  0.00     0.048 C 
ENDBRANCH   8  16
BRANCH  12  28
HETATM   28  C13 UNK     1      28.700  -8.495  36.996  1.00  0.00     0.292 C 
HETATM   29  O5  UNK     1      28.063  -9.515  36.812  1.00  0.00    -0.259 OA
BRANCH  28  30
HETATM   30  O2  UNK     1      28.267  -7.313  37.496  1.00  0.00    -0.315 OA
BRANCH  30  31
HETATM   31  C19 UNK     1      28.543  -7.105  38.885  1.00  0.00     0.211 C 
BRANCH  31  32
HETATM   32  C15 UNK     1      29.253  -5.777  39.055  1.00  0.00     0.145 C 
HETATM   33  O3  UNK     1      30.677  -5.975  39.015  1.00  0.00    -0.384 OA
HETATM   34  C21 UNK     1      31.261  -4.917  38.242  1.00  0.00     0.168 C 
HETATM   35  C20 UNK     1      30.166  -3.904  37.980  1.00  0.00     0.029 C 
HETATM   36  C17 UNK     1      28.935  -4.775  37.959  1.00  0.00     0.036 C 
ENDBRANCH  31  32
ENDBRANCH  30  31
ENDBRANCH  28  30
ENDBRANCH  12  28
TORSDOF 5
ENDMDL
MODEL 3
REMARK VINA RESULT:      -8.5      0.934      1.449
REMARK  5 active torsions:
REMARK  status: ('A' for Active; 'I' for Inactive)
REMARK    1  A    between atoms: C13_20  and  O2_2 
REMARK    2  A    between atoms: C19_26  and  O2_2 
REMARK    3  A    between atoms: C12_19  and  C6_13 
REMARK    4  A    between atoms: C10_17  and  C13_20 
REMARK    5  A    between atoms: C15_22  and  C19_26 
ROOT
HETATM    1  O1  UNK     1      29.572  -9.884  35.850  1.00  0.00    -0.293 OA
HETATM    2  N1  UNK     1      30.069  -5.568  37.729  1.00  0.00    -0.362 N 
HETATM    3  C1  UNK     1      27.850  -8.457  38.738  1.00  0.00    -0.036 C 
HETATM    4  C2  UNK     1      28.800  -7.264  38.970  1.00  0.00     0.067 C 
HETATM    5  C3  UNK     1      28.614  -9.575  38.015  1.00  0.00     0.092 C 
HETATM    6  C4  UNK     1      29.567  -6.854  37.739  1.00  0.00     0.021 C 
HETATM    7  C5  UNK     1      29.780  -7.676  36.691  1.00  0.00     0.024 C 
HETATM    8  C6  UNK     1      30.522  -7.193  35.450  1.00  0.00     0.104 C 
HETATM    9  C7  UNK     1      29.323  -9.097  36.764  1.00  0.00     0.159 C 
HETATM   10  C8  UNK     1      27.355  -8.980  40.100  1.00  0.00     0.015 C 
HETATM   11  C9  UNK     1      26.618  -8.026  37.917  1.00  0.00     0.015 C 
HETATM   12  C10 UNK     1      31.143  -5.804  35.632  1.00  0.00     0.052 C 
HETATM   13  C11 UNK     1      30.883  -5.055  36.729  1.00  0.00     0.018 C 
HETATM   14  C14 UNK     1      31.418  -3.678  37.016  1.00  0.00     0.069 C 
HETATM   15  H12 UNK     1      29.897  -4.986  38.541  1.00  0.00     0.165 HD
ENDROOT
BRANCH   8  16
HETATM   16  C12 UNK     1      29.602  -7.200  34.259  1.00  0.00     0.029 A 
HETATM   17  C16 UNK     1      29.903  -8.123  33.136  1.00  0.00     0.194 A 
HETATM   18  O6  UNK     1      30.871  -8.873  33.151  1.00  0.00    -0.287 OA
HETATM   19  C22 UNK     1      28.970  -8.088  31.994  1.00  0.00     0.049 A 
HETATM   20  C23 UNK     1      27.884  -7.214  32.031  1.00  0.00     0.089 A 
HETATM   21  C24 UNK     1      29.167  -8.919  30.888  1.00  0.00     0.025 A 
HETATM   22  O4  UNK     1      27.643  -6.377  33.091  1.00  0.00    -0.321 OA
HETATM   23  C25 UNK     1      26.990  -7.165  30.963  1.00  0.00     0.039 A 
HETATM   24  C18 UNK     1      28.520  -6.419  34.148  1.00  0.00     0.154 A 
HETATM   25  C27 UNK     1      27.184  -7.994  29.857  1.00  0.00     0.009 A 
HETATM   26  C26 UNK     1      28.270  -8.869  29.820  1.00  0.00    -0.061 A 
HETATM   27  C28 UNK     1      28.472  -9.753  28.635  1.00  0.00     0.048 C 
ENDBRANCH   8  16
BRANCH  12  28
HETATM   28  C13 UNK     1      32.041  -5.353  34.555  1.00  0.00     0.292 C 
HETATM   29  O5  UNK     1      31.790  -4.411  33.827  1.00  0.00    -0.259 OA
BRANCH  28  30
HETATM   30  O2  UNK     1      33.133  -6.153  34.547  1.00  0.00    -0.315 OA
BRANCH  30  31
HETATM   31  C19 UNK     1      34.273  -5.632  35.239  1.00  0.00     0.211 C 
BRANCH  31  32
HETATM   32  C15 UNK     1      35.521  -5.931  34.432  1.00  0.00     0.145 C 
HETATM   33  O3  UNK     1      36.414  -6.755  35.200  1.00  0.00    -0.384 OA
HETATM   34  C21 UNK     1      36.967  -7.756  34.334  1.00  0.00     0.168 C 
HETATM   35  C20 UNK     1      36.561  -7.391  32.921  1.00  0.00     0.029 C 
HETATM   36  C17 UNK     1      35.244  -6.691  33.147  1.00  0.00     0.036 C 
ENDBRANCH  31  32
ENDBRANCH  30  31
ENDBRANCH  28  30
ENDBRANCH  12  28
TORSDOF 5
ENDMDL
MODEL 4
REMARK VINA RESULT:      -8.4      2.781      6.013
REMARK  5 active torsions:
REMARK  status: ('A' for Active; 'I' for Inactive)
REMARK    1  A    between atoms: C13_20  and  O2_2 
REMARK    2  A    between atoms: C19_26  and  O2_2 
REMARK    3  A    between atoms: C12_19  and  C6_13 
REMARK    4  A    between atoms: C10_17  and  C13_20 
REMARK    5  A    between atoms: C15_22  and  C19_26 
ROOT
HETATM    1  O1  UNK     1      29.040 -10.282  33.283  1.00  0.00    -0.293 OA
HETATM    2  N1  UNK     1      33.607  -9.315  34.068  1.00  0.00    -0.362 N 
HETATM    3  C1  UNK     1      31.915 -12.517  32.986  1.00  0.00    -0.036 C 
HETATM    4  C2  UNK     1      33.012 -11.434  32.979  1.00  0.00     0.067 C 
HETATM    5  C3  UNK     1      30.600 -11.904  32.484  1.00  0.00     0.092 C 
HETATM    6  C4  UNK     1      32.591 -10.142  33.632  1.00  0.00     0.021 C 
HETATM    7  C5  UNK     1      31.302  -9.778  33.789  1.00  0.00     0.024 C 
HETATM    8  C6  UNK     1      30.932  -8.481  34.500  1.00  0.00     0.104 C 
HETATM    9  C7  UNK     1      30.219 -10.633  33.216  1.00  0.00     0.159 C 
HETATM   10  C8  UNK     1      32.331 -13.663  32.045  1.00  0.00     0.015 C 
HETATM   11  C9  UNK     1      31.731 -13.104  34.400  1.00  0.00     0.015 C 
HETATM   12  C10 UNK     1      32.149  -7.599  34.800  1.00  0.00     0.052 C 
HETATM   13  C11 UNK     1      33.410  -8.047  34.597  1.00  0.00     0.018 C 
HETATM   14  C14 UNK     1      34.681  -7.286  34.863  1.00  0.00     0.069 C 
HETATM   15  H12 UNK     1      34.562  -9.620  33.921  1.00  0.00     0.165 HD
ENDROOT
BRANCH   8  16
HETATM   16  C12 UNK     1      30.181  -8.780  35.769  1.00  0.00     0.029 A 
HETATM   17  C16 UNK     1      28.802  -8.252  35.919  1.00  0.00     0.194 A 
HETATM   18  O6  UNK     1      28.262  -7.583  35.046  1.00  0.00    -0.287 OA
HETATM   19  C22 UNK     1      28.111  -8.574  37.182  1.00  0.00     0.049 A 
HETATM   20  C23 UNK     1      28.775  -9.340  38.141  1.00  0.00     0.089 A 
HETATM   21  C24 UNK     1      26.810  -8.122  37.418  1.00  0.00     0.025 A 
HETATM   22  O4  UNK     1      30.051  -9.809  37.961  1.00  0.00    -0.321 OA
HETATM   23  C25 UNK     1      28.141  -9.656  39.342  1.00  0.00     0.039 A 
HETATM   24  C18 UNK     1      30.682  -9.501  36.781  1.00  0.00     0.154 A 
HETATM   25  C27 UNK     1      26.842  -9.206  39.581  1.00  0.00     0.009 A 
HETATM   26  C26 UNK     1      26.178  -8.441  38.621  1.00  0.00    -0.061 A 
HETATM   27  C28 UNK     1      24.789  -7.963  38.882  1.00  0.00     0.048 C 
ENDBRANCH   8  16
BRANCH  12  28
HETATM   28  C13 UNK     1      31.857  -6.247  35.304  1.00  0.00     0.292 C 
HETATM   29  O5  UNK     1      31.396  -5.360  34.609  1.00  0.00    -0.259 OA
BRANCH  28  30
HETATM   30  O2  UNK     1      32.186  -6.199  36.617  1.00  0.00    -0.315 OA
BRANCH  30  31
HETATM   31  C19 UNK     1      32.193  -4.889  37.194  1.00  0.00     0.211 C 
BRANCH  31  32
HETATM   32  C15 UNK     1      31.113  -4.812  38.256  1.00  0.00     0.145 C 
HETATM   33  O3  UNK     1      30.015  -4.016  37.780  1.00  0.00    -0.384 OA
HETATM   34  C21 UNK     1      28.790  -4.651  38.172  1.00  0.00     0.168 C 
HETATM   35  C20 UNK     1      29.157  -5.774  39.120  1.00  0.00     0.029 C 
HETATM   36  C17 UNK     1      30.527  -6.164  38.624  1.00  0.00     0.036 C 
ENDBRANCH  31  32
ENDBRANCH  30  31
ENDBRANCH  28  30
ENDBRANCH  12  28
TORSDOF 5
ENDMDL
MODEL 5
REMARK VINA RESULT:      -8.4      1.343      2.377
REMARK  5 active torsions:
REMARK  status: ('A' for Active; 'I' for Inactive)
REMARK    1  A    between atoms: C13_20  and  O2_2 
REMARK    2  A    between atoms: C19_26  and  O2_2 
REMARK    3  A    between atoms: C12_19  and  C6_13 
REMARK    4  A    between atoms: C10_17  and  C13_20 
REMARK    5  A    between atoms: C15_22  and  C19_26 
ROOT
HETATM    1  O1  UNK     1      30.862  -9.879  36.745  1.00  0.00    -0.293 OA
HETATM    2  N1  UNK     1      29.715  -5.429  37.879  1.00  0.00    -0.362 N 
HETATM    3  C1  UNK     1      27.960  -8.694  38.619  1.00  0.00    -0.036 C 
HETATM    4  C2  UNK     1      28.484  -7.277  38.927  1.00  0.00     0.067 C 
HETATM    5  C3  UNK     1      29.152  -9.633  38.393  1.00  0.00     0.092 C 
HETATM    6  C4  UNK     1      29.532  -6.795  37.957  1.00  0.00     0.021 C 
HETATM    7  C5  UNK     1      30.276  -7.626  37.198  1.00  0.00     0.024 C 
HETATM    8  C6  UNK     1      31.289  -7.082  36.198  1.00  0.00     0.104 C 
HETATM    9  C7  UNK     1      30.140  -9.104  37.373  1.00  0.00     0.159 C 
HETATM   10  C8  UNK     1      27.136  -9.199  39.819  1.00  0.00     0.015 C 
HETATM   11  C9  UNK     1      27.040  -8.681  37.381  1.00  0.00     0.015 C 
HETATM   12  C10 UNK     1      31.490  -5.567  36.318  1.00  0.00     0.052 C 
HETATM   13  C11 UNK     1      30.701  -4.815  37.120  1.00  0.00     0.018 C 
HETATM   14  C14 UNK     1      30.789  -3.325  37.313  1.00  0.00     0.069 C 
HETATM   15  H12 UNK     1      29.144  -4.840  38.474  1.00  0.00     0.165 HD
ENDROOT
BRANCH   8  16
HETATM   16  C12 UNK     1      30.879  -7.442  34.795  1.00  0.00     0.029 A 
HETATM   17  C16 UNK     1      29.562  -6.971  34.298  1.00  0.00     0.194 A 
HETATM   18  O6  UNK     1      28.806  -6.303  34.991  1.00  0.00    -0.287 OA
HETATM   19  C22 UNK     1      29.209  -7.353  32.918  1.00  0.00     0.049 A 
HETATM   20  C23 UNK     1      30.111  -8.116  32.174  1.00  0.00     0.089 A 
HETATM   21  C24 UNK     1      27.992  -6.958  32.358  1.00  0.00     0.025 A 
HETATM   22  O4  UNK     1      31.319  -8.530  32.673  1.00  0.00    -0.321 OA
HETATM   23  C25 UNK     1      29.798  -8.488  30.867  1.00  0.00     0.039 A 
HETATM   24  C18 UNK     1      31.634  -8.167  33.960  1.00  0.00     0.154 A 
HETATM   25  C27 UNK     1      28.582  -8.095  30.305  1.00  0.00     0.009 A 
HETATM   26  C26 UNK     1      27.682  -7.331  31.050  1.00  0.00    -0.061 A 
HETATM   27  C28 UNK     1      26.384  -6.914  30.444  1.00  0.00     0.048 C 
ENDBRANCH   8  16
BRANCH  12  28
HETATM   28  C13 UNK     1      32.593  -4.998  35.526  1.00  0.00     0.292 C 
HETATM   29  O5  UNK     1      32.423  -4.375  34.495  1.00  0.00    -0.259 OA
BRANCH  28  30
HETATM   30  O2  UNK     1      33.761  -5.293  36.146  1.00  0.00    -0.315 OA
BRANCH  30  31
HETATM   31  C19 UNK     1      34.929  -5.176  35.327  1.00  0.00     0.211 C 
BRANCH  31  32
HETATM   32  C15 UNK     1      35.214  -6.516  34.677  1.00  0.00     0.145 C 
HETATM   33  O3  UNK     1      35.002  -6.426  33.258  1.00  0.00    -0.384 OA
HETATM   34  C21 UNK     1      36.055  -7.142  32.596  1.00  0.00     0.168 C 
HETATM   35  C20 UNK     1      36.823  -7.889  33.666  1.00  0.00     0.029 C 
HETATM   36  C17 UNK     1      36.646  -6.987  34.863  1.00  0.00     0.036 C 
ENDBRANCH  31  32
ENDBRANCH  30  31
ENDBRANCH  28  30
ENDBRANCH  12  28
TORSDOF 5
ENDMDL
MODEL 6
REMARK VINA RESULT:      -8.3      2.896      7.528
REMARK  5 active torsions:
REMARK  status: ('A' for Active; 'I' for Inactive)
REMARK    1  A    between atoms: C13_20  and  O2_2 
REMARK    2  A    between atoms: C19_26  and  O2_2 
REMARK    3  A    between atoms: C12_19  and  C6_13 
REMARK    4  A    between atoms: C10_17  and  C13_20 
REMARK    5  A    between atoms: C15_22  and  C19_26 
ROOT
HETATM    1  O1  UNK     1      32.998  -9.586  34.546  1.00  0.00    -0.293 OA
HETATM    2  N1  UNK     1      33.183  -7.382  30.361  1.00  0.00    -0.362 N 
HETATM    3  C1  UNK     1      35.934  -8.836  32.507  1.00  0.00    -0.036 C 
HETATM    4  C2  UNK     1      35.192  -8.524  31.192  1.00  0.00     0.067 C 
HETATM    5  C3  UNK     1      35.066  -9.766  33.367  1.00  0.00     0.092 C 
HETATM    6  C4  UNK     1      33.761  -8.096  31.393  1.00  0.00     0.021 C 
HETATM    7  C5  UNK     1      33.050  -8.385  32.502  1.00  0.00     0.024 C 
HETATM    8  C6  UNK     1      31.619  -7.885  32.672  1.00  0.00     0.104 C 
HETATM    9  C7  UNK     1      33.655  -9.248  33.561  1.00  0.00     0.159 C 
HETATM   10  C8  UNK     1      37.263  -9.543  32.181  1.00  0.00     0.015 C 
HETATM   11  C9  UNK     1      36.260  -7.539  33.275  1.00  0.00     0.015 C 
HETATM   12  C10 UNK     1      31.061  -7.236  31.401  1.00  0.00     0.052 C 
HETATM   13  C11 UNK     1      31.851  -6.997  30.328  1.00  0.00     0.018 C 
HETATM   14  C14 UNK     1      31.427  -6.357  29.033  1.00  0.00     0.069 C 
HETATM   15  H12 UNK     1      33.748  -7.196  29.540  1.00  0.00     0.165 HD
ENDROOT
BRANCH   8  16
HETATM   16  C12 UNK     1      31.540  -6.923  33.826  1.00  0.00     0.029 A 
HETATM   17  C16 UNK     1      30.527  -7.166  34.884  1.00  0.00     0.194 A 
HETATM   18  O6  UNK     1      29.761  -8.121  34.844  1.00  0.00    -0.287 OA
HETATM   19  C22 UNK     1      30.491  -6.193  35.991  1.00  0.00     0.049 A 
HETATM   20  C23 UNK     1      31.389  -5.124  35.984  1.00  0.00     0.089 A 
HETATM   21  C24 UNK     1      29.574  -6.335  37.035  1.00  0.00     0.025 A 
HETATM   22  O4  UNK     1      32.310  -4.937  34.985  1.00  0.00    -0.321 OA
HETATM   23  C25 UNK     1      31.372  -4.192  37.021  1.00  0.00     0.039 A 
HETATM   24  C18 UNK     1      32.331  -5.851  33.960  1.00  0.00     0.154 A 
HETATM   25  C27 UNK     1      30.457  -4.331  38.065  1.00  0.00     0.009 A 
HETATM   26  C26 UNK     1      29.560  -5.400  38.072  1.00  0.00    -0.061 A 
HETATM   27  C28 UNK     1      28.584  -5.544  39.192  1.00  0.00     0.048 C 
ENDBRANCH   8  16
BRANCH  12  28
HETATM   28  C13 UNK     1      29.626  -6.908  31.421  1.00  0.00     0.292 C 
HETATM   29  O5  UNK     1      29.201  -5.771  31.504  1.00  0.00    -0.259 OA
BRANCH  28  30
HETATM   30  O2  UNK     1      28.923  -8.063  31.334  1.00  0.00    -0.315 OA
BRANCH  30  31
HETATM   31  C19 UNK     1      28.221  -8.254  30.101  1.00  0.00     0.211 C 
BRANCH  31  32
HETATM   32  C15 UNK     1      28.765  -9.488  29.409  1.00  0.00     0.145 C 
HETATM   33  O3  UNK     1      29.490  -9.107  28.227  1.00  0.00    -0.384 OA
HETATM   34  C21 UNK     1      30.679  -9.907  28.146  1.00  0.00     0.168 C 
HETATM   35  C20 UNK     1      30.565 -10.978  29.211  1.00  0.00     0.029 C 
HETATM   36  C17 UNK     1      29.736 -10.284  30.264  1.00  0.00     0.036 C 
ENDBRANCH  31  32
ENDBRANCH  30  31
ENDBRANCH  28  30
ENDBRANCH  12  28
TORSDOF 5
ENDMDL
MODEL 7
REMARK VINA RESULT:      -8.2      2.504      3.609
REMARK  5 active torsions:
REMARK  status: ('A' for Active; 'I' for Inactive)
REMARK    1  A    between atoms: C13_20  and  O2_2 
REMARK    2  A    between atoms: C19_26  and  O2_2 
REMARK    3  A    between atoms: C12_19  and  C6_13 
REMARK    4  A    between atoms: C10_17  and  C13_20 
REMARK    5  A    between atoms: C15_22  and  C19_26 
ROOT
HETATM    1  O1  UNK     1      30.724 -10.285  38.414  1.00  0.00    -0.293 OA
HETATM    2  N1  UNK     1      28.693  -6.055  39.037  1.00  0.00    -0.362 N 
HETATM    3  C1  UNK     1      27.243  -9.540  39.233  1.00  0.00    -0.036 C 
HETATM    4  C2  UNK     1      27.447  -8.075  39.667  1.00  0.00     0.067 C 
HETATM    5  C3  UNK     1      28.559 -10.308  39.420  1.00  0.00     0.092 C 
HETATM    6  C4  UNK     1      28.678  -7.435  39.077  1.00  0.00     0.021 C 
HETATM    7  C5  UNK     1      29.730  -8.141  38.613  1.00  0.00     0.024 C 
HETATM    8  C6  UNK     1      30.929  -7.443  37.982  1.00  0.00     0.104 C 
HETATM    9  C7  UNK     1      29.743  -9.627  38.762  1.00  0.00     0.159 C 
HETATM   10  C8  UNK     1      26.153 -10.180  40.113  1.00  0.00     0.015 C 
HETATM   11  C9  UNK     1      26.777  -9.618  37.765  1.00  0.00     0.015 C 
HETATM   12  C10 UNK     1      30.877  -5.919  38.133  1.00  0.00     0.052 C 
HETATM   13  C11 UNK     1      29.780  -5.297  38.624  1.00  0.00     0.018 C 
HETATM   14  C14 UNK     1      29.602  -3.814  38.808  1.00  0.00     0.069 C 
HETATM   15  H12 UNK     1      27.888  -5.561  39.406  1.00  0.00     0.165 HD
ENDROOT
BRANCH   8  16
HETATM   16  C12 UNK     1      31.043  -7.818  36.530  1.00  0.00     0.029 A 
HETATM   17  C16 UNK     1      32.327  -8.382  36.042  1.00  0.00     0.194 A 
HETATM   18  O6  UNK     1      33.288  -8.549  36.782  1.00  0.00    -0.287 OA
HETATM   19  C22 UNK     1      32.385  -8.732  34.610  1.00  0.00     0.049 A 
HETATM   20  C23 UNK     1      31.259  -8.520  33.814  1.00  0.00     0.089 A 
HETATM   21  C24 UNK     1      33.549  -9.270  34.054  1.00  0.00     0.025 A 
HETATM   22  O4  UNK     1      30.091  -7.996  34.307  1.00  0.00    -0.321 OA
HETATM   23  C25 UNK     1      31.292  -8.844  32.458  1.00  0.00     0.039 A 
HETATM   24  C18 UNK     1      30.051  -7.674  35.642  1.00  0.00     0.154 A 
HETATM   25  C27 UNK     1      32.453  -9.381  31.900  1.00  0.00     0.009 A 
HETATM   26  C26 UNK     1      33.578  -9.593  32.697  1.00  0.00    -0.061 A 
HETATM   27  C28 UNK     1      34.817 -10.168  32.095  1.00  0.00     0.048 C 
ENDBRANCH   8  16
BRANCH  12  28
HETATM   28  C13 UNK     1      32.090  -5.189  37.728  1.00  0.00     0.292 C 
HETATM   29  O5  UNK     1      33.061  -5.053  38.450  1.00  0.00    -0.259 OA
BRANCH  28  30
HETATM   30  O2  UNK     1      31.911  -4.730  36.466  1.00  0.00    -0.315 OA
BRANCH  30  31
HETATM   31  C19 UNK     1      32.759  -3.638  36.092  1.00  0.00     0.211 C 
BRANCH  31  32
HETATM   32  C15 UNK     1      33.808  -4.138  35.119  1.00  0.00     0.145 C 
HETATM   33  O3  UNK     1      34.923  -4.687  35.841  1.00  0.00    -0.384 OA
HETATM   34  C21 UNK     1      35.347  -5.887  35.179  1.00  0.00     0.168 C 
HETATM   35  C20 UNK     1      34.595  -5.958  33.867  1.00  0.00     0.029 C 
HETATM   36  C17 UNK     1      33.309  -5.245  34.206  1.00  0.00     0.036 C 
ENDBRANCH  31  32
ENDBRANCH  30  31
ENDBRANCH  28  30
ENDBRANCH  12  28
TORSDOF 5
ENDMDL
MODEL 8
REMARK VINA RESULT:      -8.2      2.689      6.124
REMARK  5 active torsions:
REMARK  status: ('A' for Active; 'I' for Inactive)
REMARK    1  A    between atoms: C13_20  and  O2_2 
REMARK    2  A    between atoms: C19_26  and  O2_2 
REMARK    3  A    between atoms: C12_19  and  C6_13 
REMARK    4  A    between atoms: C10_17  and  C13_20 
REMARK    5  A    between atoms: C15_22  and  C19_26 
ROOT
HETATM    1  O1  UNK     1      29.679  -9.966  31.974  1.00  0.00    -0.293 OA
HETATM    2  N1  UNK     1      28.982  -6.094  34.607  1.00  0.00    -0.362 N 
HETATM    3  C1  UNK     1      27.790  -6.956  31.124  1.00  0.00    -0.036 C 
HETATM    4  C2  UNK     1      27.670  -6.385  32.551  1.00  0.00     0.067 C 
HETATM    5  C3  UNK     1      27.977  -8.478  31.206  1.00  0.00     0.092 C 
HETATM    6  C4  UNK     1      28.743  -6.872  33.490  1.00  0.00     0.021 C 
HETATM    7  C5  UNK     1      29.446  -8.005  33.289  1.00  0.00     0.024 C 
HETATM    8  C6  UNK     1      30.554  -8.426  34.247  1.00  0.00     0.104 C 
HETATM    9  C7  UNK     1      29.102  -8.890  32.134  1.00  0.00     0.159 C 
HETATM   10  C8  UNK     1      26.499  -6.645  30.345  1.00  0.00     0.015 C 
HETATM   11  C9  UNK     1      28.970  -6.308  30.371  1.00  0.00     0.015 C 
HETATM   12  C10 UNK     1      30.612  -7.556  35.507  1.00  0.00     0.052 C 
HETATM   13  C11 UNK     1      29.857  -6.439  35.627  1.00  0.00     0.018 C 
HETATM   14  C14 UNK     1      29.834  -5.499  36.802  1.00  0.00     0.069 C 
HETATM   15  H12 UNK     1      28.424  -5.256  34.728  1.00  0.00     0.165 HD
ENDROOT
BRANCH   8  16
HETATM   16  C12 UNK     1      31.883  -8.411  33.542  1.00  0.00     0.029 A 
HETATM   17  C16 UNK     1      32.748  -9.614  33.632  1.00  0.00     0.194 A 
HETATM   18  O6  UNK     1      32.412 -10.611  34.259  1.00  0.00    -0.287 OA
HETATM   19  C22 UNK     1      34.040  -9.546  32.924  1.00  0.00     0.049 A 
HETATM   20  C23 UNK     1      34.370  -8.383  32.225  1.00  0.00     0.089 A 
HETATM   21  C24 UNK     1      34.924 -10.627  32.948  1.00  0.00     0.025 A 
HETATM   22  O4  UNK     1      33.539  -7.293  32.168  1.00  0.00    -0.321 OA
HETATM   23  C25 UNK     1      35.586  -8.297  31.549  1.00  0.00     0.039 A 
HETATM   24  C18 UNK     1      32.340  -7.371  32.833  1.00  0.00     0.154 A 
HETATM   25  C27 UNK     1      36.471  -9.376  31.571  1.00  0.00     0.009 A 
HETATM   26  C26 UNK     1      36.140 -10.538  32.269  1.00  0.00    -0.061 A 
HETATM   27  C28 UNK     1      37.091 -11.688  32.289  1.00  0.00     0.048 C 
ENDBRANCH   8  16
BRANCH  12  28
HETATM   28  C13 UNK     1      31.522  -8.018  36.569  1.00  0.00     0.292 C 
HETATM   29  O5  UNK     1      32.522  -7.411  36.903  1.00  0.00    -0.259 OA
BRANCH  28  30
HETATM   30  O2  UNK     1      31.042  -9.185  37.063  1.00  0.00    -0.315 OA
BRANCH  30  31
HETATM   31  C19 UNK     1      30.608  -9.133  38.426  1.00  0.00     0.211 C 
BRANCH  31  32
HETATM   32  C15 UNK     1      29.113  -9.381  38.478  1.00  0.00     0.145 C 
HETATM   33  O3  UNK     1      28.820 -10.399  39.449  1.00  0.00    -0.384 OA
HETATM   34  C21 UNK     1      27.649 -10.006  40.181  1.00  0.00     0.168 C 
HETATM   35  C20 UNK     1      27.074  -8.795  39.476  1.00  0.00     0.029 C 
HETATM   36  C17 UNK     1      28.310  -8.159  38.890  1.00  0.00     0.036 C 
ENDBRANCH  31  32
ENDBRANCH  30  31
ENDBRANCH  28  30
ENDBRANCH  12  28
TORSDOF 5
ENDMDL
MODEL 9
REMARK VINA RESULT:      -8.2      2.351      7.063
REMARK  5 active torsions:
REMARK  status: ('A' for Active; 'I' for Inactive)
REMARK    1  A    between atoms: C13_20  and  O2_2 
REMARK    2  A    between atoms: C19_26  and  O2_2 
REMARK    3  A    between atoms: C12_19  and  C6_13 
REMARK    4  A    between atoms: C10_17  and  C13_20 
REMARK    5  A    between atoms: C15_22  and  C19_26 
ROOT
HETATM    1  O1  UNK     1      32.389 -10.254  34.640  1.00  0.00    -0.293 OA
HETATM    2  N1  UNK     1      32.070  -6.727  31.500  1.00  0.00    -0.362 N 
HETATM    3  C1  UNK     1      35.037  -8.046  33.434  1.00  0.00    -0.036 C 
HETATM    4  C2  UNK     1      34.294  -7.495  32.201  1.00  0.00     0.067 C 
HETATM    5  C3  UNK     1      34.461  -9.422  33.796  1.00  0.00     0.092 C 
HETATM    6  C4  UNK     1      32.793  -7.577  32.312  1.00  0.00     0.021 C 
HETATM    7  C5  UNK     1      32.158  -8.430  33.142  1.00  0.00     0.024 C 
HETATM    8  C6  UNK     1      30.637  -8.437  33.249  1.00  0.00     0.104 C 
HETATM    9  C7  UNK     1      32.952  -9.417  33.934  1.00  0.00     0.159 C 
HETATM   10  C8  UNK     1      36.533  -8.194  33.098  1.00  0.00     0.015 C 
HETATM   11  C9  UNK     1      34.911  -7.077  34.628  1.00  0.00     0.015 C 
HETATM   12  C10 UNK     1      29.963  -7.552  32.195  1.00  0.00     0.052 C 
HETATM   13  C11 UNK     1      30.686  -6.736  31.394  1.00  0.00     0.018 C 
HETATM   14  C14 UNK     1      30.143  -5.813  30.336  1.00  0.00     0.069 C 
HETATM   15  H12 UNK     1      32.585  -6.109  30.882  1.00  0.00     0.165 HD
ENDROOT
BRANCH   8  16
HETATM   16  C12 UNK     1      30.212  -8.018  34.630  1.00  0.00     0.029 A 
HETATM   17  C16 UNK     1      29.347  -8.935  35.415  1.00  0.00     0.194 A 
HETATM   18  O6  UNK     1      28.973 -10.014  34.973  1.00  0.00    -0.287 OA
HETATM   19  C22 UNK     1      28.959  -8.475  36.762  1.00  0.00     0.049 A 
HETATM   20  C23 UNK     1      29.416  -7.236  37.213  1.00  0.00     0.089 A 
HETATM   21  C24 UNK     1      28.147  -9.266  37.578  1.00  0.00     0.025 A 
HETATM   22  O4  UNK     1      30.215  -6.419  36.453  1.00  0.00    -0.321 OA
HETATM   23  C25 UNK     1      29.061  -6.781  38.482  1.00  0.00     0.039 A 
HETATM   24  C18 UNK     1      30.568  -6.860  35.201  1.00  0.00     0.154 A 
HETATM   25  C27 UNK     1      28.250  -7.569  39.300  1.00  0.00     0.009 A 
HETATM   26  C26 UNK     1      27.795  -8.808  38.849  1.00  0.00    -0.061 A 
HETATM   27  C28 UNK     1      26.928  -9.647  39.728  1.00  0.00     0.048 C 
ENDBRANCH   8  16
BRANCH  12  28
HETATM   28  C13 UNK     1      28.496  -7.660  32.105  1.00  0.00     0.292 C 
HETATM   29  O5  UNK     1      27.737  -6.804  32.519  1.00  0.00    -0.259 OA
BRANCH  28  30
HETATM   30  O2  UNK     1      28.191  -8.835  31.504  1.00  0.00    -0.315 OA
BRANCH  30  31
HETATM   31  C19 UNK     1      27.776  -8.728  30.139  1.00  0.00     0.211 C 
BRANCH  31  32
HETATM   32  C15 UNK     1      28.741  -9.506  29.266  1.00  0.00     0.145 C 
HETATM   33  O3  UNK     1      29.552  -8.597  28.502  1.00  0.00    -0.384 OA
HETATM   34  C21 UNK     1      30.900  -9.087  28.495  1.00  0.00     0.168 C 
HETATM   35  C20 UNK     1      30.870 -10.475  29.099  1.00  0.00     0.029 C 
HETATM   36  C17 UNK     1      29.707 -10.373  30.056  1.00  0.00     0.036 C 
ENDBRANCH  31  32
ENDBRANCH  30  31
ENDBRANCH  28  30
ENDBRANCH  12  28
TORSDOF 5
ENDMDL
MODEL 10
REMARK VINA RESULT:      -8.1      2.458      5.505
REMARK  5 active torsions:
REMARK  status: ('A' for Active; 'I' for Inactive)
REMARK    1  A    between atoms: C13_20  and  O2_2 
REMARK    2  A    between atoms: C19_26  and  O2_2 
REMARK    3  A    between atoms: C12_19  and  C6_13 
REMARK    4  A    between atoms: C10_17  and  C13_20 
REMARK    5  A    between atoms: C15_22  and  C19_26 
ROOT
HETATM    1  O1  UNK     1      29.862  -9.842  32.041  1.00  0.00    -0.293 OA
HETATM    2  N1  UNK     1      28.771  -6.175  34.827  1.00  0.00    -0.362 N 
HETATM    3  C1  UNK     1      27.909  -6.869  31.213  1.00  0.00    -0.036 C 
HETATM    4  C2  UNK     1      27.646  -6.392  32.655  1.00  0.00     0.067 C 
HETATM    5  C3  UNK     1      28.160  -8.383  31.221  1.00  0.00     0.092 C 
HETATM    6  C4  UNK     1      28.661  -6.891  33.651  1.00  0.00     0.021 C 
HETATM    7  C5  UNK     1      29.431  -7.979  33.444  1.00  0.00     0.024 C 
HETATM    8  C6  UNK     1      30.476  -8.411  34.466  1.00  0.00     0.104 C 
HETATM    9  C7  UNK     1      29.224  -8.804  32.215  1.00  0.00     0.159 C 
HETATM   10  C8  UNK     1      26.672  -6.564  30.347  1.00  0.00     0.015 C 
HETATM   11  C9  UNK     1      29.114  -6.125  30.600  1.00  0.00     0.015 C 
HETATM   12  C10 UNK     1      30.390  -7.619  35.775  1.00  0.00     0.052 C 
HETATM   13  C11 UNK     1      29.576  -6.545  35.895  1.00  0.00     0.018 C 
HETATM   14  C14 UNK     1      29.413  -5.681  37.117  1.00  0.00     0.069 C 
HETATM   15  H12 UNK     1      28.167  -5.370  34.950  1.00  0.00     0.165 HD
ENDROOT
BRANCH   8  16
HETATM   16  C12 UNK     1      31.856  -8.296  33.877  1.00  0.00     0.029 A 
HETATM   17  C16 UNK     1      32.736  -9.492  33.894  1.00  0.00     0.194 A 
HETATM   18  O6  UNK     1      32.374 -10.560  34.370  1.00  0.00    -0.287 OA
HETATM   19  C22 UNK     1      34.078  -9.324  33.305  1.00  0.00     0.049 A 
HETATM   20  C23 UNK     1      34.437  -8.083  32.777  1.00  0.00     0.089 A 
HETATM   21  C24 UNK     1      34.981 -10.390  33.273  1.00  0.00     0.025 A 
HETATM   22  O4  UNK     1      33.591  -7.003  32.782  1.00  0.00    -0.321 OA
HETATM   23  C25 UNK     1      35.701  -7.902  32.216  1.00  0.00     0.039 A 
HETATM   24  C18 UNK     1      32.345  -7.174  33.334  1.00  0.00     0.154 A 
HETATM   25  C27 UNK     1      36.604  -8.965  32.183  1.00  0.00     0.009 A 
HETATM   26  C26 UNK     1      36.244 -10.206  32.710  1.00  0.00    -0.061 A 
HETATM   27  C28 UNK     1      37.214 -11.339  32.671  1.00  0.00     0.048 C 
ENDBRANCH   8  16
BRANCH  12  28
HETATM   28  C13 UNK     1      31.231  -8.108  36.881  1.00  0.00     0.292 C 
HETATM   29  O5  UNK     1      30.837  -8.893  37.723  1.00  0.00    -0.259 OA
BRANCH  28  30
HETATM   30  O2  UNK     1      32.455  -7.538  36.770  1.00  0.00    -0.315 OA
BRANCH  30  31
HETATM   31  C19 UNK     1      32.793  -6.620  37.815  1.00  0.00     0.211 C 
BRANCH  31  32
HETATM   32  C15 UNK     1      33.644  -5.506  37.238  1.00  0.00     0.145 C 
HETATM   33  O3  UNK     1      34.873  -6.046  36.724  1.00  0.00    -0.384 OA
HETATM   34  C21 UNK     1      35.166  -5.400  35.476  1.00  0.00     0.168 C 
HETATM   35  C20 UNK     1      34.185  -4.256  35.329  1.00  0.00     0.029 C 
HETATM   36  C17 UNK     1      32.984  -4.777  36.080  1.00  0.00     0.036 C 
ENDBRANCH  31  32
ENDBRANCH  30  31
ENDBRANCH  28  30
ENDBRANCH  12  28
TORSDOF 5
ENDMDL
