MODEL 1
REMARK VINA RESULT:      -7.1      0.000      0.000
REMARK  3 active torsions:
REMARK  status: ('A' for Active; 'I' for Inactive)
REMARK    1  A    between atoms: C12_16  and  O3_3 
REMARK    2  A    between atoms: C2_6  and  C4_8 
REMARK    3  A    between atoms: C12_16  and  C4_8 
ROOT
HETATM    1  O1  UNK     1      18.739   0.544  32.949  1.00  0.00    -0.275 OA
HETATM    2  O2  UNK     1      17.790   2.047  34.388  1.00  0.00    -0.260 OA
HETATM    3  C1  UNK     1      19.210   1.225  30.650  1.00  0.00     0.005 A 
HETATM    4  C2  UNK     1      18.665   2.554  30.959  1.00  0.00    -0.029 A 
HETATM    5  C3  UNK     1      19.229   0.260  31.658  1.00  0.00     0.090 A 
HETATM    6  C5  UNK     1      19.716   0.863  29.395  1.00  0.00     0.015 A 
HETATM    7  C6  UNK     1      20.227  -1.366  30.197  1.00  0.00    -0.059 A 
HETATM    8  C7  UNK     1      19.729  -1.027  31.451  1.00  0.00     0.045 A 
HETATM    9  C8  UNK     1      18.206   2.797  32.195  1.00  0.00     0.091 A 
HETATM   10  C9  UNK     1      20.221  -0.423  29.170  1.00  0.00     0.007 A 
HETATM   11  C10 UNK     1      18.219   1.789  33.269  1.00  0.00     0.288 A 
HETATM   12  C11 UNK     1      20.766  -2.734  29.951  1.00  0.00     0.048 C 
ENDROOT
BRANCH   4  13
HETATM   13  C4  UNK     1      18.631   3.613  29.896  1.00  0.00     0.149 C 
BRANCH  13  14
HETATM   14  C12 UNK     1      19.051   4.937  30.473  1.00  0.00     0.143 C 
HETATM   15  O4  UNK     1      18.322   5.843  30.846  1.00  0.00    -0.650 OA
BRANCH  14  16
HETATM   16  O3  UNK     1      20.408   4.996  30.520  1.00  0.00    -0.776 OA
HETATM   17  H10 UNK     1      20.778   5.505  29.768  1.00  0.00     0.167 HD
ENDBRANCH  14  16
ENDBRANCH  13  14
ENDBRANCH   4  13
TORSDOF 3
ENDMDL
MODEL 2
REMARK VINA RESULT:      -6.9     10.504     11.964
REMARK  3 active torsions:
REMARK  status: ('A' for Active; 'I' for Inactive)
REMARK    1  A    between atoms: C12_16  and  O3_3 
REMARK    2  A    between atoms: C2_6  and  C4_8 
REMARK    3  A    between atoms: C12_16  and  C4_8 
ROOT
HETATM    1  O1  UNK     1      23.076  -7.428  37.695  1.00  0.00    -0.275 OA
HETATM    2  O2  UNK     1      22.906  -5.365  38.668  1.00  0.00    -0.260 OA
HETATM    3  C1  UNK     1      21.042  -8.699  37.228  1.00  0.00     0.005 A 
HETATM    4  C2  UNK     1      20.253  -7.596  37.791  1.00  0.00    -0.029 A 
HETATM    5  C3  UNK     1      22.432  -8.580  37.198  1.00  0.00     0.090 A 
HETATM    6  C5  UNK     1      20.480  -9.875  36.713  1.00  0.00     0.015 A 
HETATM    7  C6  UNK     1      22.679 -10.740  36.174  1.00  0.00    -0.059 A 
HETATM    8  C7  UNK     1      23.256  -9.580  36.680  1.00  0.00     0.045 A 
HETATM    9  C8  UNK     1      20.890  -6.513  38.257  1.00  0.00     0.091 A 
HETATM   10  C9  UNK     1      21.292 -10.888  36.191  1.00  0.00     0.007 A 
HETATM   11  C10 UNK     1      22.356  -6.372  38.232  1.00  0.00     0.288 A 
HETATM   12  C11 UNK     1      23.538 -11.822  35.616  1.00  0.00     0.048 C 
ENDROOT
BRANCH   4  13
HETATM   13  C4  UNK     1      18.756  -7.694  37.838  1.00  0.00     0.149 C 
BRANCH  13  14
HETATM   14  C12 UNK     1      18.151  -6.911  36.705  1.00  0.00     0.143 C 
HETATM   15  O4  UNK     1      18.579  -6.813  35.565  1.00  0.00    -0.650 OA
BRANCH  14  16
HETATM   16  O3  UNK     1      17.020  -6.295  37.139  1.00  0.00    -0.776 OA
HETATM   17  H10 UNK     1      17.198  -5.385  37.456  1.00  0.00     0.167 HD
ENDBRANCH  14  16
ENDBRANCH  13  14
ENDBRANCH   4  13
TORSDOF 3
ENDMDL
MODEL 3
REMARK VINA RESULT:      -6.8      2.506      5.464
REMARK  3 active torsions:
REMARK  status: ('A' for Active; 'I' for Inactive)
REMARK    1  A    between atoms: C12_16  and  O3_3 
REMARK    2  A    between atoms: C2_6  and  C4_8 
REMARK    3  A    between atoms: C12_16  and  C4_8 
ROOT
HETATM    1  O1  UNK     1      18.217   3.413  33.944  1.00  0.00    -0.275 OA
HETATM    2  O2  UNK     1      18.035   1.138  34.093  1.00  0.00    -0.260 OA
HETATM    3  C1  UNK     1      18.488   4.448  31.747  1.00  0.00     0.005 A 
HETATM    4  C2  UNK     1      18.442   3.111  31.140  1.00  0.00    -0.029 A 
HETATM    5  C3  UNK     1      18.373   4.556  33.134  1.00  0.00     0.090 A 
HETATM    6  C5  UNK     1      18.639   5.632  31.014  1.00  0.00     0.015 A 
HETATM    7  C6  UNK     1      18.558   6.950  33.045  1.00  0.00    -0.059 A 
HETATM    8  C7  UNK     1      18.406   5.786  33.792  1.00  0.00     0.045 A 
HETATM    9  C8  UNK     1      18.293   2.041  31.933  1.00  0.00     0.091 A 
HETATM   10  C9  UNK     1      18.674   6.874  31.658  1.00  0.00     0.007 A 
HETATM   11  C10 UNK     1      18.171   2.139  33.398  1.00  0.00     0.288 A 
HETATM   12  C11 UNK     1      18.596   8.276  33.726  1.00  0.00     0.048 C 
ENDROOT
BRANCH   4  13
HETATM   13  C4  UNK     1      18.563   2.962  29.651  1.00  0.00     0.149 C 
BRANCH  13  14
HETATM   14  C12 UNK     1      18.663   1.507  29.284  1.00  0.00     0.143 C 
HETATM   15  O4  UNK     1      19.670   0.815  29.277  1.00  0.00    -0.650 OA
BRANCH  14  16
HETATM   16  O3  UNK     1      17.432   1.044  28.942  1.00  0.00    -0.776 OA
HETATM   17  H10 UNK     1      16.886   0.842  29.731  1.00  0.00     0.167 HD
ENDBRANCH  14  16
ENDBRANCH  13  14
ENDBRANCH   4  13
TORSDOF 3
ENDMDL
MODEL 4
REMARK VINA RESULT:      -6.8     13.197     14.914
REMARK  3 active torsions:
REMARK  status: ('A' for Active; 'I' for Inactive)
REMARK    1  A    between atoms: C12_16  and  O3_3 
REMARK    2  A    between atoms: C2_6  and  C4_8 
REMARK    3  A    between atoms: C12_16  and  C4_8 
ROOT
HETATM    1  O1  UNK     1      19.335   1.335  15.155  1.00  0.00    -0.275 OA
HETATM    2  O2  UNK     1      19.438   3.373  16.188  1.00  0.00    -0.260 OA
HETATM    3  C1  UNK     1      19.056  -0.679  16.509  1.00  0.00     0.005 A 
HETATM    4  C2  UNK     1      19.040   0.163  17.713  1.00  0.00    -0.029 A 
HETATM    5  C3  UNK     1      19.204  -0.064  15.265  1.00  0.00     0.090 A 
HETATM    6  C5  UNK     1      18.930  -2.074  16.533  1.00  0.00     0.015 A 
HETATM    7  C6  UNK     1      19.103  -2.173  14.118  1.00  0.00    -0.059 A 
HETATM    8  C7  UNK     1      19.228  -0.789  14.073  1.00  0.00     0.045 A 
HETATM    9  C8  UNK     1      19.167   1.491  17.579  1.00  0.00     0.091 A 
HETATM   10  C9  UNK     1      18.954  -2.816  15.347  1.00  0.00     0.007 A 
HETATM   11  C10 UNK     1      19.324   2.154  16.273  1.00  0.00     0.288 A 
HETATM   12  C11 UNK     1      19.127  -2.969  12.858  1.00  0.00     0.048 C 
ENDROOT
BRANCH   4  13
HETATM   13  C4  UNK     1      18.883  -0.468  19.066  1.00  0.00     0.149 C 
BRANCH  13  14
HETATM   14  C12 UNK     1      18.781   0.595  20.123  1.00  0.00     0.143 C 
HETATM   15  O4  UNK     1      19.673   1.332  20.517  1.00  0.00    -0.650 OA
BRANCH  14  16
HETATM   16  O3  UNK     1      17.512   0.627  20.608  1.00  0.00    -0.776 OA
HETATM   17  H10 UNK     1      17.494   0.597  21.588  1.00  0.00     0.167 HD
ENDBRANCH  14  16
ENDBRANCH  13  14
ENDBRANCH   4  13
TORSDOF 3
ENDMDL
MODEL 5
REMARK VINA RESULT:      -6.8      3.864      5.820
REMARK  3 active torsions:
REMARK  status: ('A' for Active; 'I' for Inactive)
REMARK    1  A    between atoms: C12_16  and  O3_3 
REMARK    2  A    between atoms: C2_6  and  C4_8 
REMARK    3  A    between atoms: C12_16  and  C4_8 
ROOT
HETATM    1  O1  UNK     1      20.599  -3.140  35.427  1.00  0.00    -0.275 OA
HETATM    2  O2  UNK     1      20.689  -3.724  37.637  1.00  0.00    -0.260 OA
HETATM    3  C1  UNK     1      18.975  -1.467  34.699  1.00  0.00     0.005 A 
HETATM    4  C2  UNK     1      18.510  -1.350  36.087  1.00  0.00    -0.029 A 
HETATM    5  C3  UNK     1      20.007  -2.361  34.412  1.00  0.00     0.090 A 
HETATM    6  C5  UNK     1      18.441  -0.730  33.634  1.00  0.00     0.015 A 
HETATM    7  C6  UNK     1      19.965  -1.793  32.078  1.00  0.00    -0.059 A 
HETATM    8  C7  UNK     1      20.509  -2.534  33.121  1.00  0.00     0.045 A 
HETATM    9  C8  UNK     1      19.091  -2.103  37.032  1.00  0.00     0.091 A 
HETATM   10  C9  UNK     1      18.932  -0.891  32.333  1.00  0.00     0.007 A 
HETATM   11  C10 UNK     1      20.181  -3.051  36.746  1.00  0.00     0.288 A 
HETATM   12  C11 UNK     1      20.483  -1.960  30.691  1.00  0.00     0.048 C 
ENDROOT
BRANCH   4  13
HETATM   13  C4  UNK     1      17.401  -0.397  36.427  1.00  0.00     0.149 C 
BRANCH  13  14
HETATM   14  C12 UNK     1      17.944   0.773  37.200  1.00  0.00     0.143 C 
HETATM   15  O4  UNK     1      17.901   0.943  38.409  1.00  0.00    -0.650 OA
BRANCH  14  16
HETATM   16  O3  UNK     1      18.510   1.657  36.337  1.00  0.00    -0.776 OA
HETATM   17  H10 UNK     1      19.030   1.205  35.639  1.00  0.00     0.167 HD
ENDBRANCH  14  16
ENDBRANCH  13  14
ENDBRANCH   4  13
TORSDOF 3
ENDMDL
MODEL 6
REMARK VINA RESULT:      -6.7      3.749      6.300
REMARK  3 active torsions:
REMARK  status: ('A' for Active; 'I' for Inactive)
REMARK    1  A    between atoms: C12_16  and  O3_3 
REMARK    2  A    between atoms: C2_6  and  C4_8 
REMARK    3  A    between atoms: C12_16  and  C4_8 
ROOT
HETATM    1  O1  UNK     1      17.652  -0.376  33.623  1.00  0.00    -0.275 OA
HETATM    2  O2  UNK     1      16.321   0.314  35.350  1.00  0.00    -0.260 OA
HETATM    3  C1  UNK     1      19.558  -1.832  34.091  1.00  0.00     0.005 A 
HETATM    4  C2  UNK     1      19.200  -1.800  35.516  1.00  0.00    -0.029 A 
HETATM    5  C3  UNK     1      18.770  -1.116  33.188  1.00  0.00     0.090 A 
HETATM    6  C5  UNK     1      20.650  -2.543  33.579  1.00  0.00     0.015 A 
HETATM    7  C6  UNK     1      20.129  -1.805  31.330  1.00  0.00    -0.059 A 
HETATM    8  C7  UNK     1      19.039  -1.093  31.819  1.00  0.00     0.045 A 
HETATM    9  C8  UNK     1      18.132  -1.088  35.902  1.00  0.00     0.091 A 
HETATM   10  C9  UNK     1      20.934  -2.529  32.208  1.00  0.00     0.007 A 
HETATM   11  C10 UNK     1      17.291  -0.328  34.961  1.00  0.00     0.288 A 
HETATM   12  C11 UNK     1      20.436  -1.795  29.871  1.00  0.00     0.048 C 
ENDROOT
BRANCH   4  13
HETATM   13  C4  UNK     1      20.027  -2.559  36.512  1.00  0.00     0.149 C 
BRANCH  13  14
HETATM   14  C12 UNK     1      19.714  -4.028  36.431  1.00  0.00     0.143 C 
HETATM   15  O4  UNK     1      20.485  -4.931  36.145  1.00  0.00    -0.650 OA
BRANCH  14  16
HETATM   16  O3  UNK     1      18.403  -4.224  36.726  1.00  0.00    -0.776 OA
HETATM   17  H10 UNK     1      18.147  -5.167  36.644  1.00  0.00     0.167 HD
ENDBRANCH  14  16
ENDBRANCH  13  14
ENDBRANCH   4  13
TORSDOF 3
ENDMDL
MODEL 7
REMARK VINA RESULT:      -6.7      8.527     10.878
REMARK  3 active torsions:
REMARK  status: ('A' for Active; 'I' for Inactive)
REMARK    1  A    between atoms: C12_16  and  O3_3 
REMARK    2  A    between atoms: C2_6  and  C4_8 
REMARK    3  A    between atoms: C12_16  and  C4_8 
ROOT
HETATM    1  O1  UNK     1      20.478  -8.506  34.737  1.00  0.00    -0.275 OA
HETATM    2  O2  UNK     1      20.946  -7.303  32.849  1.00  0.00    -0.260 OA
HETATM    3  C1  UNK     1      19.699  -7.337  36.737  1.00  0.00     0.005 A 
HETATM    4  C2  UNK     1      19.790  -6.070  36.000  1.00  0.00    -0.029 A 
HETATM    5  C3  UNK     1      20.047  -8.519  36.079  1.00  0.00     0.090 A 
HETATM    6  C5  UNK     1      19.281  -7.435  38.070  1.00  0.00     0.015 A 
HETATM    7  C6  UNK     1      19.571  -9.841  38.029  1.00  0.00    -0.059 A 
HETATM    8  C7  UNK     1      19.989  -9.765  36.704  1.00  0.00     0.045 A 
HETATM    9  C8  UNK     1      20.202  -6.087  34.725  1.00  0.00     0.091 A 
HETATM   10  C9  UNK     1      19.218  -8.678  38.711  1.00  0.00     0.007 A 
HETATM   11  C10 UNK     1      20.573  -7.325  34.018  1.00  0.00     0.288 A 
HETATM   12  C11 UNK     1      19.502 -11.161  38.718  1.00  0.00     0.048 C 
ENDROOT
BRANCH   4  13
HETATM   13  C4  UNK     1      19.423  -4.782  36.679  1.00  0.00     0.149 C 
BRANCH  13  14
HETATM   14  C12 UNK     1      20.648  -4.145  37.276  1.00  0.00     0.143 C 
HETATM   15  O4  UNK     1      21.749  -4.656  37.420  1.00  0.00    -0.650 OA
BRANCH  14  16
HETATM   16  O3  UNK     1      20.354  -2.874  37.654  1.00  0.00    -0.776 OA
HETATM   17  H10 UNK     1      20.540  -2.724  38.605  1.00  0.00     0.167 HD
ENDBRANCH  14  16
ENDBRANCH  13  14
ENDBRANCH   4  13
TORSDOF 3
ENDMDL
MODEL 8
REMARK VINA RESULT:      -6.7     22.112     23.701
REMARK  3 active torsions:
REMARK  status: ('A' for Active; 'I' for Inactive)
REMARK    1  A    between atoms: C12_16  and  O3_3 
REMARK    2  A    between atoms: C2_6  and  C4_8 
REMARK    3  A    between atoms: C12_16  and  C4_8 
ROOT
HETATM    1  O1  UNK     1      16.380   6.079   9.914  1.00  0.00    -0.275 OA
HETATM    2  O2  UNK     1      15.806   3.866   9.863  1.00  0.00    -0.260 OA
HETATM    3  C1  UNK     1      14.739   7.755   9.229  1.00  0.00     0.005 A 
HETATM    4  C2  UNK     1      13.781   6.673   8.967  1.00  0.00    -0.029 A 
HETATM    5  C3  UNK     1      16.012   7.422   9.695  1.00  0.00     0.090 A 
HETATM    6  C5  UNK     1      14.452   9.113   9.038  1.00  0.00     0.015 A 
HETATM    7  C6  UNK     1      16.677   9.730   9.774  1.00  0.00    -0.059 A 
HETATM    8  C7  UNK     1      16.982   8.387   9.970  1.00  0.00     0.045 A 
HETATM    9  C8  UNK     1      14.157   5.405   9.183  1.00  0.00     0.091 A 
HETATM   10  C9  UNK     1      15.413  10.093   9.308  1.00  0.00     0.007 A 
HETATM   11  C10 UNK     1      15.496   5.038   9.675  1.00  0.00     0.288 A 
HETATM   12  C11 UNK     1      17.697  10.779  10.060  1.00  0.00     0.048 C 
ENDROOT
BRANCH   4  13
HETATM   13  C4  UNK     1      12.404   6.998   8.464  1.00  0.00     0.149 C 
BRANCH  13  14
HETATM   14  C12 UNK     1      12.082   6.158   7.259  1.00  0.00     0.143 C 
HETATM   15  O4  UNK     1      11.245   5.273   7.179  1.00  0.00    -0.650 OA
BRANCH  14  16
HETATM   16  O3  UNK     1      12.886   6.527   6.227  1.00  0.00    -0.776 OA
HETATM   17  H10 UNK     1      12.570   7.349   5.794  1.00  0.00     0.167 HD
ENDBRANCH  14  16
ENDBRANCH  13  14
ENDBRANCH   4  13
TORSDOF 3
ENDMDL
MODEL 9
REMARK VINA RESULT:      -6.7     13.249     15.766
REMARK  3 active torsions:
REMARK  status: ('A' for Active; 'I' for Inactive)
REMARK    1  A    between atoms: C12_16  and  O3_3 
REMARK    2  A    between atoms: C2_6  and  C4_8 
REMARK    3  A    between atoms: C12_16  and  C4_8 
ROOT
HETATM    1  O1  UNK     1      27.967  -5.150  38.757  1.00  0.00    -0.275 OA
HETATM    2  O2  UNK     1      25.687  -5.072  38.925  1.00  0.00    -0.260 OA
HETATM    3  C1  UNK     1      29.062  -7.296  38.348  1.00  0.00     0.005 A 
HETATM    4  C2  UNK     1      27.741  -7.939  38.338  1.00  0.00    -0.029 A 
HETATM    5  C3  UNK     1      29.132  -5.918  38.558  1.00  0.00     0.090 A 
HETATM    6  C5  UNK     1      30.266  -7.986  38.157  1.00  0.00     0.015 A 
HETATM    7  C6  UNK     1      31.530  -5.932  38.391  1.00  0.00    -0.059 A 
HETATM    8  C7  UNK     1      30.345  -5.228  38.582  1.00  0.00     0.045 A 
HETATM    9  C8  UNK     1      26.650  -7.185  38.530  1.00  0.00     0.091 A 
HETATM   10  C9  UNK     1      31.491  -7.309  38.179  1.00  0.00     0.007 A 
HETATM   11  C10 UNK     1      26.708  -5.731  38.753  1.00  0.00     0.288 A 
HETATM   12  C11 UNK     1      32.837  -5.217  38.413  1.00  0.00     0.048 C 
ENDROOT
BRANCH   4  13
HETATM   13  C4  UNK     1      27.632  -9.420  38.115  1.00  0.00     0.149 C 
BRANCH  13  14
HETATM   14  C12 UNK     1      27.703 -10.147  39.429  1.00  0.00     0.143 C 
HETATM   15  O4  UNK     1      28.704 -10.578  39.981  1.00  0.00    -0.650 OA
BRANCH  14  16
HETATM   16  O3  UNK     1      26.451 -10.271  39.942  1.00  0.00    -0.776 OA
HETATM   17  H10 UNK     1      25.858  -9.553  39.635  1.00  0.00     0.167 HD
ENDBRANCH  14  16
ENDBRANCH  13  14
ENDBRANCH   4  13
TORSDOF 3
ENDMDL
MODEL 10
REMARK VINA RESULT:      -6.6      6.052      8.216
REMARK  3 active torsions:
REMARK  status: ('A' for Active; 'I' for Inactive)
REMARK    1  A    between atoms: C12_16  and  O3_3 
REMARK    2  A    between atoms: C2_6  and  C4_8 
REMARK    3  A    between atoms: C12_16  and  C4_8 
ROOT
HETATM    1  O1  UNK     1      16.002   6.670  32.141  1.00  0.00    -0.275 OA
HETATM    2  O2  UNK     1      13.761   6.777  31.695  1.00  0.00    -0.260 OA
HETATM    3  C1  UNK     1      17.083   8.536  33.290  1.00  0.00     0.005 A 
HETATM    4  C2  UNK     1      15.786   9.224  33.337  1.00  0.00    -0.029 A 
HETATM    5  C3  UNK     1      17.149   7.277  32.691  1.00  0.00     0.090 A 
HETATM    6  C5  UNK     1      18.267   9.069  33.814  1.00  0.00     0.015 A 
HETATM    7  C6  UNK     1      19.505   7.101  33.130  1.00  0.00    -0.059 A 
HETATM    8  C7  UNK     1      18.340   6.553  32.604  1.00  0.00     0.045 A 
HETATM    9  C8  UNK     1      14.711   8.624  32.806  1.00  0.00     0.091 A 
HETATM   10  C9  UNK     1      19.470   8.357  33.734  1.00  0.00     0.007 A 
HETATM   11  C10 UNK     1      14.765   7.297  32.171  1.00  0.00     0.288 A 
HETATM   12  C11 UNK     1      20.789   6.348  33.048  1.00  0.00     0.048 C 
ENDROOT
BRANCH   4  13
HETATM   13  C4  UNK     1      15.682  10.580  33.974  1.00  0.00     0.149 C 
BRANCH  13  14
HETATM   14  C12 UNK     1      14.541  10.604  34.954  1.00  0.00     0.143 C 
HETATM   15  O4  UNK     1      13.451  11.134  34.804  1.00  0.00    -0.650 OA
BRANCH  14  16
HETATM   16  O3  UNK     1      14.901   9.932  36.079  1.00  0.00    -0.776 OA
HETATM   17  H10 UNK     1      14.196   9.320  36.380  1.00  0.00     0.167 HD
ENDBRANCH  14  16
ENDBRANCH  13  14
ENDBRANCH   4  13
TORSDOF 3
ENDMDL
