MODEL 1
REMARK VINA RESULT:     -10.4      0.000      0.000
REMARK  4 active torsions:
REMARK  status: ('A' for Active; 'I' for Inactive)
REMARK    1  A    between atoms: C13_20  and  O3_4 
REMARK       I    between atoms: C14_21  and  N1_6 
REMARK    2  A    between atoms: C9_16  and  N1_6 
REMARK    3  A    between atoms: C3_10  and  C8_15 
REMARK    4  A    between atoms: C12_19  and  C14_21 
ROOT
HETATM    1  N2  UNK     1      19.944   5.939  29.655  1.00  0.00    -0.191 NA
HETATM    2  C8  UNK     1      17.821   4.811  32.188  1.00  0.00     0.045 C 
HETATM    3  C12 UNK     1      18.485   4.364  31.102  1.00  0.00     0.113 C 
HETATM    4  C19 UNK     1      19.288   5.235  30.307  1.00  0.00     0.105 C 
ENDROOT
BRANCH   3   5
HETATM    5  C14 UNK     1      18.332   2.896  30.763  1.00  0.00     0.266 C 
HETATM    6  O4  UNK     1      17.232   2.438  30.462  1.00  0.00    -0.267 OA
HETATM    7  N1  UNK     1      19.523   2.181  30.836  1.00  0.00    -0.320 N 
HETATM    8  H6  UNK     1      20.372   2.670  31.106  1.00  0.00     0.169 HD
BRANCH   7   9
HETATM    9  C9  UNK     1      19.716   0.799  30.580  1.00  0.00     0.068 A 
HETATM   10  C13 UNK     1      19.470  -0.128  31.579  1.00  0.00     0.095 A 
HETATM   11  C16 UNK     1      19.663  -1.483  31.312  1.00  0.00     0.039 A 
HETATM   12  C18 UNK     1      20.100  -1.891  30.052  1.00  0.00     0.003 A 
HETATM   13  C17 UNK     1      20.343  -0.943  29.058  1.00  0.00     0.002 A 
HETATM   14  C15 UNK     1      20.150   0.413  29.323  1.00  0.00     0.032 A 
BRANCH  10  15
HETATM   15  O3  UNK     1      19.045   0.251  32.817  1.00  0.00    -0.354 OA
HETATM   16  C20 UNK     1      18.497  -0.766  33.653  1.00  0.00     0.210 C 
ENDBRANCH  10  15
ENDBRANCH   7   9
ENDBRANCH   3   5
BRANCH   2  17
HETATM   17  C3  UNK     1      17.814   6.158  32.695  1.00  0.00     0.039 A 
HETATM   18  C4  UNK     1      16.596   7.004  32.574  1.00  0.00     0.197 A 
HETATM   19  C1  UNK     1      16.690   8.368  33.125  1.00  0.00     0.050 A 
HETATM   20  O2  UNK     1      15.565   6.602  32.049  1.00  0.00    -0.286 OA
HETATM   21  C2  UNK     1      17.885   8.783  33.715  1.00  0.00     0.089 A 
HETATM   22  C5  UNK     1      15.599   9.240  33.062  1.00  0.00     0.042 A 
HETATM   23  O1  UNK     1      18.987   7.970  33.806  1.00  0.00    -0.321 OA
HETATM   24  C6  UNK     1      17.995  10.069  34.243  1.00  0.00     0.040 A 
HETATM   25  C7  UNK     1      18.886   6.701  33.288  1.00  0.00     0.158 A 
HETATM   26  C11 UNK     1      16.908  10.940  34.180  1.00  0.00     0.026 A 
HETATM   27  C10 UNK     1      15.712  10.526  33.591  1.00  0.00     0.035 A 
HETATM   28 Cl1  UNK     1      14.374  11.606  33.516  1.00  0.00    -0.084 Cl
ENDBRANCH   2  17
TORSDOF 4
ENDMDL
MODEL 2
REMARK VINA RESULT:      -9.8      3.459      9.186
REMARK  4 active torsions:
REMARK  status: ('A' for Active; 'I' for Inactive)
REMARK    1  A    between atoms: C13_20  and  O3_4 
REMARK       I    between atoms: C14_21  and  N1_6 
REMARK    2  A    between atoms: C9_16  and  N1_6 
REMARK    3  A    between atoms: C3_10  and  C8_15 
REMARK    4  A    between atoms: C12_19  and  C14_21 
ROOT
HETATM    1  N2  UNK     1      20.555   5.698  30.464  1.00  0.00    -0.191 NA
HETATM    2  C8  UNK     1      17.958   3.779  31.793  1.00  0.00     0.045 C 
HETATM    3  C12 UNK     1      18.463   5.029  31.835  1.00  0.00     0.113 C 
HETATM    4  C19 UNK     1      19.616   5.394  31.077  1.00  0.00     0.105 C 
ENDROOT
BRANCH   3   5
HETATM    5  C14 UNK     1      17.752   6.025  32.727  1.00  0.00     0.266 C 
HETATM    6  O4  UNK     1      17.385   5.699  33.854  1.00  0.00    -0.267 OA
HETATM    7  N1  UNK     1      17.580   7.275  32.141  1.00  0.00    -0.320 N 
HETATM    8  H6  UNK     1      17.922   7.422  31.195  1.00  0.00     0.169 HD
BRANCH   7   9
HETATM    9  C9  UNK     1      16.958   8.415  32.710  1.00  0.00     0.068 A 
HETATM   10  C13 UNK     1      15.636   8.699  32.412  1.00  0.00     0.095 A 
HETATM   11  C16 UNK     1      15.037   9.823  32.979  1.00  0.00     0.039 A 
HETATM   12  C18 UNK     1      15.769  10.648  33.835  1.00  0.00     0.003 A 
HETATM   13  C17 UNK     1      17.100  10.346  34.123  1.00  0.00     0.002 A 
HETATM   14  C15 UNK     1      17.700   9.221  33.556  1.00  0.00     0.032 A 
BRANCH  10  15
HETATM   15  O3  UNK     1      14.904   7.907  31.578  1.00  0.00    -0.354 OA
HETATM   16  C20 UNK     1      13.826   7.177  32.159  1.00  0.00     0.210 C 
ENDBRANCH  10  15
ENDBRANCH   7   9
ENDBRANCH   3   5
BRANCH   2  17
HETATM   17  C3  UNK     1      18.466   2.674  31.024  1.00  0.00     0.039 A 
HETATM   18  C4  UNK     1      18.936   1.436  31.702  1.00  0.00     0.197 A 
HETATM   19  C1  UNK     1      19.437   0.361  30.827  1.00  0.00     0.050 A 
HETATM   20  O2  UNK     1      18.913   1.303  32.919  1.00  0.00    -0.286 OA
HETATM   21  C2  UNK     1      19.444   0.556  29.445  1.00  0.00     0.089 A 
HETATM   22  C5  UNK     1      19.900  -0.843  31.368  1.00  0.00     0.042 A 
HETATM   23  O1  UNK     1      19.001   1.715  28.860  1.00  0.00    -0.321 OA
HETATM   24  C6  UNK     1      19.914  -0.448  28.599  1.00  0.00     0.040 A 
HETATM   25  C7  UNK     1      18.537   2.709  29.686  1.00  0.00     0.158 A 
HETATM   26  C11 UNK     1      20.376  -1.649  29.136  1.00  0.00     0.026 A 
HETATM   27  C10 UNK     1      20.369  -1.845  30.518  1.00  0.00     0.035 A 
HETATM   28 Cl1  UNK     1      20.941  -3.330  31.176  1.00  0.00    -0.084 Cl
ENDBRANCH   2  17
TORSDOF 4
ENDMDL
MODEL 3
REMARK VINA RESULT:      -9.5      3.465      9.239
REMARK  4 active torsions:
REMARK  status: ('A' for Active; 'I' for Inactive)
REMARK    1  A    between atoms: C13_20  and  O3_4 
REMARK       I    between atoms: C14_21  and  N1_6 
REMARK    2  A    between atoms: C9_16  and  N1_6 
REMARK    3  A    between atoms: C3_10  and  C8_15 
REMARK    4  A    between atoms: C12_19  and  C14_21 
ROOT
HETATM    1  N2  UNK     1      20.441   5.807  30.750  1.00  0.00    -0.191 NA
HETATM    2  C8  UNK     1      17.837   3.824  31.963  1.00  0.00     0.045 C 
HETATM    3  C12 UNK     1      18.322   5.079  32.047  1.00  0.00     0.113 C 
HETATM    4  C19 UNK     1      19.491   5.477  31.330  1.00  0.00     0.105 C 
ENDROOT
BRANCH   3   5
HETATM    5  C14 UNK     1      17.573   6.045  32.941  1.00  0.00     0.266 C 
HETATM    6  O4  UNK     1      17.523   5.857  34.155  1.00  0.00    -0.267 OA
HETATM    7  N1  UNK     1      16.987   7.101  32.252  1.00  0.00    -0.320 N 
HETATM    8  H6  UNK     1      17.091   7.145  31.242  1.00  0.00     0.169 HD
BRANCH   7   9
HETATM    9  C9  UNK     1      16.223   8.166  32.795  1.00  0.00     0.068 A 
HETATM   10  C13 UNK     1      16.864   9.257  33.356  1.00  0.00     0.095 A 
HETATM   11  C16 UNK     1      16.100  10.297  33.885  1.00  0.00     0.039 A 
HETATM   12  C18 UNK     1      14.708  10.231  33.845  1.00  0.00     0.003 A 
HETATM   13  C17 UNK     1      14.079   9.123  33.275  1.00  0.00     0.002 A 
HETATM   14  C15 UNK     1      14.842   8.083  32.746  1.00  0.00     0.032 A 
BRANCH  10  15
HETATM   15  O3  UNK     1      18.224   9.341  33.406  1.00  0.00    -0.354 OA
HETATM   16  C20 UNK     1      18.780  10.538  33.944  1.00  0.00     0.210 C 
ENDBRANCH  10  15
ENDBRANCH   7   9
ENDBRANCH   3   5
BRANCH   2  17
HETATM   17  C3  UNK     1      18.381   2.743  31.185  1.00  0.00     0.039 A 
HETATM   18  C4  UNK     1      18.845   1.494  31.848  1.00  0.00     0.197 A 
HETATM   19  C1  UNK     1      19.386   0.446  30.963  1.00  0.00     0.050 A 
HETATM   20  O2  UNK     1      18.786   1.332  33.060  1.00  0.00    -0.286 OA
HETATM   21  C2  UNK     1      19.433   0.675  29.587  1.00  0.00     0.089 A 
HETATM   22  C5  UNK     1      19.846  -0.764  31.489  1.00  0.00     0.042 A 
HETATM   23  O1  UNK     1      18.995   1.843  29.016  1.00  0.00    -0.321 OA
HETATM   24  C6  UNK     1      19.941  -0.303  28.732  1.00  0.00     0.040 A 
HETATM   25  C7  UNK     1      18.493   2.811  29.851  1.00  0.00     0.158 A 
HETATM   26  C11 UNK     1      20.401  -1.511  29.256  1.00  0.00     0.026 A 
HETATM   27  C10 UNK     1      20.353  -1.741  30.632  1.00  0.00     0.035 A 
HETATM   28 Cl1  UNK     1      20.923  -3.234  31.271  1.00  0.00    -0.084 Cl
ENDBRANCH   2  17
TORSDOF 4
ENDMDL
MODEL 4
REMARK VINA RESULT:      -9.2     16.060     20.380
REMARK  4 active torsions:
REMARK  status: ('A' for Active; 'I' for Inactive)
REMARK    1  A    between atoms: C13_20  and  O3_4 
REMARK       I    between atoms: C14_21  and  N1_6 
REMARK    2  A    between atoms: C9_16  and  N1_6 
REMARK    3  A    between atoms: C3_10  and  C8_15 
REMARK    4  A    between atoms: C12_19  and  C14_21 
ROOT
HETATM    1  N2  UNK     1      21.517  -3.372  15.996  1.00  0.00    -0.191 NA
HETATM    2  C8  UNK     1      18.312  -2.672  14.800  1.00  0.00     0.045 C 
HETATM    3  C12 UNK     1      19.121  -2.401  15.844  1.00  0.00     0.113 C 
HETATM    4  C19 UNK     1      20.441  -2.938  15.924  1.00  0.00     0.105 C 
ENDROOT
BRANCH   3   5
HETATM    5  C14 UNK     1      18.562  -1.507  16.931  1.00  0.00     0.266 C 
HETATM    6  O4  UNK     1      17.353  -1.485  17.157  1.00  0.00    -0.267 OA
HETATM    7  N1  UNK     1      19.531  -0.763  17.593  1.00  0.00    -0.320 N 
HETATM    8  H6  UNK     1      20.502  -0.861  17.310  1.00  0.00     0.169 HD
BRANCH   7   9
HETATM    9  C9  UNK     1      19.335   0.161  18.652  1.00  0.00     0.068 A 
HETATM   10  C13 UNK     1      18.979   1.469  18.368  1.00  0.00     0.095 A 
HETATM   11  C16 UNK     1      18.789   2.366  19.418  1.00  0.00     0.039 A 
HETATM   12  C18 UNK     1      18.957   1.943  20.737  1.00  0.00     0.003 A 
HETATM   13  C17 UNK     1      19.316   0.621  21.004  1.00  0.00     0.002 A 
HETATM   14  C15 UNK     1      19.506  -0.277  19.954  1.00  0.00     0.032 A 
BRANCH  10  15
HETATM   15  O3  UNK     1      18.811   1.903  17.086  1.00  0.00    -0.354 OA
HETATM   16  C20 UNK     1      19.496   3.096  16.712  1.00  0.00     0.210 C 
ENDBRANCH  10  15
ENDBRANCH   7   9
ENDBRANCH   3   5
BRANCH   2  17
HETATM   17  C3  UNK     1      18.625  -3.494  13.661  1.00  0.00     0.039 A 
HETATM   18  C4  UNK     1      18.965  -2.873  12.352  1.00  0.00     0.197 A 
HETATM   19  C1  UNK     1      19.270  -3.801  11.248  1.00  0.00     0.050 A 
HETATM   20  O2  UNK     1      18.993  -1.660  12.187  1.00  0.00    -0.286 OA
HETATM   21  C2  UNK     1      19.227  -5.176  11.483  1.00  0.00     0.089 A 
HETATM   22  C5  UNK     1      19.602  -3.316   9.980  1.00  0.00     0.042 A 
HETATM   23  O1  UNK     1      18.908  -5.708  12.707  1.00  0.00    -0.321 OA
HETATM   24  C6  UNK     1      19.513  -6.071  10.452  1.00  0.00     0.040 A 
HETATM   25  C7  UNK     1      18.625  -4.833  13.727  1.00  0.00     0.158 A 
HETATM   26  C11 UNK     1      19.843  -5.589   9.186  1.00  0.00     0.026 A 
HETATM   27  C10 UNK     1      19.888  -4.214   8.951  1.00  0.00     0.035 A 
HETATM   28 Cl1  UNK     1      20.297  -3.625   7.386  1.00  0.00    -0.084 Cl
ENDBRANCH   2  17
TORSDOF 4
ENDMDL
MODEL 5
REMARK VINA RESULT:      -9.0      5.226      8.162
REMARK  4 active torsions:
REMARK  status: ('A' for Active; 'I' for Inactive)
REMARK    1  A    between atoms: C13_20  and  O3_4 
REMARK       I    between atoms: C14_21  and  N1_6 
REMARK    2  A    between atoms: C9_16  and  N1_6 
REMARK    3  A    between atoms: C3_10  and  C8_15 
REMARK    4  A    between atoms: C12_19  and  C14_21 
ROOT
HETATM    1  N2  UNK     1      21.139  -2.486  33.637  1.00  0.00    -0.191 NA
HETATM    2  C8  UNK     1      18.839  -1.062  35.844  1.00  0.00     0.045 C 
HETATM    3  C12 UNK     1      19.663  -2.123  35.733  1.00  0.00     0.113 C 
HETATM    4  C19 UNK     1      20.475  -2.319  34.576  1.00  0.00     0.105 C 
ENDROOT
BRANCH   3   5
HETATM    5  C14 UNK     1      19.682  -3.100  36.890  1.00  0.00     0.266 C 
HETATM    6  O4  UNK     1      19.629  -2.693  38.049  1.00  0.00    -0.267 OA
HETATM    7  N1  UNK     1      19.763  -4.431  36.494  1.00  0.00    -0.320 N 
HETATM    8  H6  UNK     1      19.810  -4.644  35.502  1.00  0.00     0.169 HD
BRANCH   7   9
HETATM    9  C9  UNK     1      19.800  -5.578  37.328  1.00  0.00     0.068 A 
HETATM   10  C13 UNK     1      18.792  -6.524  37.243  1.00  0.00     0.095 A 
HETATM   11  C16 UNK     1      18.842  -7.646  38.069  1.00  0.00     0.039 A 
HETATM   12  C18 UNK     1      19.897  -7.807  38.967  1.00  0.00     0.003 A 
HETATM   13  C17 UNK     1      20.903  -6.843  39.039  1.00  0.00     0.002 A 
HETATM   14  C15 UNK     1      20.855  -5.720  38.213  1.00  0.00     0.032 A 
BRANCH  10  15
HETATM   15  O3  UNK     1      17.752  -6.385  36.373  1.00  0.00    -0.354 OA
HETATM   16  C20 UNK     1      17.558  -7.431  35.424  1.00  0.00     0.210 C 
ENDBRANCH  10  15
ENDBRANCH   7   9
ENDBRANCH   3   5
BRANCH   2  17
HETATM   17  C3  UNK     1      18.653  -0.014  34.876  1.00  0.00     0.039 A 
HETATM   18  C4  UNK     1      18.677   1.414  35.294  1.00  0.00     0.197 A 
HETATM   19  C1  UNK     1      18.477   2.411  34.228  1.00  0.00     0.050 A 
HETATM   20  O2  UNK     1      18.853   1.755  36.457  1.00  0.00    -0.286 OA
HETATM   21  C2  UNK     1      18.281   1.976  32.917  1.00  0.00     0.089 A 
HETATM   22  C5  UNK     1      18.485   3.779  34.519  1.00  0.00     0.042 A 
HETATM   23  O1  UNK     1      18.266   0.648  32.573  1.00  0.00    -0.321 OA
HETATM   24  C6  UNK     1      18.091   2.903  31.892  1.00  0.00     0.040 A 
HETATM   25  C7  UNK     1      18.453  -0.272  33.576  1.00  0.00     0.158 A 
HETATM   26  C11 UNK     1      18.097   4.267  32.181  1.00  0.00     0.026 A 
HETATM   27  C10 UNK     1      18.294   4.704  33.493  1.00  0.00     0.035 A 
HETATM   28 Cl1  UNK     1      18.300   6.389  33.843  1.00  0.00    -0.084 Cl
ENDBRANCH   2  17
TORSDOF 4
ENDMDL
MODEL 6
REMARK VINA RESULT:      -9.0     15.991     20.643
REMARK  4 active torsions:
REMARK  status: ('A' for Active; 'I' for Inactive)
REMARK    1  A    between atoms: C13_20  and  O3_4 
REMARK       I    between atoms: C14_21  and  N1_6 
REMARK    2  A    between atoms: C9_16  and  N1_6 
REMARK    3  A    between atoms: C3_10  and  C8_15 
REMARK    4  A    between atoms: C12_19  and  C14_21 
ROOT
HETATM    1  N2  UNK     1      20.595  -1.630  13.485  1.00  0.00    -0.191 NA
HETATM    2  C8  UNK     1      19.223  -3.994  15.656  1.00  0.00     0.045 C 
HETATM    3  C12 UNK     1      19.314  -2.660  15.485  1.00  0.00     0.113 C 
HETATM    4  C19 UNK     1      20.021  -2.096  14.381  1.00  0.00     0.105 C 
ENDROOT
BRANCH   3   5
HETATM    5  C14 UNK     1      18.637  -1.788  16.522  1.00  0.00     0.266 C 
HETATM    6  O4  UNK     1      17.422  -1.861  16.698  1.00  0.00    -0.267 OA
HETATM    7  N1  UNK     1      19.513  -0.949  17.202  1.00  0.00    -0.320 N 
HETATM    8  H6  UNK     1      20.500  -0.973  16.961  1.00  0.00     0.169 HD
BRANCH   7   9
HETATM    9  C9  UNK     1      19.197  -0.018  18.224  1.00  0.00     0.068 A 
HETATM   10  C13 UNK     1      18.979   1.311  17.903  1.00  0.00     0.095 A 
HETATM   11  C16 UNK     1      18.667   2.214  18.919  1.00  0.00     0.039 A 
HETATM   12  C18 UNK     1      18.579   1.776  20.240  1.00  0.00     0.003 A 
HETATM   13  C17 UNK     1      18.802   0.433  20.545  1.00  0.00     0.002 A 
HETATM   14  C15 UNK     1      19.113  -0.472  19.529  1.00  0.00     0.032 A 
BRANCH  10  15
HETATM   15  O3  UNK     1      19.062   1.760  16.618  1.00  0.00    -0.354 OA
HETATM   16  C20 UNK     1      19.487   3.108  16.430  1.00  0.00     0.210 C 
ENDBRANCH  10  15
ENDBRANCH   7   9
ENDBRANCH   3   5
BRANCH   2  17
HETATM   17  C3  UNK     1      19.787  -5.009  14.807  1.00  0.00     0.039 A 
HETATM   18  C4  UNK     1      19.170  -5.319  13.489  1.00  0.00     0.197 A 
HETATM   19  C1  UNK     1      19.822  -6.375  12.693  1.00  0.00     0.050 A 
HETATM   20  O2  UNK     1      18.175  -4.737  13.075  1.00  0.00    -0.286 OA
HETATM   21  C2  UNK     1      20.954  -7.011  13.204  1.00  0.00     0.089 A 
HETATM   22  C5  UNK     1      19.318  -6.738  11.440  1.00  0.00     0.042 A 
HETATM   23  O1  UNK     1      21.491  -6.695  14.426  1.00  0.00    -0.321 OA
HETATM   24  C6  UNK     1      21.586  -8.013  12.467  1.00  0.00     0.040 A 
HETATM   25  C7  UNK     1      20.874  -5.710  15.158  1.00  0.00     0.158 A 
HETATM   26  C11 UNK     1      21.085  -8.376  11.218  1.00  0.00     0.026 A 
HETATM   27  C10 UNK     1      19.953  -7.740  10.705  1.00  0.00     0.035 A 
HETATM   28 Cl1  UNK     1      19.339  -8.194   9.162  1.00  0.00    -0.084 Cl
ENDBRANCH   2  17
TORSDOF 4
ENDMDL
MODEL 7
REMARK VINA RESULT:      -8.9      3.370      9.120
REMARK  4 active torsions:
REMARK  status: ('A' for Active; 'I' for Inactive)
REMARK    1  A    between atoms: C13_20  and  O3_4 
REMARK       I    between atoms: C14_21  and  N1_6 
REMARK    2  A    between atoms: C9_16  and  N1_6 
REMARK    3  A    between atoms: C3_10  and  C8_15 
REMARK    4  A    between atoms: C12_19  and  C14_21 
ROOT
HETATM    1  N2  UNK     1      21.018   6.185  32.963  1.00  0.00    -0.191 NA
HETATM    2  C8  UNK     1      17.672   5.451  32.290  1.00  0.00     0.045 C 
HETATM    3  C12 UNK     1      18.483   6.499  32.541  1.00  0.00     0.113 C 
HETATM    4  C19 UNK     1      19.880   6.322  32.773  1.00  0.00     0.105 C 
ENDROOT
BRANCH   3   5
HETATM    5  C14 UNK     1      17.841   7.870  32.572  1.00  0.00     0.266 C 
HETATM    6  O4  UNK     1      17.081   8.221  31.672  1.00  0.00    -0.267 OA
HETATM    7  N1  UNK     1      18.203   8.629  33.680  1.00  0.00    -0.320 N 
HETATM    8  H6  UNK     1      18.850   8.231  34.356  1.00  0.00     0.169 HD
BRANCH   7   9
HETATM    9  C9  UNK     1      17.778   9.944  34.000  1.00  0.00     0.068 A 
HETATM   10  C13 UNK     1      16.484  10.161  34.443  1.00  0.00     0.095 A 
HETATM   11  C16 UNK     1      16.081  11.459  34.754  1.00  0.00     0.039 A 
HETATM   12  C18 UNK     1      16.976  12.520  34.619  1.00  0.00     0.003 A 
HETATM   13  C17 UNK     1      18.276  12.282  34.171  1.00  0.00     0.002 A 
HETATM   14  C15 UNK     1      18.680  10.984  33.859  1.00  0.00     0.032 A 
BRANCH  10  15
HETATM   15  O3  UNK     1      15.594   9.138  34.581  1.00  0.00    -0.354 OA
HETATM   16  C20 UNK     1      14.265   9.369  34.118  1.00  0.00     0.210 C 
ENDBRANCH  10  15
ENDBRANCH   7   9
ENDBRANCH   3   5
BRANCH   2  17
HETATM   17  C3  UNK     1      18.056   4.066  32.216  1.00  0.00     0.039 A 
HETATM   18  C4  UNK     1      18.521   3.479  30.930  1.00  0.00     0.197 A 
HETATM   19  C1  UNK     1      18.891   2.052  30.958  1.00  0.00     0.050 A 
HETATM   20  O2  UNK     1      18.596   4.133  29.897  1.00  0.00    -0.286 OA
HETATM   21  C2  UNK     1      18.790   1.347  32.157  1.00  0.00     0.089 A 
HETATM   22  C5  UNK     1      19.341   1.409  29.801  1.00  0.00     0.042 A 
HETATM   23  O1  UNK     1      18.356   1.927  33.323  1.00  0.00    -0.321 OA
HETATM   24  C6  UNK     1      19.136  -0.003  32.206  1.00  0.00     0.040 A 
HETATM   25  C7  UNK     1      18.013   3.257  33.283  1.00  0.00     0.158 A 
HETATM   26  C11 UNK     1      19.584  -0.647  31.053  1.00  0.00     0.026 A 
HETATM   27  C10 UNK     1      19.687   0.059  29.853  1.00  0.00     0.035 A 
HETATM   28 Cl1  UNK     1      20.240  -0.742  28.433  1.00  0.00    -0.084 Cl
ENDBRANCH   2  17
TORSDOF 4
ENDMDL
MODEL 8
REMARK VINA RESULT:      -8.9      5.744      8.704
REMARK  4 active torsions:
REMARK  status: ('A' for Active; 'I' for Inactive)
REMARK    1  A    between atoms: C13_20  and  O3_4 
REMARK       I    between atoms: C14_21  and  N1_6 
REMARK    2  A    between atoms: C9_16  and  N1_6 
REMARK    3  A    between atoms: C3_10  and  C8_15 
REMARK    4  A    between atoms: C12_19  and  C14_21 
ROOT
HETATM    1  N2  UNK     1      21.902  -1.819  35.439  1.00  0.00    -0.191 NA
HETATM    2  C8  UNK     1      18.462  -1.887  36.033  1.00  0.00     0.045 C 
HETATM    3  C12 UNK     1      19.556  -2.670  36.129  1.00  0.00     0.113 C 
HETATM    4  C19 UNK     1      20.847  -2.197  35.748  1.00  0.00     0.105 C 
ENDROOT
BRANCH   3   5
HETATM    5  C14 UNK     1      19.349  -4.075  36.653  1.00  0.00     0.266 C 
HETATM    6  O4  UNK     1      18.220  -4.562  36.699  1.00  0.00    -0.267 OA
HETATM    7  N1  UNK     1      20.526  -4.700  37.051  1.00  0.00    -0.320 N 
HETATM    8  H6  UNK     1      21.401  -4.191  36.972  1.00  0.00     0.169 HD
BRANCH   7   9
HETATM    9  C9  UNK     1      20.670  -6.008  37.582  1.00  0.00     0.068 A 
HETATM   10  C13 UNK     1      20.966  -7.065  36.739  1.00  0.00     0.095 A 
HETATM   11  C16 UNK     1      21.106  -8.345  37.275  1.00  0.00     0.039 A 
HETATM   12  C18 UNK     1      20.949  -8.548  38.646  1.00  0.00     0.003 A 
HETATM   13  C17 UNK     1      20.651  -7.470  39.481  1.00  0.00     0.002 A 
HETATM   14  C15 UNK     1      20.511  -6.190  38.945  1.00  0.00     0.032 A 
BRANCH  10  15
HETATM   15  O3  UNK     1      21.122  -6.888  35.396  1.00  0.00    -0.354 OA
HETATM   16  C20 UNK     1      19.982  -7.126  34.574  1.00  0.00     0.210 C 
ENDBRANCH  10  15
ENDBRANCH   7   9
ENDBRANCH   3   5
BRANCH   2  17
HETATM   17  C3  UNK     1      18.417  -0.528  35.562  1.00  0.00     0.039 A 
HETATM   18  C4  UNK     1      18.426  -0.234  34.103  1.00  0.00     0.197 A 
HETATM   19  C1  UNK     1      18.377   1.189  33.723  1.00  0.00     0.050 A 
HETATM   20  O2  UNK     1      18.471  -1.116  33.254  1.00  0.00    -0.286 OA
HETATM   21  C2  UNK     1      18.327   2.160  34.724  1.00  0.00     0.089 A 
HETATM   22  C5  UNK     1      18.380   1.569  32.377  1.00  0.00     0.042 A 
HETATM   23  O1  UNK     1      18.321   1.846  36.059  1.00  0.00    -0.321 OA
HETATM   24  C6  UNK     1      18.280   3.512  34.386  1.00  0.00     0.040 A 
HETATM   25  C7  UNK     1      18.367   0.516  36.400  1.00  0.00     0.158 A 
HETATM   26  C11 UNK     1      18.283   3.892  33.044  1.00  0.00     0.026 A 
HETATM   27  C10 UNK     1      18.333   2.922  32.042  1.00  0.00     0.035 A 
HETATM   28 Cl1  UNK     1      18.337   3.398  30.388  1.00  0.00    -0.084 Cl
ENDBRANCH   2  17
TORSDOF 4
ENDMDL
MODEL 9
REMARK VINA RESULT:      -8.6      1.991      2.703
REMARK  4 active torsions:
REMARK  status: ('A' for Active; 'I' for Inactive)
REMARK    1  A    between atoms: C13_20  and  O3_4 
REMARK       I    between atoms: C14_21  and  N1_6 
REMARK    2  A    between atoms: C9_16  and  N1_6 
REMARK    3  A    between atoms: C3_10  and  C8_15 
REMARK    4  A    between atoms: C12_19  and  C14_21 
ROOT
HETATM    1  N2  UNK     1      18.239   2.987  34.566  1.00  0.00    -0.191 NA
HETATM    2  C8  UNK     1      18.037   4.372  31.367  1.00  0.00     0.045 C 
HETATM    3  C12 UNK     1      18.218   3.187  31.984  1.00  0.00     0.113 C 
HETATM    4  C19 UNK     1      18.229   3.081  33.408  1.00  0.00     0.105 C 
ENDROOT
BRANCH   3   5
HETATM    5  C14 UNK     1      18.415   1.976  31.097  1.00  0.00     0.266 C 
HETATM    6  O4  UNK     1      17.680   1.787  30.130  1.00  0.00    -0.267 OA
HETATM    7  N1  UNK     1      19.467   1.158  31.497  1.00  0.00    -0.320 N 
HETATM    8  H6  UNK     1      20.001   1.416  32.322  1.00  0.00     0.169 HD
BRANCH   7   9
HETATM    9  C9  UNK     1      19.908  -0.042  30.883  1.00  0.00     0.068 A 
HETATM   10  C13 UNK     1      19.980  -1.209  31.624  1.00  0.00     0.095 A 
HETATM   11  C16 UNK     1      20.413  -2.382  31.007  1.00  0.00     0.039 A 
HETATM   12  C18 UNK     1      20.769  -2.371  29.658  1.00  0.00     0.003 A 
HETATM   13  C17 UNK     1      20.690  -1.186  28.927  1.00  0.00     0.002 A 
HETATM   14  C15 UNK     1      20.256  -0.012  29.543  1.00  0.00     0.032 A 
BRANCH  10  15
HETATM   15  O3  UNK     1      19.638  -1.241  32.944  1.00  0.00    -0.354 OA
HETATM   16  C20 UNK     1      20.132  -2.335  33.714  1.00  0.00     0.210 C 
ENDBRANCH  10  15
ENDBRANCH   7   9
ENDBRANCH   3   5
BRANCH   2  17
HETATM   17  C3  UNK     1      17.836   5.648  32.001  1.00  0.00     0.039 A 
HETATM   18  C4  UNK     1      18.990   6.407  32.554  1.00  0.00     0.197 A 
HETATM   19  C1  UNK     1      18.679   7.704  33.183  1.00  0.00     0.050 A 
HETATM   20  O2  UNK     1      20.140   5.990  32.497  1.00  0.00    -0.286 OA
HETATM   21  C2  UNK     1      17.354   8.139  33.225  1.00  0.00     0.089 A 
HETATM   22  C5  UNK     1      19.695   8.492  33.732  1.00  0.00     0.042 A 
HETATM   23  O1  UNK     1      16.318   7.407  32.702  1.00  0.00    -0.321 OA
HETATM   24  C6  UNK     1      17.038   9.363  33.815  1.00  0.00     0.040 A 
HETATM   25  C7  UNK     1      16.621   6.201  32.119  1.00  0.00     0.158 A 
HETATM   26  C11 UNK     1      18.050  10.151  34.363  1.00  0.00     0.026 A 
HETATM   27  C10 UNK     1      19.376   9.716  34.321  1.00  0.00     0.035 A 
HETATM   28 Cl1  UNK     1      20.620  10.693  34.999  1.00  0.00    -0.084 Cl
ENDBRANCH   2  17
TORSDOF 4
ENDMDL
MODEL 10
REMARK VINA RESULT:      -8.6      1.587      2.106
REMARK  4 active torsions:
REMARK  status: ('A' for Active; 'I' for Inactive)
REMARK    1  A    between atoms: C13_20  and  O3_4 
REMARK       I    between atoms: C14_21  and  N1_6 
REMARK    2  A    between atoms: C9_16  and  N1_6 
REMARK    3  A    between atoms: C3_10  and  C8_15 
REMARK    4  A    between atoms: C12_19  and  C14_21 
ROOT
HETATM    1  N2  UNK     1      18.272   3.431  34.626  1.00  0.00    -0.191 NA
HETATM    2  C8  UNK     1      18.720   5.033  31.556  1.00  0.00     0.045 C 
HETATM    3  C12 UNK     1      18.424   3.822  32.071  1.00  0.00     0.113 C 
HETATM    4  C19 UNK     1      18.341   3.611  33.480  1.00  0.00     0.105 C 
ENDROOT
BRANCH   3   5
HETATM    5  C14 UNK     1      18.191   2.697  31.085  1.00  0.00     0.266 C 
HETATM    6  O4  UNK     1      17.068   2.495  30.626  1.00  0.00    -0.267 OA
HETATM    7  N1  UNK     1      19.338   1.969  30.789  1.00  0.00    -0.320 N 
HETATM    8  H6  UNK     1      20.211   2.227  31.240  1.00  0.00     0.169 HD
BRANCH   7   9
HETATM    9  C9  UNK     1      19.454   0.862  29.910  1.00  0.00     0.068 A 
HETATM   10  C13 UNK     1      20.243  -0.220  30.264  1.00  0.00     0.095 A 
HETATM   11  C16 UNK     1      20.346  -1.301  29.390  1.00  0.00     0.039 A 
HETATM   12  C18 UNK     1      19.661  -1.285  28.175  1.00  0.00     0.003 A 
HETATM   13  C17 UNK     1      18.871  -0.187  27.835  1.00  0.00     0.002 A 
HETATM   14  C15 UNK     1      18.767   0.895  28.709  1.00  0.00     0.032 A 
BRANCH  10  15
HETATM   15  O3  UNK     1      20.921  -0.254  31.446  1.00  0.00    -0.354 OA
HETATM   16  C20 UNK     1      20.901  -1.483  32.169  1.00  0.00     0.210 C 
ENDBRANCH  10  15
ENDBRANCH   7   9
ENDBRANCH   3   5
BRANCH   2  17
HETATM   17  C3  UNK     1      18.983   6.239  32.295  1.00  0.00     0.039 A 
HETATM   18  C4  UNK     1      17.912   7.253  32.491  1.00  0.00     0.197 A 
HETATM   19  C1  UNK     1      18.281   8.455  33.262  1.00  0.00     0.050 A 
HETATM   20  O2  UNK     1      16.781   7.111  32.042  1.00  0.00    -0.286 OA
HETATM   21  C2  UNK     1      19.581   8.573  33.754  1.00  0.00     0.089 A 
HETATM   22  C5  UNK     1      17.345   9.465  33.501  1.00  0.00     0.042 A 
HETATM   23  O1  UNK     1      20.540   7.614  33.551  1.00  0.00    -0.321 OA
HETATM   24  C6  UNK     1      19.952   9.701  34.486  1.00  0.00     0.040 A 
HETATM   25  C7  UNK     1      20.184   6.500  32.831  1.00  0.00     0.158 A 
HETATM   26  C11 UNK     1      19.020  10.710  34.726  1.00  0.00     0.026 A 
HETATM   27  C10 UNK     1      17.718  10.592  34.234  1.00  0.00     0.035 A 
HETATM   28 Cl1  UNK     1      16.572  11.841  34.533  1.00  0.00    -0.084 Cl
ENDBRANCH   2  17
TORSDOF 4
ENDMDL
