MODEL 1
REMARK VINA RESULT:      -9.0      0.000      0.000
REMARK  3 active torsions:
REMARK  status: ('A' for Active; 'I' for Inactive)
REMARK    1  A    between atoms: C3_8  and  N1_4 
REMARK       I    between atoms: C8_13  and  N1_4 
REMARK    2  A    between atoms: C3_8  and  C6_11 
REMARK    3  A    between atoms: C4_9  and  C8_13 
ROOT
HETATM    1  O1  UNK     1      19.049   0.655  31.689  1.00  0.00    -0.304 OA
HETATM    2  O2  UNK     1      20.617  -0.755  28.198  1.00  0.00    -0.287 OA
HETATM    3  C1  UNK     1      20.207  -1.120  30.498  1.00  0.00     0.048 A 
HETATM    4  C2  UNK     1      19.652  -0.579  31.659  1.00  0.00     0.090 A 
HETATM    5  C4  UNK     1      19.001   1.376  30.515  1.00  0.00     0.147 A 
HETATM    6  C5  UNK     1      20.149  -0.341  29.250  1.00  0.00     0.187 A 
HETATM    7  C7  UNK     1      19.493   0.979  29.335  1.00  0.00     0.098 A 
HETATM    8  C9  UNK     1      20.808  -2.381  30.525  1.00  0.00     0.018 A 
HETATM    9  C10 UNK     1      19.694  -1.297  32.854  1.00  0.00     0.038 A 
HETATM   10  C11 UNK     1      20.849  -3.097  31.722  1.00  0.00     0.001 A 
HETATM   11  C12 UNK     1      20.294  -2.557  32.884  1.00  0.00     0.003 A 
ENDROOT
BRANCH   5  12
HETATM   12  C8  UNK     1      18.354   2.688  30.568  1.00  0.00     0.275 C 
HETATM   13  O3  UNK     1      17.154   2.794  30.823  1.00  0.00    -0.265 OA
HETATM   14  N1  UNK     1      19.225   3.732  30.306  1.00  0.00    -0.351 N 
HETATM   15  H4  UNK     1      20.197   3.528  30.091  1.00  0.00     0.163 HD
BRANCH  14  16
HETATM   16  C3  UNK     1      18.818   5.119  30.298  1.00  0.00     0.161 C 
BRANCH  16  17
HETATM   17  C6  UNK     1      18.904   5.737  31.664  1.00  0.00    -0.038 A 
HETATM   18  C13 UNK     1      20.128   6.170  32.149  1.00  0.00     0.028 A 
HETATM   19  C15 UNK     1      20.153   6.731  33.414  1.00  0.00     0.116 A 
HETATM   20  N2  UNK     1      19.061   6.882  34.198  1.00  0.00    -0.273 NA
HETATM   21  C16 UNK     1      17.889   6.446  33.685  1.00  0.00     0.116 A 
HETATM   22  C14 UNK     1      17.757   5.870  32.431  1.00  0.00     0.028 A 
ENDBRANCH  16  17
ENDBRANCH  14  16
ENDBRANCH   5  12
TORSDOF 3
ENDMDL
MODEL 2
REMARK VINA RESULT:      -9.0      2.042      2.987
REMARK  3 active torsions:
REMARK  status: ('A' for Active; 'I' for Inactive)
REMARK    1  A    between atoms: C3_8  and  N1_4 
REMARK       I    between atoms: C8_13  and  N1_4 
REMARK    2  A    between atoms: C3_8  and  C6_11 
REMARK    3  A    between atoms: C4_9  and  C8_13 
ROOT
HETATM    1  O1  UNK     1      19.135   1.184  31.955  1.00  0.00    -0.304 OA
HETATM    2  O2  UNK     1      18.026   2.419  28.230  1.00  0.00    -0.287 OA
HETATM    3  C1  UNK     1      19.092   0.779  29.559  1.00  0.00     0.048 A 
HETATM    4  C2  UNK     1      19.442   0.414  30.860  1.00  0.00     0.090 A 
HETATM    5  C4  UNK     1      18.452   2.362  31.742  1.00  0.00     0.147 A 
HETATM    6  C5  UNK     1      18.362   2.040  29.343  1.00  0.00     0.187 A 
HETATM    7  C7  UNK     1      18.056   2.831  30.552  1.00  0.00     0.098 A 
HETATM    8  C9  UNK     1      19.431  -0.043  28.481  1.00  0.00     0.018 A 
HETATM    9  C10 UNK     1      20.134  -0.775  31.089  1.00  0.00     0.038 A 
HETATM   10  C11 UNK     1      20.123  -1.232  28.713  1.00  0.00     0.001 A 
HETATM   11  C12 UNK     1      20.474  -1.598  30.014  1.00  0.00     0.003 A 
ENDROOT
BRANCH   5  12
HETATM   12  C8  UNK     1      18.133   3.167  32.923  1.00  0.00     0.275 C 
HETATM   13  O3  UNK     1      17.838   2.634  33.993  1.00  0.00    -0.265 OA
HETATM   14  N1  UNK     1      18.201   4.529  32.685  1.00  0.00    -0.351 N 
HETATM   15  H4  UNK     1      18.440   4.860  31.754  1.00  0.00     0.163 HD
BRANCH  14  16
HETATM   16  C3  UNK     1      17.926   5.524  33.696  1.00  0.00     0.161 C 
BRANCH  16  17
HETATM   17  C6  UNK     1      17.159   6.690  33.143  1.00  0.00    -0.038 A 
HETATM   18  C13 UNK     1      17.177   6.943  31.781  1.00  0.00     0.028 A 
HETATM   19  C15 UNK     1      16.453   8.031  31.322  1.00  0.00     0.116 A 
HETATM   20  N2  UNK     1      15.735   8.854  32.120  1.00  0.00    -0.273 NA
HETATM   21  C16 UNK     1      15.746   8.569  33.442  1.00  0.00     0.116 A 
HETATM   22  C14 UNK     1      16.437   7.506  34.000  1.00  0.00     0.028 A 
ENDBRANCH  16  17
ENDBRANCH  14  16
ENDBRANCH   5  12
TORSDOF 3
ENDMDL
MODEL 3
REMARK VINA RESULT:      -8.7      2.194      7.263
REMARK  3 active torsions:
REMARK  status: ('A' for Active; 'I' for Inactive)
REMARK    1  A    between atoms: C3_8  and  N1_4 
REMARK       I    between atoms: C8_13  and  N1_4 
REMARK    2  A    between atoms: C3_8  and  C6_11 
REMARK    3  A    between atoms: C4_9  and  C8_13 
ROOT
HETATM    1  O1  UNK     1      17.622   4.855  32.419  1.00  0.00    -0.304 OA
HETATM    2  O2  UNK     1      21.330   6.476  31.911  1.00  0.00    -0.287 OA
HETATM    3  C1  UNK     1      19.248   6.555  33.031  1.00  0.00     0.048 A 
HETATM    4  C2  UNK     1      17.995   5.953  33.156  1.00  0.00     0.090 A 
HETATM    5  C4  UNK     1      18.535   4.341  31.523  1.00  0.00     0.147 A 
HETATM    6  C5  UNK     1      20.216   5.997  32.071  1.00  0.00     0.187 A 
HETATM    7  C7  UNK     1      19.766   4.818  31.303  1.00  0.00     0.098 A 
HETATM    8  C9  UNK     1      19.574   7.670  33.806  1.00  0.00     0.018 A 
HETATM    9  C10 UNK     1      17.062   6.463  34.058  1.00  0.00     0.038 A 
HETATM   10  C11 UNK     1      18.639   8.179  34.707  1.00  0.00     0.001 A 
HETATM   11  C12 UNK     1      17.385   7.577  34.833  1.00  0.00     0.003 A 
ENDROOT
BRANCH   5  12
HETATM   12  C8  UNK     1      18.117   3.171  30.748  1.00  0.00     0.275 C 
HETATM   13  O3  UNK     1      16.968   2.736  30.826  1.00  0.00    -0.265 OA
HETATM   14  N1  UNK     1      19.133   2.649  29.965  1.00  0.00    -0.351 N 
HETATM   15  H4  UNK     1      20.053   3.081  29.990  1.00  0.00     0.163 HD
BRANCH  14  16
HETATM   16  C3  UNK     1      18.962   1.493  29.115  1.00  0.00     0.161 C 
BRANCH  16  17
HETATM   17  C6  UNK     1      19.510   0.246  29.747  1.00  0.00    -0.038 A 
HETATM   18  C13 UNK     1      20.149  -0.700  28.962  1.00  0.00     0.028 A 
HETATM   19  C15 UNK     1      20.635  -1.833  29.593  1.00  0.00     0.116 A 
HETATM   20  N2  UNK     1      20.524  -2.067  30.920  1.00  0.00    -0.273 NA
HETATM   21  C16 UNK     1      19.893  -1.118  31.647  1.00  0.00     0.116 A 
HETATM   22  C14 UNK     1      19.371   0.049  31.112  1.00  0.00     0.028 A 
ENDBRANCH  16  17
ENDBRANCH  14  16
ENDBRANCH   5  12
TORSDOF 3
ENDMDL
MODEL 4
REMARK VINA RESULT:      -8.5      1.339      2.263
REMARK  3 active torsions:
REMARK  status: ('A' for Active; 'I' for Inactive)
REMARK    1  A    between atoms: C3_8  and  N1_4 
REMARK       I    between atoms: C8_13  and  N1_4 
REMARK    2  A    between atoms: C3_8  and  C6_11 
REMARK    3  A    between atoms: C4_9  and  C8_13 
ROOT
HETATM    1  O1  UNK     1      19.651   0.948  29.501  1.00  0.00    -0.304 OA
HETATM    2  O2  UNK     1      18.744   0.176  33.402  1.00  0.00    -0.287 OA
HETATM    3  C1  UNK     1      19.674  -0.604  31.372  1.00  0.00     0.048 A 
HETATM    4  C2  UNK     1      19.956  -0.275  30.045  1.00  0.00     0.090 A 
HETATM    5  C4  UNK     1      19.040   1.879  30.314  1.00  0.00     0.147 A 
HETATM    6  C5  UNK     1      19.021   0.398  32.231  1.00  0.00     0.187 A 
HETATM    7  C7  UNK     1      18.713   1.697  31.599  1.00  0.00     0.098 A 
HETATM    8  C9  UNK     1      20.006  -1.865  31.872  1.00  0.00     0.018 A 
HETATM    9  C10 UNK     1      20.574  -1.207  29.211  1.00  0.00     0.038 A 
HETATM   10  C11 UNK     1      20.624  -2.796  31.036  1.00  0.00     0.001 A 
HETATM   11  C12 UNK     1      20.907  -2.468  29.708  1.00  0.00     0.003 A 
ENDROOT
BRANCH   5  12
HETATM   12  C8  UNK     1      18.724   3.177  29.716  1.00  0.00     0.275 C 
HETATM   13  O3  UNK     1      18.087   3.253  28.664  1.00  0.00    -0.265 OA
HETATM   14  N1  UNK     1      19.213   4.245  30.449  1.00  0.00    -0.351 N 
HETATM   15  H4  UNK     1      19.742   4.066  31.298  1.00  0.00     0.163 HD
BRANCH  14  16
HETATM   16  C3  UNK     1      19.030   5.624  30.057  1.00  0.00     0.161 C 
BRANCH  16  17
HETATM   17  C6  UNK     1      18.666   6.496  31.224  1.00  0.00    -0.038 A 
HETATM   18  C13 UNK     1      19.542   6.622  32.289  1.00  0.00     0.028 A 
HETATM   19  C15 UNK     1      19.159   7.438  33.341  1.00  0.00     0.116 A 
HETATM   20  N2  UNK     1      17.989   8.114  33.387  1.00  0.00    -0.273 NA
HETATM   21  C16 UNK     1      17.165   7.961  32.326  1.00  0.00     0.116 A 
HETATM   22  C14 UNK     1      17.455   7.170  31.227  1.00  0.00     0.028 A 
ENDBRANCH  16  17
ENDBRANCH  14  16
ENDBRANCH   5  12
TORSDOF 3
ENDMDL
MODEL 5
REMARK VINA RESULT:      -8.4     14.203     16.506
REMARK  3 active torsions:
REMARK  status: ('A' for Active; 'I' for Inactive)
REMARK    1  A    between atoms: C3_8  and  N1_4 
REMARK       I    between atoms: C8_13  and  N1_4 
REMARK    2  A    between atoms: C3_8  and  C6_11 
REMARK    3  A    between atoms: C4_9  and  C8_13 
ROOT
HETATM    1  O1  UNK     1      19.476  -1.385  14.592  1.00  0.00    -0.304 OA
HETATM    2  O2  UNK     1      18.182  -4.982  13.173  1.00  0.00    -0.287 OA
HETATM    3  C1  UNK     1      19.483  -3.040  12.813  1.00  0.00     0.048 A 
HETATM    4  C2  UNK     1      19.888  -1.820  13.357  1.00  0.00     0.090 A 
HETATM    5  C4  UNK     1      18.627  -2.199  15.312  1.00  0.00     0.147 A 
HETATM    6  C5  UNK     1      18.576  -3.902  13.591  1.00  0.00     0.187 A 
HETATM    7  C7  UNK     1      18.162  -3.388  14.912  1.00  0.00     0.098 A 
HETATM    8  C9  UNK     1      19.933  -3.433  11.551  1.00  0.00     0.018 A 
HETATM    9  C10 UNK     1      20.746  -0.987  12.640  1.00  0.00     0.038 A 
HETATM   10  C11 UNK     1      20.791  -2.598  10.835  1.00  0.00     0.001 A 
HETATM   11  C12 UNK     1      21.197  -1.377  11.378  1.00  0.00     0.003 A 
ENDROOT
BRANCH   5  12
HETATM   12  C8  UNK     1      18.201  -1.716  16.627  1.00  0.00     0.275 C 
HETATM   13  O3  UNK     1      17.040  -1.860  17.010  1.00  0.00    -0.265 OA
HETATM   14  N1  UNK     1      19.222  -1.107  17.337  1.00  0.00    -0.351 N 
HETATM   15  H4  UNK     1      20.143  -1.028  16.916  1.00  0.00     0.163 HD
BRANCH  14  16
HETATM   16  C3  UNK     1      19.043  -0.550  18.658  1.00  0.00     0.161 C 
BRANCH  16  17
HETATM   17  C6  UNK     1      19.316   0.926  18.687  1.00  0.00    -0.038 A 
HETATM   18  C13 UNK     1      19.087   1.692  17.556  1.00  0.00     0.028 A 
HETATM   19  C15 UNK     1      19.356   3.048  17.634  1.00  0.00     0.116 A 
HETATM   20  N2  UNK     1      19.825   3.664  18.743  1.00  0.00    -0.273 NA
HETATM   21  C16 UNK     1      20.035   2.878  19.823  1.00  0.00     0.116 A 
HETATM   22  C14 UNK     1      19.798   1.513  19.847  1.00  0.00     0.028 A 
ENDBRANCH  16  17
ENDBRANCH  14  16
ENDBRANCH   5  12
TORSDOF 3
ENDMDL
MODEL 6
REMARK VINA RESULT:      -8.3     14.393     17.566
REMARK  3 active torsions:
REMARK  status: ('A' for Active; 'I' for Inactive)
REMARK    1  A    between atoms: C3_8  and  N1_4 
REMARK       I    between atoms: C8_13  and  N1_4 
REMARK    2  A    between atoms: C3_8  and  C6_11 
REMARK    3  A    between atoms: C4_9  and  C8_13 
ROOT
HETATM    1  O1  UNK     1      19.082   0.279  16.046  1.00  0.00    -0.304 OA
HETATM    2  O2  UNK     1      18.673  -0.393  20.048  1.00  0.00    -0.287 OA
HETATM    3  C1  UNK     1      19.089   1.159  18.312  1.00  0.00     0.048 A 
HETATM    4  C2  UNK     1      19.217   1.321  16.932  1.00  0.00     0.090 A 
HETATM    5  C4  UNK     1      18.809  -0.970  16.560  1.00  0.00     0.147 A 
HETATM    6  C5  UNK     1      18.797  -0.181  18.849  1.00  0.00     0.187 A 
HETATM    7  C7  UNK     1      18.662  -1.266  17.857  1.00  0.00     0.098 A 
HETATM    8  C9  UNK     1      19.237   2.254  19.167  1.00  0.00     0.018 A 
HETATM    9  C10 UNK     1      19.494   2.579  16.399  1.00  0.00     0.038 A 
HETATM   10  C11 UNK     1      19.514   3.512  18.631  1.00  0.00     0.001 A 
HETATM   11  C12 UNK     1      19.642   3.675  17.250  1.00  0.00     0.003 A 
ENDROOT
BRANCH   5  12
HETATM   12  C8  UNK     1      18.667  -2.066  15.599  1.00  0.00     0.275 C 
HETATM   13  O3  UNK     1      17.557  -2.499  15.288  1.00  0.00    -0.265 OA
HETATM   14  N1  UNK     1      19.882  -2.525  15.118  1.00  0.00    -0.351 N 
HETATM   15  H4  UNK     1      20.743  -2.103  15.456  1.00  0.00     0.163 HD
BRANCH  14  16
HETATM   16  C3  UNK     1      19.999  -3.601  14.161  1.00  0.00     0.161 C 
BRANCH  16  17
HETATM   17  C6  UNK     1      20.040  -3.096  12.748  1.00  0.00    -0.038 A 
HETATM   18  C13 UNK     1      20.857  -2.025  12.423  1.00  0.00     0.028 A 
HETATM   19  C15 UNK     1      20.857  -1.597  11.106  1.00  0.00     0.116 A 
HETATM   20  N2  UNK     1      20.114  -2.159  10.126  1.00  0.00    -0.273 NA
HETATM   21  C16 UNK     1      19.331  -3.201  10.489  1.00  0.00     0.116 A 
HETATM   22  C14 UNK     1      19.259  -3.705  11.778  1.00  0.00     0.028 A 
ENDBRANCH  16  17
ENDBRANCH  14  16
ENDBRANCH   5  12
TORSDOF 3
ENDMDL
MODEL 7
REMARK VINA RESULT:      -8.2      4.693      8.416
REMARK  3 active torsions:
REMARK  status: ('A' for Active; 'I' for Inactive)
REMARK    1  A    between atoms: C3_8  and  N1_4 
REMARK       I    between atoms: C8_13  and  N1_4 
REMARK    2  A    between atoms: C3_8  and  C6_11 
REMARK    3  A    between atoms: C4_9  and  C8_13 
ROOT
HETATM    1  O1  UNK     1      19.440  -0.576  32.822  1.00  0.00    -0.304 OA
HETATM    2  O2  UNK     1      21.193  -3.478  30.555  1.00  0.00    -0.287 OA
HETATM    3  C1  UNK     1      20.160  -1.352  30.634  1.00  0.00     0.048 A 
HETATM    4  C2  UNK     1      19.570  -0.399  31.466  1.00  0.00     0.090 A 
HETATM    5  C4  UNK     1      19.917  -1.750  33.366  1.00  0.00     0.147 A 
HETATM    6  C5  UNK     1      20.666  -2.602  31.227  1.00  0.00     0.187 A 
HETATM    7  C7  UNK     1      20.502  -2.744  32.687  1.00  0.00     0.098 A 
HETATM    8  C9  UNK     1      20.265  -1.119  29.261  1.00  0.00     0.018 A 
HETATM    9  C10 UNK     1      19.083   0.792  30.929  1.00  0.00     0.038 A 
HETATM   10  C11 UNK     1      19.777   0.073  28.726  1.00  0.00     0.001 A 
HETATM   11  C12 UNK     1      19.187   1.027  29.557  1.00  0.00     0.003 A 
ENDROOT
BRANCH   5  12
HETATM   12  C8  UNK     1      19.770  -1.918  34.813  1.00  0.00     0.275 C 
HETATM   13  O3  UNK     1      19.655  -0.944  35.558  1.00  0.00    -0.265 OA
HETATM   14  N1  UNK     1      19.778  -3.245  35.208  1.00  0.00    -0.351 N 
HETATM   15  H4  UNK     1      19.895  -3.972  34.507  1.00  0.00     0.163 HD
BRANCH  14  16
HETATM   16  C3  UNK     1      19.651  -3.662  36.586  1.00  0.00     0.161 C 
BRANCH  16  17
HETATM   17  C6  UNK     1      20.316  -4.984  36.837  1.00  0.00    -0.038 A 
HETATM   18  C13 UNK     1      21.145  -5.141  37.935  1.00  0.00     0.028 A 
HETATM   19  C15 UNK     1      21.736  -6.380  38.121  1.00  0.00     0.116 A 
HETATM   20  N2  UNK     1      21.550  -7.438  37.300  1.00  0.00    -0.273 NA
HETATM   21  C16 UNK     1      20.733  -7.240  36.240  1.00  0.00     0.116 A 
HETATM   22  C14 UNK     1      20.095  -6.040  35.966  1.00  0.00     0.028 A 
ENDBRANCH  16  17
ENDBRANCH  14  16
ENDBRANCH   5  12
TORSDOF 3
ENDMDL
MODEL 8
REMARK VINA RESULT:      -8.2     13.445     16.869
REMARK  3 active torsions:
REMARK  status: ('A' for Active; 'I' for Inactive)
REMARK    1  A    between atoms: C3_8  and  N1_4 
REMARK       I    between atoms: C8_13  and  N1_4 
REMARK    2  A    between atoms: C3_8  and  C6_11 
REMARK    3  A    between atoms: C4_9  and  C8_13 
ROOT
HETATM    1  O1  UNK     1      19.056   0.404  16.276  1.00  0.00    -0.304 OA
HETATM    2  O2  UNK     1      18.758  -0.254  20.290  1.00  0.00    -0.287 OA
HETATM    3  C1  UNK     1      19.171   1.282  18.540  1.00  0.00     0.048 A 
HETATM    4  C2  UNK     1      19.258   1.439  17.156  1.00  0.00     0.090 A 
HETATM    5  C4  UNK     1      18.755  -0.835  16.800  1.00  0.00     0.147 A 
HETATM    6  C5  UNK     1      18.849  -0.047  19.088  1.00  0.00     0.187 A 
HETATM    7  C7  UNK     1      18.641  -1.126  18.101  1.00  0.00     0.098 A 
HETATM    8  C9  UNK     1      19.387   2.370  19.389  1.00  0.00     0.018 A 
HETATM    9  C10 UNK     1      19.562   2.688  16.613  1.00  0.00     0.038 A 
HETATM   10  C11 UNK     1      19.691   3.618  18.843  1.00  0.00     0.001 A 
HETATM   11  C12 UNK     1      19.779   3.777  17.459  1.00  0.00     0.003 A 
ENDROOT
BRANCH   5  12
HETATM   12  C8  UNK     1      18.542  -1.924  15.845  1.00  0.00     0.275 C 
HETATM   13  O3  UNK     1      17.517  -2.606  15.877  1.00  0.00    -0.265 OA
HETATM   14  N1  UNK     1      19.591  -2.077  14.954  1.00  0.00    -0.351 N 
HETATM   15  H4  UNK     1      20.400  -1.466  15.028  1.00  0.00     0.163 HD
BRANCH  14  16
HETATM   16  C3  UNK     1      19.612  -3.087  13.921  1.00  0.00     0.161 C 
BRANCH  16  17
HETATM   17  C6  UNK     1      20.350  -4.320  14.355  1.00  0.00    -0.038 A 
HETATM   18  C13 UNK     1      20.216  -5.493  13.631  1.00  0.00     0.028 A 
HETATM   19  C15 UNK     1      20.917  -6.603  14.074  1.00  0.00     0.116 A 
HETATM   20  N2  UNK     1      21.718  -6.607  15.163  1.00  0.00    -0.273 NA
HETATM   21  C16 UNK     1      21.819  -5.440  15.839  1.00  0.00     0.116 A 
HETATM   22  C14 UNK     1      21.160  -4.276  15.479  1.00  0.00     0.028 A 
ENDBRANCH  16  17
ENDBRANCH  14  16
ENDBRANCH   5  12
TORSDOF 3
ENDMDL
MODEL 9
REMARK VINA RESULT:      -8.2      6.467      8.633
REMARK  3 active torsions:
REMARK  status: ('A' for Active; 'I' for Inactive)
REMARK    1  A    between atoms: C3_8  and  N1_4 
REMARK       I    between atoms: C8_13  and  N1_4 
REMARK    2  A    between atoms: C3_8  and  C6_11 
REMARK    3  A    between atoms: C4_9  and  C8_13 
ROOT
HETATM    1  O1  UNK     1      21.549  -4.742  37.541  1.00  0.00    -0.304 OA
HETATM    2  O2  UNK     1      18.255  -7.145  37.481  1.00  0.00    -0.287 OA
HETATM    3  C1  UNK     1      20.473  -6.809  38.229  1.00  0.00     0.048 A 
HETATM    4  C2  UNK     1      21.565  -5.941  38.210  1.00  0.00     0.090 A 
HETATM    5  C4  UNK     1      20.398  -4.397  36.866  1.00  0.00     0.147 A 
HETATM    6  C5  UNK     1      19.247  -6.431  37.505  1.00  0.00     0.187 A 
HETATM    7  C7  UNK     1      19.281  -5.133  36.801  1.00  0.00     0.098 A 
HETATM    8  C9  UNK     1      20.544  -8.017  38.927  1.00  0.00     0.018 A 
HETATM    9  C10 UNK     1      22.737  -6.277  38.888  1.00  0.00     0.038 A 
HETATM   10  C11 UNK     1      21.718  -8.352  39.604  1.00  0.00     0.001 A 
HETATM   11  C12 UNK     1      22.812  -7.484  39.585  1.00  0.00     0.003 A 
ENDROOT
BRANCH   5  12
HETATM   12  C8  UNK     1      20.401  -3.115  36.160  1.00  0.00     0.275 C 
HETATM   13  O3  UNK     1      21.447  -2.487  35.989  1.00  0.00    -0.265 OA
HETATM   14  N1  UNK     1      19.141  -2.725  35.738  1.00  0.00    -0.351 N 
HETATM   15  H4  UNK     1      18.341  -3.316  35.948  1.00  0.00     0.163 HD
BRANCH  14  16
HETATM   16  C3  UNK     1      18.892  -1.495  35.023  1.00  0.00     0.161 C 
BRANCH  16  17
HETATM   17  C6  UNK     1      18.554  -0.363  35.951  1.00  0.00    -0.038 A 
HETATM   18  C13 UNK     1      17.939  -0.627  37.163  1.00  0.00     0.028 A 
HETATM   19  C15 UNK     1      17.648   0.451  37.982  1.00  0.00     0.116 A 
HETATM   20  N2  UNK     1      17.929   1.736  37.670  1.00  0.00    -0.273 NA
HETATM   21  C16 UNK     1      18.530   1.947  36.477  1.00  0.00     0.116 A 
HETATM   22  C14 UNK     1      18.862   0.938  35.587  1.00  0.00     0.028 A 
ENDBRANCH  16  17
ENDBRANCH  14  16
ENDBRANCH   5  12
TORSDOF 3
ENDMDL
MODEL 10
REMARK VINA RESULT:      -8.2      2.231      7.025
REMARK  3 active torsions:
REMARK  status: ('A' for Active; 'I' for Inactive)
REMARK    1  A    between atoms: C3_8  and  N1_4 
REMARK       I    between atoms: C8_13  and  N1_4 
REMARK    2  A    between atoms: C3_8  and  C6_11 
REMARK    3  A    between atoms: C4_9  and  C8_13 
ROOT
HETATM    1  O1  UNK     1      18.046   3.602  31.978  1.00  0.00    -0.304 OA
HETATM    2  O2  UNK     1      19.823   6.440  29.650  1.00  0.00    -0.287 OA
HETATM    3  C1  UNK     1      18.756   5.909  31.693  1.00  0.00     0.048 A 
HETATM    4  C2  UNK     1      18.159   4.891  32.438  1.00  0.00     0.090 A 
HETATM    5  C4  UNK     1      18.548   3.320  30.726  1.00  0.00     0.147 A 
HETATM    6  C5  UNK     1      19.289   5.596  30.356  1.00  0.00     0.187 A 
HETATM    7  C7  UNK     1      19.142   4.196  29.907  1.00  0.00     0.098 A 
HETATM    8  C9  UNK     1      18.843   7.203  32.210  1.00  0.00     0.018 A 
HETATM    9  C10 UNK     1      17.647   5.163  33.707  1.00  0.00     0.038 A 
HETATM   10  C11 UNK     1      18.330   7.473  33.479  1.00  0.00     0.001 A 
HETATM   11  C12 UNK     1      17.733   6.455  34.226  1.00  0.00     0.003 A 
ENDROOT
BRANCH   5  12
HETATM   12  C8  UNK     1      18.419   1.939  30.255  1.00  0.00     0.275 C 
HETATM   13  O3  UNK     1      17.479   1.600  29.535  1.00  0.00    -0.265 OA
HETATM   14  N1  UNK     1      19.436   1.115  30.705  1.00  0.00    -0.351 N 
HETATM   15  H4  UNK     1      20.157   1.499  31.310  1.00  0.00     0.163 HD
BRANCH  14  16
HETATM   16  C3  UNK     1      19.522  -0.289  30.375  1.00  0.00     0.161 C 
BRANCH  16  17
HETATM   17  C6  UNK     1      19.811  -1.133  31.582  1.00  0.00    -0.038 A 
HETATM   18  C13 UNK     1      19.050  -0.979  32.729  1.00  0.00     0.028 A 
HETATM   19  C15 UNK     1      19.359  -1.782  33.815  1.00  0.00     0.116 A 
HETATM   20  N2  UNK     1      20.350  -2.700  33.820  1.00  0.00    -0.273 NA
HETATM   21  C16 UNK     1      21.067  -2.817  32.679  1.00  0.00     0.116 A 
HETATM   22  C14 UNK     1      20.839  -2.063  31.540  1.00  0.00     0.028 A 
ENDBRANCH  16  17
ENDBRANCH  14  16
ENDBRANCH   5  12
TORSDOF 3
ENDMDL
