MODEL 1
REMARK VINA RESULT:      -9.1      0.000      0.000
REMARK  7 active torsions:
REMARK  status: ('A' for Active; 'I' for Inactive)
REMARK    1  A    between atoms: C12_19  and  S1_3 
REMARK    2  A    between atoms: O1_4  and  S1_3 
REMARK    3  A    between atoms: C13_20  and  O1_4 
REMARK    4  A    between atoms: C1_8  and  C2_9 
REMARK    5  A    between atoms: C10_17  and  C7_14 
REMARK    6  A    between atoms: C11_18  and  C15_22 
REMARK    7  A    between atoms: C14_21  and  C15_22 
ROOT
HETATM    1  C11 UNK     1      18.754   4.984  32.530  1.00  0.00     0.014 A 
HETATM    2  C13 UNK     1      17.922   2.367  33.018  1.00  0.00     0.089 A 
HETATM    3  C16 UNK     1      18.484   4.569  33.834  1.00  0.00     0.018 A 
HETATM    4  C17 UNK     1      18.607   4.091  31.469  1.00  0.00     0.018 A 
HETATM    5  C18 UNK     1      18.069   3.260  34.079  1.00  0.00     0.039 A 
HETATM    6  C19 UNK     1      18.192   2.781  31.713  1.00  0.00     0.039 A 
ENDROOT
BRANCH   1   7
HETATM    7  C15 UNK     1      19.197   6.376  32.272  1.00  0.00     0.182 C 
HETATM    8  O4  UNK     1      18.752   6.986  31.306  1.00  0.00    -0.288 OA
BRANCH   7   9
HETATM    9  C14 UNK     1      20.203   6.965  33.199  1.00  0.00     0.056 C 
HETATM   10  C10 UNK     1      19.832   7.895  34.108  1.00  0.00     0.015 C 
BRANCH  10  11
HETATM   11  C7  UNK     1      18.481   8.405  34.281  1.00  0.00    -0.036 A 
HETATM   12  C8  UNK     1      18.141   9.663  33.780  1.00  0.00     0.012 A 
HETATM   13  C5  UNK     1      16.845  10.152  33.945  1.00  0.00     0.008 A 
HETATM   14  C2  UNK     1      15.889   9.384  34.611  1.00  0.00    -0.055 A 
HETATM   15  C6  UNK     1      16.229   8.127  35.111  1.00  0.00     0.008 A 
HETATM   16  C9  UNK     1      17.525   7.638  34.946  1.00  0.00     0.012 A 
BRANCH  14  17
HETATM   17  C1  UNK     1      14.504   9.906  34.788  1.00  0.00     0.010 C 
HETATM   18  C3  UNK     1      13.846  10.296  33.452  1.00  0.00     0.015 C 
HETATM   19  C4  UNK     1      14.443  11.094  35.767  1.00  0.00     0.015 C 
ENDBRANCH  14  17
ENDBRANCH  10  11
ENDBRANCH   7   9
ENDBRANCH   1   7
BRANCH   2  20
HETATM   20  O1  UNK     1      17.517   1.089  33.255  1.00  0.00    -0.229 OA
BRANCH  20  21
HETATM   21  S1  UNK     1      18.275   0.083  34.303  1.00  0.00     0.304 S 
HETATM   22  O2  UNK     1      17.295  -0.786  34.926  1.00  0.00    -0.193 OA
HETATM   23  O3  UNK     1      19.206   0.870  35.090  1.00  0.00    -0.193 OA
BRANCH  21  24
HETATM   24  C12 UNK     1      19.251  -0.968  33.270  1.00  0.00     0.110 A 
HETATM   25  C20 UNK     1      19.986  -2.035  33.787  1.00  0.00     0.058 A 
HETATM   26 Cl1  UNK     1      19.991  -2.407  35.474  1.00  0.00    -0.083 Cl
HETATM   27  C23 UNK     1      20.742  -2.839  32.934  1.00  0.00     0.027 A 
HETATM   28  C24 UNK     1      20.764  -2.575  31.564  1.00  0.00     0.025 A 
HETATM   29  C22 UNK     1      20.030  -1.508  31.048  1.00  0.00     0.035 A 
HETATM   30  C21 UNK     1      19.274  -0.704  31.901  1.00  0.00     0.051 A 
HETATM   31 Cl2  UNK     1      20.057  -1.184  29.358  1.00  0.00    -0.084 Cl
ENDBRANCH  21  24
ENDBRANCH  20  21
ENDBRANCH   2  20
TORSDOF 7
ENDMDL
MODEL 2
REMARK VINA RESULT:      -9.0     15.503     17.637
REMARK  7 active torsions:
REMARK  status: ('A' for Active; 'I' for Inactive)
REMARK    1  A    between atoms: C12_19  and  S1_3 
REMARK    2  A    between atoms: O1_4  and  S1_3 
REMARK    3  A    between atoms: C13_20  and  O1_4 
REMARK    4  A    between atoms: C1_8  and  C2_9 
REMARK    5  A    between atoms: C10_17  and  C7_14 
REMARK    6  A    between atoms: C11_18  and  C15_22 
REMARK    7  A    between atoms: C14_21  and  C15_22 
ROOT
HETATM    1  C11 UNK     1      29.274  -7.550  36.149  1.00  0.00     0.014 A 
HETATM    2  C13 UNK     1      29.198  -6.954  33.425  1.00  0.00     0.089 A 
HETATM    3  C16 UNK     1      30.363  -7.863  35.336  1.00  0.00     0.018 A 
HETATM    4  C17 UNK     1      28.147  -6.939  35.601  1.00  0.00     0.018 A 
HETATM    5  C18 UNK     1      30.326  -7.564  33.974  1.00  0.00     0.039 A 
HETATM    6  C19 UNK     1      28.109  -6.640  34.239  1.00  0.00     0.039 A 
ENDROOT
BRANCH   1   7
HETATM    7  C15 UNK     1      29.316  -7.866  37.598  1.00  0.00     0.182 C 
HETATM    8  O4  UNK     1      29.595  -9.002  37.964  1.00  0.00    -0.288 OA
BRANCH   7   9
HETATM    9  C14 UNK     1      28.978  -6.775  38.554  1.00  0.00     0.056 C 
HETATM   10  C10 UNK     1      29.804  -5.714  38.698  1.00  0.00     0.015 C 
BRANCH  10  11
HETATM   11  C7  UNK     1      31.053  -5.520  37.978  1.00  0.00    -0.036 A 
HETATM   12  C8  UNK     1      31.116  -4.606  36.925  1.00  0.00     0.012 A 
HETATM   13  C5  UNK     1      32.314  -4.419  36.236  1.00  0.00     0.008 A 
HETATM   14  C2  UNK     1      33.448  -5.146  36.598  1.00  0.00    -0.055 A 
HETATM   15  C6  UNK     1      33.385  -6.060  37.651  1.00  0.00     0.008 A 
HETATM   16  C9  UNK     1      32.187  -6.247  38.340  1.00  0.00     0.012 A 
BRANCH  14  17
HETATM   17  C1  UNK     1      34.728  -4.947  35.861  1.00  0.00     0.010 C 
HETATM   18  C3  UNK     1      34.546  -4.116  34.577  1.00  0.00     0.015 C 
HETATM   19  C4  UNK     1      35.428  -6.278  35.526  1.00  0.00     0.015 C 
ENDBRANCH  14  17
ENDBRANCH  10  11
ENDBRANCH   7   9
ENDBRANCH   1   7
BRANCH   2  20
HETATM   20  O1  UNK     1      29.161  -6.662  32.096  1.00  0.00    -0.229 OA
BRANCH  20  21
HETATM   21  S1  UNK     1      28.444  -7.625  30.981  1.00  0.00     0.304 S 
HETATM   22  O2  UNK     1      27.517  -6.836  30.193  1.00  0.00    -0.193 OA
HETATM   23  O3  UNK     1      28.034  -8.850  31.641  1.00  0.00    -0.193 OA
BRANCH  21  24
HETATM   24  C12 UNK     1      29.752  -8.062  29.876  1.00  0.00     0.110 A 
HETATM   25  C20 UNK     1      29.574  -8.993  28.853  1.00  0.00     0.058 A 
HETATM   26 Cl1  UNK     1      28.060  -9.782  28.591  1.00  0.00    -0.083 Cl
HETATM   27  C23 UNK     1      30.634  -9.307  28.004  1.00  0.00     0.027 A 
HETATM   28  C24 UNK     1      31.874  -8.691  28.178  1.00  0.00     0.025 A 
HETATM   29  C22 UNK     1      32.053  -7.761  29.201  1.00  0.00     0.035 A 
HETATM   30  C21 UNK     1      30.991  -7.447  30.051  1.00  0.00     0.051 A 
HETATM   31 Cl2  UNK     1      33.581  -7.001  29.414  1.00  0.00    -0.084 Cl
ENDBRANCH  21  24
ENDBRANCH  20  21
ENDBRANCH   2  20
TORSDOF 7
ENDMDL
MODEL 3
REMARK VINA RESULT:      -9.0      6.068      8.912
REMARK  7 active torsions:
REMARK  status: ('A' for Active; 'I' for Inactive)
REMARK    1  A    between atoms: C12_19  and  S1_3 
REMARK    2  A    between atoms: O1_4  and  S1_3 
REMARK    3  A    between atoms: C13_20  and  O1_4 
REMARK    4  A    between atoms: C1_8  and  C2_9 
REMARK    5  A    between atoms: C10_17  and  C7_14 
REMARK    6  A    between atoms: C11_18  and  C15_22 
REMARK    7  A    between atoms: C14_21  and  C15_22 
ROOT
HETATM    1  C11 UNK     1      19.279  -0.849  36.277  1.00  0.00     0.014 A 
HETATM    2  C13 UNK     1      19.847  -3.543  36.722  1.00  0.00     0.089 A 
HETATM    3  C16 UNK     1      20.497  -1.383  35.858  1.00  0.00     0.018 A 
HETATM    4  C17 UNK     1      18.345  -1.661  36.920  1.00  0.00     0.018 A 
HETATM    5  C18 UNK     1      20.781  -2.731  36.079  1.00  0.00     0.039 A 
HETATM    6  C19 UNK     1      18.629  -3.009  37.141  1.00  0.00     0.039 A 
ENDROOT
BRANCH   1   7
HETATM    7  C15 UNK     1      18.978   0.584  36.040  1.00  0.00     0.182 C 
HETATM    8  O4  UNK     1      19.857   1.424  36.195  1.00  0.00    -0.288 OA
BRANCH   7   9
HETATM    9  C14 UNK     1      17.585   0.942  35.648  1.00  0.00     0.056 C 
HETATM   10  C10 UNK     1      17.191   0.837  34.359  1.00  0.00     0.015 C 
BRANCH  10  11
HETATM   11  C7  UNK     1      18.030   0.388  33.260  1.00  0.00    -0.036 A 
HETATM   12  C8  UNK     1      18.594   1.319  32.386  1.00  0.00     0.012 A 
HETATM   13  C5  UNK     1      19.400   0.888  31.333  1.00  0.00     0.008 A 
HETATM   14  C2  UNK     1      19.642  -0.474  31.151  1.00  0.00    -0.055 A 
HETATM   15  C6  UNK     1      19.079  -1.405  32.025  1.00  0.00     0.008 A 
HETATM   16  C9  UNK     1      18.273  -0.974  33.078  1.00  0.00     0.012 A 
BRANCH  14  17
HETATM   17  C1  UNK     1      20.502  -0.935  30.025  1.00  0.00     0.010 C 
HETATM   18  C3  UNK     1      19.954  -0.506  28.651  1.00  0.00     0.015 C 
HETATM   19  C4  UNK     1      20.732  -2.458  30.044  1.00  0.00     0.015 C 
ENDBRANCH  14  17
ENDBRANCH  10  11
ENDBRANCH   7   9
ENDBRANCH   1   7
BRANCH   2  20
HETATM   20  O1  UNK     1      20.124  -4.859  36.939  1.00  0.00    -0.229 OA
BRANCH  20  21
HETATM   21  S1  UNK     1      19.590  -6.064  35.966  1.00  0.00     0.304 S 
HETATM   22  O2  UNK     1      20.151  -5.892  34.640  1.00  0.00    -0.193 OA
HETATM   23  O3  UNK     1      18.162  -6.214  36.177  1.00  0.00    -0.193 OA
BRANCH  21  24
HETATM   24  C12 UNK     1      20.351  -7.520  36.617  1.00  0.00     0.110 A 
HETATM   25  C20 UNK     1      20.455  -7.747  37.990  1.00  0.00     0.058 A 
HETATM   26 Cl1  UNK     1      19.844  -6.623  39.150  1.00  0.00    -0.083 Cl
HETATM   27  C23 UNK     1      21.064  -8.910  38.459  1.00  0.00     0.027 A 
HETATM   28  C24 UNK     1      21.569  -9.847  37.557  1.00  0.00     0.025 A 
HETATM   29  C22 UNK     1      21.466  -9.619  36.185  1.00  0.00     0.035 A 
HETATM   30  C21 UNK     1      20.857  -8.455  35.715  1.00  0.00     0.051 A 
HETATM   31 Cl2  UNK     1      22.088 -10.774  35.072  1.00  0.00    -0.084 Cl
ENDBRANCH  21  24
ENDBRANCH  20  21
ENDBRANCH   2  20
TORSDOF 7
ENDMDL
MODEL 4
REMARK VINA RESULT:      -9.0     25.277     27.919
REMARK  7 active torsions:
REMARK  status: ('A' for Active; 'I' for Inactive)
REMARK    1  A    between atoms: C12_19  and  S1_3 
REMARK    2  A    between atoms: O1_4  and  S1_3 
REMARK    3  A    between atoms: C13_20  and  O1_4 
REMARK    4  A    between atoms: C1_8  and  C2_9 
REMARK    5  A    between atoms: C10_17  and  C7_14 
REMARK    6  A    between atoms: C11_18  and  C15_22 
REMARK    7  A    between atoms: C14_21  and  C15_22 
ROOT
HETATM    1  C11 UNK     1      15.537   8.746   9.739  1.00  0.00     0.014 A 
HETATM    2  C13 UNK     1      16.498  10.838   8.164  1.00  0.00     0.089 A 
HETATM    3  C16 UNK     1      14.694   9.373   8.821  1.00  0.00     0.018 A 
HETATM    4  C17 UNK     1      16.861   9.166   9.870  1.00  0.00     0.018 A 
HETATM    5  C18 UNK     1      15.175  10.418   8.032  1.00  0.00     0.039 A 
HETATM    6  C19 UNK     1      17.342  10.211   9.081  1.00  0.00     0.039 A 
ENDROOT
BRANCH   1   7
HETATM    7  C15 UNK     1      15.026   7.633  10.575  1.00  0.00     0.182 C 
HETATM    8  O4  UNK     1      14.219   7.866  11.469  1.00  0.00    -0.288 OA
BRANCH   7   9
HETATM    9  C14 UNK     1      15.551   6.266  10.304  1.00  0.00     0.056 C 
HETATM   10  C10 UNK     1      14.853   5.408   9.526  1.00  0.00     0.015 C 
BRANCH  10  11
HETATM   11  C7  UNK     1      13.576   5.699   8.895  1.00  0.00    -0.036 A 
HETATM   12  C8  UNK     1      13.539   6.223   7.602  1.00  0.00     0.012 A 
HETATM   13  C5  UNK     1      12.314   6.501   6.997  1.00  0.00     0.008 A 
HETATM   14  C2  UNK     1      11.125   6.256   7.683  1.00  0.00    -0.055 A 
HETATM   15  C6  UNK     1      11.161   5.732   8.976  1.00  0.00     0.008 A 
HETATM   16  C9  UNK     1      12.386   5.454   9.582  1.00  0.00     0.012 A 
BRANCH  14  17
HETATM   17  C1  UNK     1       9.815   6.554   7.037  1.00  0.00     0.010 C 
HETATM   18  C3  UNK     1       8.630   5.921   7.789  1.00  0.00     0.015 C 
HETATM   19  C4  UNK     1       9.779   6.133   5.556  1.00  0.00     0.015 C 
ENDBRANCH  14  17
ENDBRANCH  10  11
ENDBRANCH   7   9
ENDBRANCH   1   7
BRANCH   2  20
HETATM   20  O1  UNK     1      16.968  11.859   7.394  1.00  0.00    -0.229 OA
BRANCH  20  21
HETATM   21  S1  UNK     1      16.430  13.401   7.517  1.00  0.00     0.304 S 
HETATM   22  O2  UNK     1      16.671  13.886   8.862  1.00  0.00    -0.193 OA
HETATM   23  O3  UNK     1      15.116  13.470   6.905  1.00  0.00    -0.193 OA
BRANCH  21  24
HETATM   24  C12 UNK     1      17.519  14.327   6.478  1.00  0.00     0.110 A 
HETATM   25  C20 UNK     1      17.413  15.712   6.346  1.00  0.00     0.058 A 
HETATM   26 Cl1  UNK     1      16.212  16.620   7.192  1.00  0.00    -0.083 Cl
HETATM   27  C23 UNK     1      18.294  16.402   5.514  1.00  0.00     0.027 A 
HETATM   28  C24 UNK     1      19.281  15.708   4.814  1.00  0.00     0.025 A 
HETATM   29  C22 UNK     1      19.387  14.323   4.945  1.00  0.00     0.035 A 
HETATM   30  C21 UNK     1      18.504  13.633   5.777  1.00  0.00     0.051 A 
HETATM   31 Cl2  UNK     1      20.605  13.468   4.082  1.00  0.00    -0.084 Cl
ENDBRANCH  21  24
ENDBRANCH  20  21
ENDBRANCH   2  20
TORSDOF 7
ENDMDL
MODEL 5
REMARK VINA RESULT:      -8.9     15.691     18.814
REMARK  7 active torsions:
REMARK  status: ('A' for Active; 'I' for Inactive)
REMARK    1  A    between atoms: C12_19  and  S1_3 
REMARK    2  A    between atoms: O1_4  and  S1_3 
REMARK    3  A    between atoms: C13_20  and  O1_4 
REMARK    4  A    between atoms: C1_8  and  C2_9 
REMARK    5  A    between atoms: C10_17  and  C7_14 
REMARK    6  A    between atoms: C11_18  and  C15_22 
REMARK    7  A    between atoms: C14_21  and  C15_22 
ROOT
HETATM    1  C11 UNK     1      35.288  -6.404  33.714  1.00  0.00     0.014 A 
HETATM    2  C13 UNK     1      34.183  -5.719  36.182  1.00  0.00     0.089 A 
HETATM    3  C16 UNK     1      34.839  -5.103  33.941  1.00  0.00     0.018 A 
HETATM    4  C17 UNK     1      35.184  -7.363  34.722  1.00  0.00     0.018 A 
HETATM    5  C18 UNK     1      34.288  -4.760  35.175  1.00  0.00     0.039 A 
HETATM    6  C19 UNK     1      34.632  -7.020  35.956  1.00  0.00     0.039 A 
ENDROOT
BRANCH   1   7
HETATM    7  C15 UNK     1      35.876  -6.768  32.402  1.00  0.00     0.182 C 
HETATM    8  O4  UNK     1      36.300  -5.888  31.662  1.00  0.00    -0.288 OA
BRANCH   7   9
HETATM    9  C14 UNK     1      35.892  -8.210  32.028  1.00  0.00     0.056 C 
HETATM   10  C10 UNK     1      34.817  -8.772  31.432  1.00  0.00     0.015 C 
BRANCH  10  11
HETATM   11  C7  UNK     1      33.582  -8.078  31.103  1.00  0.00    -0.036 A 
HETATM   12  C8  UNK     1      33.430  -7.479  29.852  1.00  0.00     0.012 A 
HETATM   13  C5  UNK     1      32.246  -6.814  29.536  1.00  0.00     0.008 A 
HETATM   14  C2  UNK     1      31.212  -6.747  30.470  1.00  0.00    -0.055 A 
HETATM   15  C6  UNK     1      31.364  -7.346  31.722  1.00  0.00     0.008 A 
HETATM   16  C9  UNK     1      32.548  -8.011  32.038  1.00  0.00     0.012 A 
BRANCH  14  17
HETATM   17  C1  UNK     1      29.947  -6.036  30.134  1.00  0.00     0.010 C 
HETATM   18  C3  UNK     1      29.782  -4.722  30.920  1.00  0.00     0.015 C 
HETATM   19  C4  UNK     1      28.702  -6.922  30.330  1.00  0.00     0.015 C 
ENDBRANCH  14  17
ENDBRANCH  10  11
ENDBRANCH   7   9
ENDBRANCH   1   7
BRANCH   2  20
HETATM   20  O1  UNK     1      33.645  -5.384  37.388  1.00  0.00    -0.229 OA
BRANCH  20  21
HETATM   21  S1  UNK     1      32.087  -4.917  37.580  1.00  0.00     0.304 S 
HETATM   22  O2  UNK     1      31.844  -3.725  36.791  1.00  0.00    -0.193 OA
HETATM   23  O3  UNK     1      31.772  -4.971  38.996  1.00  0.00    -0.193 OA
BRANCH  21  24
HETATM   24  C12 UNK     1      31.148  -6.198  36.806  1.00  0.00     0.110 A 
HETATM   25  C20 UNK     1      31.240  -7.529  37.212  1.00  0.00     0.058 A 
HETATM   26 Cl1  UNK     1      32.276  -8.019  38.505  1.00  0.00    -0.083 Cl
HETATM   27  C23 UNK     1      30.481  -8.508  36.572  1.00  0.00     0.027 A 
HETATM   28  C24 UNK     1      29.629  -8.156  35.525  1.00  0.00     0.025 A 
HETATM   29  C22 UNK     1      29.537  -6.825  35.118  1.00  0.00     0.035 A 
HETATM   30  C21 UNK     1      30.298  -5.846  35.758  1.00  0.00     0.051 A 
HETATM   31 Cl2  UNK     1      28.486  -6.391  33.827  1.00  0.00    -0.084 Cl
ENDBRANCH  21  24
ENDBRANCH  20  21
ENDBRANCH   2  20
TORSDOF 7
ENDMDL
MODEL 6
REMARK VINA RESULT:      -8.9     12.848     15.823
REMARK  7 active torsions:
REMARK  status: ('A' for Active; 'I' for Inactive)
REMARK    1  A    between atoms: C12_19  and  S1_3 
REMARK    2  A    between atoms: O1_4  and  S1_3 
REMARK    3  A    between atoms: C13_20  and  O1_4 
REMARK    4  A    between atoms: C1_8  and  C2_9 
REMARK    5  A    between atoms: C10_17  and  C7_14 
REMARK    6  A    between atoms: C11_18  and  C15_22 
REMARK    7  A    between atoms: C14_21  and  C15_22 
ROOT
HETATM    1  C11 UNK     1      28.164  -8.456  37.116  1.00  0.00     0.014 A 
HETATM    2  C13 UNK     1      25.684  -8.525  38.390  1.00  0.00     0.089 A 
HETATM    3  C16 UNK     1      28.000  -7.839  38.356  1.00  0.00     0.018 A 
HETATM    4  C17 UNK     1      27.088  -9.107  36.512  1.00  0.00     0.018 A 
HETATM    5  C18 UNK     1      26.760  -7.874  38.994  1.00  0.00     0.039 A 
HETATM    6  C19 UNK     1      25.848  -9.142  37.150  1.00  0.00     0.039 A 
ENDROOT
BRANCH   1   7
HETATM    7  C15 UNK     1      29.483  -8.420  36.439  1.00  0.00     0.182 C 
HETATM    8  O4  UNK     1      29.913  -9.428  35.890  1.00  0.00    -0.288 OA
BRANCH   7   9
HETATM    9  C14 UNK     1      30.251  -7.144  36.488  1.00  0.00     0.056 C 
HETATM   10  C10 UNK     1      30.293  -6.331  35.409  1.00  0.00     0.015 C 
BRANCH  10  11
HETATM   11  C7  UNK     1      29.632  -6.588  34.139  1.00  0.00    -0.036 A 
HETATM   12  C8  UNK     1      28.292  -6.239  33.966  1.00  0.00     0.012 A 
HETATM   13  C5  UNK     1      27.659  -6.485  32.749  1.00  0.00     0.008 A 
HETATM   14  C2  UNK     1      28.364  -7.080  31.703  1.00  0.00    -0.055 A 
HETATM   15  C6  UNK     1      29.704  -7.429  31.875  1.00  0.00     0.008 A 
HETATM   16  C9  UNK     1      30.338  -7.184  33.093  1.00  0.00     0.012 A 
BRANCH  14  17
HETATM   17  C1  UNK     1      27.688  -7.344  30.401  1.00  0.00     0.010 C 
HETATM   18  C3  UNK     1      26.249  -6.797  30.363  1.00  0.00     0.015 C 
HETATM   19  C4  UNK     1      27.689  -8.839  30.029  1.00  0.00     0.015 C 
ENDBRANCH  14  17
ENDBRANCH  10  11
ENDBRANCH   7   9
ENDBRANCH   1   7
BRANCH   2  20
HETATM   20  O1  UNK     1      24.473  -8.559  39.013  1.00  0.00    -0.229 OA
BRANCH  20  21
HETATM   21  S1  UNK     1      23.420  -7.305  39.005  1.00  0.00     0.304 S 
HETATM   22  O2  UNK     1      24.129  -6.086  38.665  1.00  0.00    -0.193 OA
HETATM   23  O3  UNK     1      22.596  -7.401  40.197  1.00  0.00    -0.193 OA
BRANCH  21  24
HETATM   24  C12 UNK     1      22.359  -7.634  37.631  1.00  0.00     0.110 A 
HETATM   25  C20 UNK     1      21.369  -6.736  37.230  1.00  0.00     0.058 A 
HETATM   26 Cl1  UNK     1      21.114  -5.236  38.048  1.00  0.00    -0.083 Cl
HETATM   27  C23 UNK     1      20.555  -7.037  36.140  1.00  0.00     0.027 A 
HETATM   28  C24 UNK     1      20.729  -8.237  35.449  1.00  0.00     0.025 A 
HETATM   29  C22 UNK     1      21.718  -9.135  35.850  1.00  0.00     0.035 A 
HETATM   30  C21 UNK     1      22.532  -8.834  36.942  1.00  0.00     0.051 A 
HETATM   31 Cl2  UNK     1      21.932 -10.614  34.997  1.00  0.00    -0.084 Cl
ENDBRANCH  21  24
ENDBRANCH  20  21
ENDBRANCH   2  20
TORSDOF 7
ENDMDL
MODEL 7
REMARK VINA RESULT:      -8.9     24.969     27.558
REMARK  7 active torsions:
REMARK  status: ('A' for Active; 'I' for Inactive)
REMARK    1  A    between atoms: C12_19  and  S1_3 
REMARK    2  A    between atoms: O1_4  and  S1_3 
REMARK    3  A    between atoms: C13_20  and  O1_4 
REMARK    4  A    between atoms: C1_8  and  C2_9 
REMARK    5  A    between atoms: C10_17  and  C7_14 
REMARK    6  A    between atoms: C11_18  and  C15_22 
REMARK    7  A    between atoms: C14_21  and  C15_22 
ROOT
HETATM    1  C11 UNK     1      15.588   8.537   9.814  1.00  0.00     0.014 A 
HETATM    2  C13 UNK     1      16.906  10.867   9.031  1.00  0.00     0.089 A 
HETATM    3  C16 UNK     1      16.792   8.895  10.422  1.00  0.00     0.018 A 
HETATM    4  C17 UNK     1      15.044   9.343   8.815  1.00  0.00     0.018 A 
HETATM    5  C18 UNK     1      17.451  10.061  10.030  1.00  0.00     0.039 A 
HETATM    6  C19 UNK     1      15.702  10.509   8.424  1.00  0.00     0.039 A 
ENDROOT
BRANCH   1   7
HETATM    7  C15 UNK     1      14.888   7.298  10.232  1.00  0.00     0.182 C 
HETATM    8  O4  UNK     1      13.935   7.367  11.000  1.00  0.00    -0.288 OA
BRANCH   7   9
HETATM    9  C14 UNK     1      15.408   6.001   9.713  1.00  0.00     0.056 C 
HETATM   10  C10 UNK     1      14.663   5.258   8.864  1.00  0.00     0.015 C 
BRANCH  10  11
HETATM   11  C7  UNK     1      13.338   5.613   8.382  1.00  0.00    -0.036 A 
HETATM   12  C8  UNK     1      12.204   5.094   9.009  1.00  0.00     0.012 A 
HETATM   13  C5  UNK     1      10.934   5.435   8.547  1.00  0.00     0.008 A 
HETATM   14  C2  UNK     1      10.795   6.296   7.458  1.00  0.00    -0.055 A 
HETATM   15  C6  UNK     1      11.928   6.815   6.831  1.00  0.00     0.008 A 
HETATM   16  C9  UNK     1      13.199   6.474   7.293  1.00  0.00     0.012 A 
BRANCH  14  17
HETATM   17  C1  UNK     1       9.437   6.660   6.962  1.00  0.00     0.010 C 
HETATM   18  C3  UNK     1       8.317   5.909   7.706  1.00  0.00     0.015 C 
HETATM   19  C4  UNK     1       9.288   6.451   5.444  1.00  0.00     0.015 C 
ENDBRANCH  14  17
ENDBRANCH  10  11
ENDBRANCH   7   9
ENDBRANCH   1   7
BRANCH   2  20
HETATM   20  O1  UNK     1      17.549  12.006   8.649  1.00  0.00    -0.229 OA
BRANCH  20  21
HETATM   21  S1  UNK     1      19.150  12.066   8.308  1.00  0.00     0.304 S 
HETATM   22  O2  UNK     1      19.533  10.861   7.597  1.00  0.00    -0.193 OA
HETATM   23  O3  UNK     1      19.849  12.500   9.504  1.00  0.00    -0.193 OA
BRANCH  21  24
HETATM   24  C12 UNK     1      19.297  13.377   7.133  1.00  0.00     0.110 A 
HETATM   25  C20 UNK     1      20.537  13.814   6.666  1.00  0.00     0.058 A 
HETATM   26 Cl1  UNK     1      22.016  13.100   7.201  1.00  0.00    -0.083 Cl
HETATM   27  C23 UNK     1      20.606  14.852   5.738  1.00  0.00     0.027 A 
HETATM   28  C24 UNK     1      19.435  15.455   5.277  1.00  0.00     0.025 A 
HETATM   29  C22 UNK     1      18.195  15.020   5.745  1.00  0.00     0.035 A 
HETATM   30  C21 UNK     1      18.127  13.980   6.674  1.00  0.00     0.051 A 
HETATM   31 Cl2  UNK     1      16.752  15.763   5.176  1.00  0.00    -0.084 Cl
ENDBRANCH  21  24
ENDBRANCH  20  21
ENDBRANCH   2  20
TORSDOF 7
ENDMDL
MODEL 8
REMARK VINA RESULT:      -8.8     24.136     26.745
REMARK  7 active torsions:
REMARK  status: ('A' for Active; 'I' for Inactive)
REMARK    1  A    between atoms: C12_19  and  S1_3 
REMARK    2  A    between atoms: O1_4  and  S1_3 
REMARK    3  A    between atoms: C13_20  and  O1_4 
REMARK    4  A    between atoms: C1_8  and  C2_9 
REMARK    5  A    between atoms: C10_17  and  C7_14 
REMARK    6  A    between atoms: C11_18  and  C15_22 
REMARK    7  A    between atoms: C14_21  and  C15_22 
ROOT
HETATM    1  C11 UNK     1      15.622   8.676   9.706  1.00  0.00     0.014 A 
HETATM    2  C13 UNK     1      16.629  10.950   8.444  1.00  0.00     0.089 A 
HETATM    3  C16 UNK     1      14.768   9.508   8.982  1.00  0.00     0.018 A 
HETATM    4  C17 UNK     1      16.980   8.981   9.800  1.00  0.00     0.018 A 
HETATM    5  C18 UNK     1      15.272  10.645   8.350  1.00  0.00     0.039 A 
HETATM    6  C19 UNK     1      17.483  10.118   9.167  1.00  0.00     0.039 A 
ENDROOT
BRANCH   1   7
HETATM    7  C15 UNK     1      15.086   7.466  10.376  1.00  0.00     0.182 C 
HETATM    8  O4  UNK     1      14.248   7.584  11.263  1.00  0.00    -0.288 OA
BRANCH   7   9
HETATM    9  C14 UNK     1      15.626   6.144   9.953  1.00  0.00     0.056 C 
HETATM   10  C10 UNK     1      14.907   5.343   9.135  1.00  0.00     0.015 C 
BRANCH  10  11
HETATM   11  C7  UNK     1      13.591   5.657   8.599  1.00  0.00    -0.036 A 
HETATM   12  C8  UNK     1      12.444   5.247   9.280  1.00  0.00     0.012 A 
HETATM   13  C5  UNK     1      11.183   5.548   8.767  1.00  0.00     0.008 A 
HETATM   14  C2  UNK     1      11.068   6.260   7.573  1.00  0.00    -0.055 A 
HETATM   15  C6  UNK     1      12.215   6.670   6.892  1.00  0.00     0.008 A 
HETATM   16  C9  UNK     1      13.476   6.369   7.405  1.00  0.00     0.012 A 
BRANCH  14  17
HETATM   17  C1  UNK     1       9.720   6.582   7.023  1.00  0.00     0.010 C 
HETATM   18  C3  UNK     1       8.586   5.893   7.804  1.00  0.00     0.015 C 
HETATM   19  C4  UNK     1       9.600   6.249   5.524  1.00  0.00     0.015 C 
ENDBRANCH  14  17
ENDBRANCH  10  11
ENDBRANCH   7   9
ENDBRANCH   1   7
BRANCH   2  20
HETATM   20  O1  UNK     1      17.121  12.060   7.827  1.00  0.00    -0.229 OA
BRANCH  20  21
HETATM   21  S1  UNK     1      17.755  13.335   8.637  1.00  0.00     0.304 S 
HETATM   22  O2  UNK     1      17.228  13.353   9.988  1.00  0.00    -0.193 OA
HETATM   23  O3  UNK     1      17.681  14.500   7.774  1.00  0.00    -0.193 OA
BRANCH  21  24
HETATM   24  C12 UNK     1      19.469  12.939   8.802  1.00  0.00     0.110 A 
HETATM   25  C20 UNK     1      20.314  12.841   7.696  1.00  0.00     0.058 A 
HETATM   26 Cl1  UNK     1      19.744  13.104   6.087  1.00  0.00    -0.083 Cl
HETATM   27  C23 UNK     1      21.661  12.526   7.873  1.00  0.00     0.027 A 
HETATM   28  C24 UNK     1      22.163  12.308   9.156  1.00  0.00     0.025 A 
HETATM   29  C22 UNK     1      21.319  12.405  10.262  1.00  0.00     0.035 A 
HETATM   30  C21 UNK     1      19.971  12.720  10.084  1.00  0.00     0.051 A 
HETATM   31 Cl2  UNK     1      21.940  12.137  11.844  1.00  0.00    -0.084 Cl
ENDBRANCH  21  24
ENDBRANCH  20  21
ENDBRANCH   2  20
TORSDOF 7
ENDMDL
MODEL 9
REMARK VINA RESULT:      -8.8     16.567     18.533
REMARK  7 active torsions:
REMARK  status: ('A' for Active; 'I' for Inactive)
REMARK    1  A    between atoms: C12_19  and  S1_3 
REMARK    2  A    between atoms: O1_4  and  S1_3 
REMARK    3  A    between atoms: C13_20  and  O1_4 
REMARK    4  A    between atoms: C1_8  and  C2_9 
REMARK    5  A    between atoms: C10_17  and  C7_14 
REMARK    6  A    between atoms: C11_18  and  C15_22 
REMARK    7  A    between atoms: C14_21  and  C15_22 
ROOT
HETATM    1  C11 UNK     1      34.020  -6.014  34.232  1.00  0.00     0.014 A 
HETATM    2  C13 UNK     1      33.655  -7.728  32.062  1.00  0.00     0.089 A 
HETATM    3  C16 UNK     1      35.089  -6.302  33.383  1.00  0.00     0.018 A 
HETATM    4  C17 UNK     1      32.769  -6.583  33.997  1.00  0.00     0.018 A 
HETATM    5  C18 UNK     1      34.906  -7.158  32.297  1.00  0.00     0.039 A 
HETATM    6  C19 UNK     1      32.586  -7.440  32.911  1.00  0.00     0.039 A 
ENDROOT
BRANCH   1   7
HETATM    7  C15 UNK     1      34.215  -5.102  35.386  1.00  0.00     0.182 C 
HETATM    8  O4  UNK     1      33.677  -4.000  35.387  1.00  0.00    -0.288 OA
BRANCH   7   9
HETATM    9  C14 UNK     1      35.099  -5.566  36.492  1.00  0.00     0.056 C 
HETATM   10  C10 UNK     1      34.577  -6.224  37.551  1.00  0.00     0.015 C 
BRANCH  10  11
HETATM   11  C7  UNK     1      33.169  -6.542  37.730  1.00  0.00    -0.036 A 
HETATM   12  C8  UNK     1      32.283  -5.561  38.176  1.00  0.00     0.012 A 
HETATM   13  C5  UNK     1      30.932  -5.865  38.346  1.00  0.00     0.008 A 
HETATM   14  C2  UNK     1      30.467  -7.151  38.070  1.00  0.00    -0.055 A 
HETATM   15  C6  UNK     1      31.353  -8.133  37.623  1.00  0.00     0.008 A 
HETATM   16  C9  UNK     1      32.703  -7.828  37.453  1.00  0.00     0.012 A 
BRANCH  14  17
HETATM   17  C1  UNK     1      29.024  -7.478  38.252  1.00  0.00     0.010 C 
HETATM   18  C3  UNK     1      28.357  -6.613  39.338  1.00  0.00     0.015 C 
HETATM   19  C4  UNK     1      28.791  -8.970  38.557  1.00  0.00     0.015 C 
ENDBRANCH  14  17
ENDBRANCH  10  11
ENDBRANCH   7   9
ENDBRANCH   1   7
BRANCH   2  20
HETATM   20  O1  UNK     1      33.476  -8.563  31.002  1.00  0.00    -0.229 OA
BRANCH  20  21
HETATM   21  S1  UNK     1      32.638  -8.148  29.657  1.00  0.00     0.304 S 
HETATM   22  O2  UNK     1      32.879  -9.132  28.620  1.00  0.00    -0.193 OA
HETATM   23  O3  UNK     1      32.836  -6.729  29.424  1.00  0.00    -0.193 OA
BRANCH  21  24
HETATM   24  C12 UNK     1      30.945  -8.352  30.119  1.00  0.00     0.110 A 
HETATM   25  C20 UNK     1      30.467  -9.544  30.664  1.00  0.00     0.058 A 
HETATM   26 Cl1  UNK     1      31.498 -10.904  30.929  1.00  0.00    -0.083 Cl
HETATM   27  C23 UNK     1      29.122  -9.660  31.014  1.00  0.00     0.027 A 
HETATM   28  C24 UNK     1      28.254  -8.585  30.819  1.00  0.00     0.025 A 
HETATM   29  C22 UNK     1      28.732  -7.394  30.273  1.00  0.00     0.035 A 
HETATM   30  C21 UNK     1      30.077  -7.278  29.923  1.00  0.00     0.051 A 
HETATM   31 Cl2  UNK     1      27.662  -6.068  30.034  1.00  0.00    -0.084 Cl
ENDBRANCH  21  24
ENDBRANCH  20  21
ENDBRANCH   2  20
TORSDOF 7
ENDMDL
MODEL 10
REMARK VINA RESULT:      -8.8     16.165     18.175
REMARK  7 active torsions:
REMARK  status: ('A' for Active; 'I' for Inactive)
REMARK    1  A    between atoms: C12_19  and  S1_3 
REMARK    2  A    between atoms: O1_4  and  S1_3 
REMARK    3  A    between atoms: C13_20  and  O1_4 
REMARK    4  A    between atoms: C1_8  and  C2_9 
REMARK    5  A    between atoms: C10_17  and  C7_14 
REMARK    6  A    between atoms: C11_18  and  C15_22 
REMARK    7  A    between atoms: C14_21  and  C15_22 
ROOT
HETATM    1  C11 UNK     1      30.645 -10.216  33.577  1.00  0.00     0.014 A 
HETATM    2  C13 UNK     1      31.312 -10.194  30.868  1.00  0.00     0.089 A 
HETATM    3  C16 UNK     1      29.845 -10.892  32.656  1.00  0.00     0.018 A 
HETATM    4  C17 UNK     1      31.779  -9.528  33.143  1.00  0.00     0.018 A 
HETATM    5  C18 UNK     1      30.178 -10.882  31.301  1.00  0.00     0.039 A 
HETATM    6  C19 UNK     1      32.112  -9.518  31.789  1.00  0.00     0.039 A 
ENDROOT
BRANCH   1   7
HETATM    7  C15 UNK     1      30.290 -10.228  35.017  1.00  0.00     0.182 C 
HETATM    8  O4  UNK     1      31.104 -10.632  35.840  1.00  0.00    -0.288 OA
BRANCH   7   9
HETATM    9  C14 UNK     1      28.924  -9.771  35.396  1.00  0.00     0.056 C 
HETATM   10  C10 UNK     1      28.678  -8.459  35.609  1.00  0.00     0.015 C 
BRANCH  10  11
HETATM   11  C7  UNK     1      29.662  -7.393  35.499  1.00  0.00    -0.036 A 
HETATM   12  C8  UNK     1      30.475  -7.079  36.589  1.00  0.00     0.012 A 
HETATM   13  C5  UNK     1      31.420  -6.058  36.484  1.00  0.00     0.008 A 
HETATM   14  C2  UNK     1      31.552  -5.351  35.289  1.00  0.00    -0.055 A 
HETATM   15  C6  UNK     1      30.739  -5.664  34.199  1.00  0.00     0.008 A 
HETATM   16  C9  UNK     1      29.795  -6.685  34.304  1.00  0.00     0.012 A 
BRANCH  14  17
HETATM   17  C1  UNK     1      32.560  -4.259  35.176  1.00  0.00     0.010 C 
HETATM   18  C3  UNK     1      34.006  -4.787  35.200  1.00  0.00     0.015 C 
HETATM   19  C4  UNK     1      32.381  -3.176  36.257  1.00  0.00     0.015 C 
ENDBRANCH  14  17
ENDBRANCH  10  11
ENDBRANCH   7   9
ENDBRANCH   1   7
BRANCH   2  20
HETATM   20  O1  UNK     1      31.638 -10.184  29.546  1.00  0.00    -0.229 OA
BRANCH  20  21
HETATM   21  S1  UNK     1      30.772  -9.382  28.410  1.00  0.00     0.304 S 
HETATM   22  O2  UNK     1      29.618 -10.177  28.039  1.00  0.00    -0.193 OA
HETATM   23  O3  UNK     1      31.698  -8.871  27.416  1.00  0.00    -0.193 OA
BRANCH  21  24
HETATM   24  C12 UNK     1      30.125  -7.978  29.265  1.00  0.00     0.110 A 
HETATM   25  C20 UNK     1      30.938  -6.915  29.660  1.00  0.00     0.058 A 
HETATM   26 Cl1  UNK     1      32.635  -6.896  29.337  1.00  0.00    -0.083 Cl
HETATM   27  C23 UNK     1      30.385  -5.827  30.333  1.00  0.00     0.027 A 
HETATM   28  C24 UNK     1      29.018  -5.800  30.612  1.00  0.00     0.025 A 
HETATM   29  C22 UNK     1      28.205  -6.863  30.218  1.00  0.00     0.035 A 
HETATM   30  C21 UNK     1      28.760  -7.952  29.545  1.00  0.00     0.051 A 
HETATM   31 Cl2  UNK     1      26.520  -6.829  30.562  1.00  0.00    -0.084 Cl
ENDBRANCH  21  24
ENDBRANCH  20  21
ENDBRANCH   2  20
TORSDOF 7
ENDMDL
