MODEL 1
REMARK VINA RESULT:      -7.5      0.000      0.000
REMARK  3 active torsions:
REMARK  status: ('A' for Active; 'I' for Inactive)
REMARK    1  A    between atoms: C12_16  and  O2_2 
REMARK    2  A    between atoms: C5_9  and  O2_2 
REMARK    3  A    between atoms: C12_16  and  C13_17 
ROOT
HETATM    1  O1  UNK     1      19.259  -0.331  32.820  1.00  0.00    -0.274 OA
HETATM    2  O3  UNK     1      20.046  -2.429  33.279  1.00  0.00    -0.260 OA
HETATM    3  C1  UNK     1      19.411   0.530  30.539  1.00  0.00     0.005 A 
HETATM    4  C2  UNK     1      19.040   0.690  31.875  1.00  0.00     0.099 A 
HETATM    5  C3  UNK     1      18.438   1.858  32.346  1.00  0.00     0.006 A 
HETATM    6  C4  UNK     1      20.040  -0.735  30.131  1.00  0.00    -0.043 A 
HETATM    7  C5  UNK     1      18.195   2.902  31.459  1.00  0.00     0.078 A 
HETATM    8  C6  UNK     1      19.158   1.592  29.662  1.00  0.00     0.017 A 
HETATM    9  C7  UNK     1      18.555   2.769  30.119  1.00  0.00     0.038 A 
HETATM   10  C8  UNK     1      18.054   1.992  33.784  1.00  0.00     0.054 C 
HETATM   11  C9  UNK     1      20.237  -1.689  31.052  1.00  0.00     0.090 A 
HETATM   12  C10 UNK     1      20.451  -0.938  28.702  1.00  0.00     0.049 C 
HETATM   13  C11 UNK     1      19.850  -1.534  32.464  1.00  0.00     0.288 A 
ENDROOT
BRANCH   7  14
HETATM   14  O2  UNK     1      17.608   4.056  31.879  1.00  0.00    -0.343 OA
BRANCH  14  15
HETATM   15  C12 UNK     1      18.321   5.269  31.647  1.00  0.00     0.253 C 
BRANCH  15  16
HETATM   16  C13 UNK     1      19.039   5.716  32.903  1.00  0.00     0.146 C 
HETATM   17  O4  UNK     1      18.591   5.506  34.029  1.00  0.00    -0.296 OA
HETATM   18  C14 UNK     1      20.344   6.440  32.703  1.00  0.00     0.093 C 
ENDBRANCH  15  16
ENDBRANCH  14  15
ENDBRANCH   7  14
TORSDOF 3
ENDMDL
MODEL 2
REMARK VINA RESULT:      -7.3      1.704      2.724
REMARK  3 active torsions:
REMARK  status: ('A' for Active; 'I' for Inactive)
REMARK    1  A    between atoms: C12_16  and  O2_2 
REMARK    2  A    between atoms: C5_9  and  O2_2 
REMARK    3  A    between atoms: C12_16  and  C13_17 
ROOT
HETATM    1  O1  UNK     1      19.655   0.865  29.533  1.00  0.00    -0.274 OA
HETATM    2  O3  UNK     1      20.638  -0.722  28.212  1.00  0.00    -0.260 OA
HETATM    3  C1  UNK     1      19.158   0.338  31.866  1.00  0.00     0.005 A 
HETATM    4  C2  UNK     1      19.144   1.232  30.794  1.00  0.00     0.099 A 
HETATM    5  C3  UNK     1      18.628   2.524  30.908  1.00  0.00     0.006 A 
HETATM    6  C4  UNK     1      19.721  -1.004  31.656  1.00  0.00    -0.043 A 
HETATM    7  C5  UNK     1      18.110   2.943  32.129  1.00  0.00     0.078 A 
HETATM    8  C6  UNK     1      18.632   0.778  33.087  1.00  0.00     0.017 A 
HETATM    9  C7  UNK     1      18.112   2.071  33.217  1.00  0.00     0.038 A 
HETATM   10  C8  UNK     1      18.631   3.451  29.737  1.00  0.00     0.054 C 
HETATM   11  C9  UNK     1      20.200  -1.325  30.445  1.00  0.00     0.090 A 
HETATM   12  C10 UNK     1      19.751  -1.988  32.788  1.00  0.00     0.049 C 
HETATM   13  C11 UNK     1      20.191  -0.393  29.305  1.00  0.00     0.288 A 
ENDROOT
BRANCH   7  14
HETATM   14  O2  UNK     1      17.600   4.196  32.280  1.00  0.00    -0.343 OA
BRANCH  14  15
HETATM   15  C12 UNK     1      18.289   5.073  33.170  1.00  0.00     0.253 C 
BRANCH  15  16
HETATM   16  C13 UNK     1      19.107   6.085  32.397  1.00  0.00     0.146 C 
HETATM   17  O4  UNK     1      18.712   6.590  31.348  1.00  0.00    -0.296 OA
HETATM   18  C14 UNK     1      20.446   6.448  32.984  1.00  0.00     0.093 C 
ENDBRANCH  15  16
ENDBRANCH  14  15
ENDBRANCH   7  14
TORSDOF 3
ENDMDL
MODEL 3
REMARK VINA RESULT:      -7.2      2.882      7.424
REMARK  3 active torsions:
REMARK  status: ('A' for Active; 'I' for Inactive)
REMARK    1  A    between atoms: C12_16  and  O2_2 
REMARK    2  A    between atoms: C5_9  and  O2_2 
REMARK    3  A    between atoms: C12_16  and  C13_17 
ROOT
HETATM    1  O1  UNK     1      20.425   7.760  33.275  1.00  0.00    -0.274 OA
HETATM    2  O3  UNK     1      21.035   9.564  34.542  1.00  0.00    -0.260 OA
HETATM    3  C1  UNK     1      18.172   6.844  33.509  1.00  0.00     0.005 A 
HETATM    4  C2  UNK     1      19.436   6.822  32.918  1.00  0.00     0.099 A 
HETATM    5  C3  UNK     1      19.791   5.878  31.952  1.00  0.00     0.006 A 
HETATM    6  C4  UNK     1      17.885   7.874  34.517  1.00  0.00    -0.043 A 
HETATM    7  C5  UNK     1      18.857   4.926  31.559  1.00  0.00     0.078 A 
HETATM    8  C6  UNK     1      17.246   5.877  33.099  1.00  0.00     0.017 A 
HETATM    9  C7  UNK     1      17.586   4.925  32.131  1.00  0.00     0.038 A 
HETATM   10  C8  UNK     1      21.155   5.887  31.343  1.00  0.00     0.054 C 
HETATM   11  C9  UNK     1      18.845   8.755  34.838  1.00  0.00     0.090 A 
HETATM   12  C10 UNK     1      16.535   7.926  35.170  1.00  0.00     0.049 C 
HETATM   13  C11 UNK     1      20.183   8.743  34.224  1.00  0.00     0.288 A 
ENDROOT
BRANCH   7  14
HETATM   14  O2  UNK     1      19.164   3.990  30.618  1.00  0.00    -0.343 OA
BRANCH  14  15
HETATM   15  C12 UNK     1      18.345   2.824  30.572  1.00  0.00     0.253 C 
BRANCH  15  16
HETATM   16  C13 UNK     1      18.499   2.114  29.244  1.00  0.00     0.146 C 
HETATM   17  O4  UNK     1      17.965   2.520  28.213  1.00  0.00    -0.296 OA
HETATM   18  C14 UNK     1      19.349   0.871  29.247  1.00  0.00     0.093 C 
ENDBRANCH  15  16
ENDBRANCH  14  15
ENDBRANCH   7  14
TORSDOF 3
ENDMDL
MODEL 4
REMARK VINA RESULT:      -7.1      4.214      8.334
REMARK  3 active torsions:
REMARK  status: ('A' for Active; 'I' for Inactive)
REMARK    1  A    between atoms: C12_16  and  O2_2 
REMARK    2  A    between atoms: C5_9  and  O2_2 
REMARK    3  A    between atoms: C12_16  and  C13_17 
ROOT
HETATM    1  O1  UNK     1      18.922  -0.181  33.875  1.00  0.00    -0.274 OA
HETATM    2  O3  UNK     1      18.131   1.683  32.812  1.00  0.00    -0.260 OA
HETATM    3  C1  UNK     1      18.340  -0.557  36.217  1.00  0.00     0.005 A 
HETATM    4  C2  UNK     1      18.994  -0.954  35.050  1.00  0.00     0.099 A 
HETATM    5  C3  UNK     1      19.750  -2.126  34.981  1.00  0.00     0.006 A 
HETATM    6  C4  UNK     1      17.566   0.692  36.199  1.00  0.00    -0.043 A 
HETATM    7  C5  UNK     1      19.858  -2.932  36.110  1.00  0.00     0.078 A 
HETATM    8  C6  UNK     1      18.461  -1.382  37.343  1.00  0.00     0.017 A 
HETATM    9  C7  UNK     1      19.214  -2.560  37.290  1.00  0.00     0.038 A 
HETATM   10  C8  UNK     1      20.436  -2.517  33.713  1.00  0.00     0.054 C 
HETATM   11  C9  UNK     1      17.515   1.408  35.067  1.00  0.00     0.090 A 
HETATM   12  C10 UNK     1      16.851   1.146  37.438  1.00  0.00     0.049 C 
HETATM   13  C11 UNK     1      18.200   1.002  33.829  1.00  0.00     0.288 A 
ENDROOT
BRANCH   7  14
HETATM   14  O2  UNK     1      20.584  -4.083  36.082  1.00  0.00    -0.343 OA
BRANCH  14  15
HETATM   15  C12 UNK     1      20.082  -5.185  36.836  1.00  0.00     0.253 C 
BRANCH  15  16
HETATM   16  C13 UNK     1      21.083  -5.616  37.886  1.00  0.00     0.146 C 
HETATM   17  O4  UNK     1      22.278  -5.333  37.812  1.00  0.00    -0.296 OA
HETATM   18  C14 UNK     1      20.539  -6.418  39.038  1.00  0.00     0.093 C 
ENDBRANCH  15  16
ENDBRANCH  14  15
ENDBRANCH   7  14
TORSDOF 3
ENDMDL
MODEL 5
REMARK VINA RESULT:      -7.0      3.388      5.574
REMARK  3 active torsions:
REMARK  status: ('A' for Active; 'I' for Inactive)
REMARK    1  A    between atoms: C12_16  and  O2_2 
REMARK    2  A    between atoms: C5_9  and  O2_2 
REMARK    3  A    between atoms: C12_16  and  C13_17 
ROOT
HETATM    1  O1  UNK     1      20.512  -3.148  34.996  1.00  0.00    -0.274 OA
HETATM    2  O3  UNK     1      20.995  -4.312  36.905  1.00  0.00    -0.260 OA
HETATM    3  C1  UNK     1      18.897  -1.318  35.089  1.00  0.00     0.005 A 
HETATM    4  C2  UNK     1      19.788  -2.115  34.369  1.00  0.00     0.099 A 
HETATM    5  C3  UNK     1      20.010  -1.937  33.002  1.00  0.00     0.006 A 
HETATM    6  C4  UNK     1      18.726  -1.575  36.526  1.00  0.00    -0.043 A 
HETATM    7  C5  UNK     1      19.324  -0.932  32.328  1.00  0.00     0.078 A 
HETATM    8  C6  UNK     1      18.217  -0.311  34.393  1.00  0.00     0.017 A 
HETATM    9  C7  UNK     1      18.428  -0.120  33.022  1.00  0.00     0.038 A 
HETATM   10  C8  UNK     1      20.973  -2.812  32.267  1.00  0.00     0.054 C 
HETATM   11  C9  UNK     1      19.427  -2.565  37.096  1.00  0.00     0.090 A 
HETATM   12  C10 UNK     1      17.776  -0.735  37.328  1.00  0.00     0.049 C 
HETATM   13  C11 UNK     1      20.370  -3.415  36.350  1.00  0.00     0.288 A 
ENDROOT
BRANCH   7  14
HETATM   14  O2  UNK     1      19.515  -0.726  30.996  1.00  0.00    -0.343 OA
BRANCH  14  15
HETATM   15  C12 UNK     1      19.616   0.627  30.557  1.00  0.00     0.253 C 
BRANCH  15  16
HETATM   16  C13 UNK     1      19.077   0.775  29.149  1.00  0.00     0.146 C 
HETATM   17  O4  UNK     1      19.468   0.074  28.217  1.00  0.00    -0.296 OA
HETATM   18  C14 UNK     1      18.027   1.833  28.945  1.00  0.00     0.093 C 
ENDBRANCH  15  16
ENDBRANCH  14  15
ENDBRANCH   7  14
TORSDOF 3
ENDMDL
MODEL 6
REMARK VINA RESULT:      -7.0      3.000      8.113
REMARK  3 active torsions:
REMARK  status: ('A' for Active; 'I' for Inactive)
REMARK    1  A    between atoms: C12_16  and  O2_2 
REMARK    2  A    between atoms: C5_9  and  O2_2 
REMARK    3  A    between atoms: C12_16  and  C13_17 
ROOT
HETATM    1  O1  UNK     1      16.668   8.925  33.267  1.00  0.00    -0.274 OA
HETATM    2  O3  UNK     1      16.144  11.048  33.938  1.00  0.00    -0.260 OA
HETATM    3  C1  UNK     1      18.955   8.114  33.548  1.00  0.00     0.005 A 
HETATM    4  C2  UNK     1      17.638   7.912  33.132  1.00  0.00     0.099 A 
HETATM    5  C3  UNK     1      17.211   6.711  32.564  1.00  0.00     0.006 A 
HETATM    6  C4  UNK     1      19.316   9.411  34.136  1.00  0.00    -0.043 A 
HETATM    7  C5  UNK     1      18.124   5.673  32.406  1.00  0.00     0.078 A 
HETATM    8  C6  UNK     1      19.858   7.057  33.381  1.00  0.00     0.017 A 
HETATM    9  C7  UNK     1      19.446   5.846  32.813  1.00  0.00     0.038 A 
HETATM   10  C8  UNK     1      15.792   6.534  32.131  1.00  0.00     0.054 C 
HETATM   11  C9  UNK     1      18.372  10.357  34.252  1.00  0.00     0.090 A 
HETATM   12  C10 UNK     1      20.723   9.659  34.594  1.00  0.00     0.049 C 
HETATM   13  C11 UNK     1      16.980  10.159  33.817  1.00  0.00     0.288 A 
ENDROOT
BRANCH   7  14
HETATM   14  O2  UNK     1      17.746   4.485  31.858  1.00  0.00    -0.343 OA
BRANCH  14  15
HETATM   15  C12 UNK     1      18.570   3.957  30.820  1.00  0.00     0.253 C 
BRANCH  15  16
HETATM   16  C13 UNK     1      18.317   2.476  30.636  1.00  0.00     0.146 C 
HETATM   17  O4  UNK     1      18.327   1.684  31.577  1.00  0.00    -0.296 OA
HETATM   18  C14 UNK     1      18.049   2.016  29.228  1.00  0.00     0.093 C 
ENDBRANCH  15  16
ENDBRANCH  14  15
ENDBRANCH   7  14
TORSDOF 3
ENDMDL
MODEL 7
REMARK VINA RESULT:      -7.0      2.217      3.975
REMARK  3 active torsions:
REMARK  status: ('A' for Active; 'I' for Inactive)
REMARK    1  A    between atoms: C12_16  and  O2_2 
REMARK    2  A    between atoms: C5_9  and  O2_2 
REMARK    3  A    between atoms: C12_16  and  C13_17 
ROOT
HETATM    1  O1  UNK     1      18.360   0.969  32.180  1.00  0.00    -0.274 OA
HETATM    2  O3  UNK     1      18.468  -1.284  32.559  1.00  0.00    -0.260 OA
HETATM    3  C1  UNK     1      18.318   2.500  34.082  1.00  0.00     0.005 A 
HETATM    4  C2  UNK     1      18.309   2.275  32.705  1.00  0.00     0.099 A 
HETATM    5  C3  UNK     1      18.247   3.318  31.780  1.00  0.00     0.006 A 
HETATM    6  C4  UNK     1      18.385   1.341  34.984  1.00  0.00    -0.043 A 
HETATM    7  C5  UNK     1      18.195   4.630  32.239  1.00  0.00     0.078 A 
HETATM    8  C6  UNK     1      18.265   3.828  34.525  1.00  0.00     0.017 A 
HETATM    9  C7  UNK     1      18.203   4.885  33.610  1.00  0.00     0.038 A 
HETATM   10  C8  UNK     1      18.239   3.037  30.313  1.00  0.00     0.054 C 
HETATM   11  C9  UNK     1      18.433   0.109  34.456  1.00  0.00     0.090 A 
HETATM   12  C10 UNK     1      18.397   1.550  36.470  1.00  0.00     0.049 C 
HETATM   13  C11 UNK     1      18.423  -0.143  33.005  1.00  0.00     0.288 A 
ENDROOT
BRANCH   7  14
HETATM   14  O2  UNK     1      18.136   5.675  31.368  1.00  0.00    -0.343 OA
BRANCH  14  15
HETATM   15  C12 UNK     1      17.939   6.974  31.925  1.00  0.00     0.253 C 
BRANCH  15  16
HETATM   16  C13 UNK     1      16.584   7.524  31.533  1.00  0.00     0.146 C 
HETATM   17  O4  UNK     1      16.445   8.362  30.643  1.00  0.00    -0.296 OA
HETATM   18  C14 UNK     1      15.401   6.989  32.294  1.00  0.00     0.093 C 
ENDBRANCH  15  16
ENDBRANCH  14  15
ENDBRANCH   7  14
TORSDOF 3
ENDMDL
MODEL 8
REMARK VINA RESULT:      -7.0      2.608      4.676
REMARK  3 active torsions:
REMARK  status: ('A' for Active; 'I' for Inactive)
REMARK    1  A    between atoms: C12_16  and  O2_2 
REMARK    2  A    between atoms: C5_9  and  O2_2 
REMARK    3  A    between atoms: C12_16  and  C13_17 
ROOT
HETATM    1  O1  UNK     1      18.664   1.688  31.234  1.00  0.00    -0.274 OA
HETATM    2  O3  UNK     1      18.805   2.638  29.159  1.00  0.00    -0.260 OA
HETATM    3  C1  UNK     1      19.447  -0.603  31.555  1.00  0.00     0.005 A 
HETATM    4  C2  UNK     1      18.886   0.569  32.062  1.00  0.00     0.099 A 
HETATM    5  C3  UNK     1      18.514   0.700  33.401  1.00  0.00     0.006 A 
HETATM    6  C4  UNK     1      19.808  -0.652  30.131  1.00  0.00    -0.043 A 
HETATM    7  C5  UNK     1      18.710  -0.371  34.267  1.00  0.00     0.078 A 
HETATM    8  C6  UNK     1      19.635  -1.670  32.442  1.00  0.00     0.017 A 
HETATM    9  C7  UNK     1      19.269  -1.555  33.788  1.00  0.00     0.038 A 
HETATM   10  C8  UNK     1      17.916   1.973  33.906  1.00  0.00     0.054 C 
HETATM   11  C9  UNK     1      19.585   0.427  29.367  1.00  0.00     0.090 A 
HETATM   12  C10 UNK     1      20.413  -1.899  29.555  1.00  0.00     0.049 C 
HETATM   13  C11 UNK     1      18.993   1.671  29.887  1.00  0.00     0.288 A 
ENDROOT
BRANCH   7  14
HETATM   14  O2  UNK     1      18.363  -0.282  35.581  1.00  0.00    -0.343 OA
BRANCH  14  15
HETATM   15  C12 UNK     1      17.065  -0.751  35.942  1.00  0.00     0.253 C 
BRANCH  15  16
HETATM   16  C13 UNK     1      16.200   0.391  36.431  1.00  0.00     0.146 C 
HETATM   17  O4  UNK     1      15.047   0.559  36.037  1.00  0.00    -0.296 OA
HETATM   18  C14 UNK     1      16.827   1.321  37.434  1.00  0.00     0.093 C 
ENDBRANCH  15  16
ENDBRANCH  14  15
ENDBRANCH   7  14
TORSDOF 3
ENDMDL
MODEL 9
REMARK VINA RESULT:      -6.8      2.528      5.936
REMARK  3 active torsions:
REMARK  status: ('A' for Active; 'I' for Inactive)
REMARK    1  A    between atoms: C12_16  and  O2_2 
REMARK    2  A    between atoms: C5_9  and  O2_2 
REMARK    3  A    between atoms: C12_16  and  C13_17 
ROOT
HETATM    1  O1  UNK     1      18.439   1.339  31.627  1.00  0.00    -0.274 OA
HETATM    2  O3  UNK     1      18.074   2.906  30.002  1.00  0.00    -0.260 OA
HETATM    3  C1  UNK     1      19.830  -0.605  31.121  1.00  0.00     0.005 A 
HETATM    4  C2  UNK     1      19.045   0.127  32.014  1.00  0.00     0.099 A 
HETATM    5  C3  UNK     1      18.817  -0.295  33.325  1.00  0.00     0.006 A 
HETATM    6  C4  UNK     1      20.017  -0.085  29.759  1.00  0.00    -0.043 A 
HETATM    7  C5  UNK     1      19.390  -1.484  33.764  1.00  0.00     0.078 A 
HETATM    8  C6  UNK     1      20.398  -1.799  31.583  1.00  0.00     0.017 A 
HETATM    9  C7  UNK     1      20.179  -2.235  32.895  1.00  0.00     0.038 A 
HETATM   10  C8  UNK     1      17.971   0.517  34.250  1.00  0.00     0.054 C 
HETATM   11  C9  UNK     1      19.428   1.071  29.419  1.00  0.00     0.090 A 
HETATM   12  C10 UNK     1      20.855  -0.848  28.776  1.00  0.00     0.049 C 
HETATM   13  C11 UNK     1      18.597   1.853  30.349  1.00  0.00     0.288 A 
ENDROOT
BRANCH   7  14
HETATM   14  O2  UNK     1      19.193  -1.927  35.036  1.00  0.00    -0.343 OA
BRANCH  14  15
HETATM   15  C12 UNK     1      20.354  -2.269  35.792  1.00  0.00     0.253 C 
BRANCH  15  16
HETATM   16  C13 UNK     1      20.301  -3.716  36.231  1.00  0.00     0.146 C 
HETATM   17  O4  UNK     1      20.111  -4.639  35.440  1.00  0.00    -0.296 OA
HETATM   18  C14 UNK     1      20.494  -3.974  37.702  1.00  0.00     0.093 C 
ENDBRANCH  15  16
ENDBRANCH  14  15
ENDBRANCH   7  14
TORSDOF 3
ENDMDL
MODEL 10
REMARK VINA RESULT:      -6.8      2.405      6.100
REMARK  3 active torsions:
REMARK  status: ('A' for Active; 'I' for Inactive)
REMARK    1  A    between atoms: C12_16  and  O2_2 
REMARK    2  A    between atoms: C5_9  and  O2_2 
REMARK    3  A    between atoms: C12_16  and  C13_17 
ROOT
HETATM    1  O1  UNK     1      18.648   1.169  31.212  1.00  0.00    -0.274 OA
HETATM    2  O3  UNK     1      18.750   2.366  29.266  1.00  0.00    -0.260 OA
HETATM    3  C1  UNK     1      18.282   2.345  33.321  1.00  0.00     0.005 A 
HETATM    4  C2  UNK     1      18.486   1.161  32.612  1.00  0.00     0.099 A 
HETATM    5  C3  UNK     1      18.542  -0.084  33.240  1.00  0.00     0.006 A 
HETATM    6  C4  UNK     1      18.237   3.612  32.577  1.00  0.00    -0.043 A 
HETATM    7  C5  UNK     1      18.389  -0.155  34.621  1.00  0.00     0.078 A 
HETATM    8  C6  UNK     1      18.130   2.253  34.710  1.00  0.00     0.017 A 
HETATM    9  C7  UNK     1      18.183   1.012  35.355  1.00  0.00     0.038 A 
HETATM   10  C8  UNK     1      18.762  -1.330  32.445  1.00  0.00     0.054 C 
HETATM   11  C9  UNK     1      18.394   3.589  31.246  1.00  0.00     0.090 A 
HETATM   12  C10 UNK     1      18.019   4.903  33.311  1.00  0.00     0.049 C 
HETATM   13  C11 UNK     1      18.610   2.348  30.484  1.00  0.00     0.288 A 
ENDROOT
BRANCH   7  14
HETATM   14  O2  UNK     1      18.435  -1.351  35.270  1.00  0.00    -0.343 OA
BRANCH  14  15
HETATM   15  C12 UNK     1      19.291  -1.439  36.407  1.00  0.00     0.253 C 
BRANCH  15  16
HETATM   16  C13 UNK     1      20.455  -2.367  36.131  1.00  0.00     0.146 C 
HETATM   17  O4  UNK     1      21.317  -2.110  35.293  1.00  0.00    -0.296 OA
HETATM   18  C14 UNK     1      20.505  -3.634  36.943  1.00  0.00     0.093 C 
ENDBRANCH  15  16
ENDBRANCH  14  15
ENDBRANCH   7  14
TORSDOF 3
ENDMDL
