MODEL 1
REMARK VINA RESULT:      -9.2      0.000      0.000
REMARK  4 active torsions:
REMARK  status: ('A' for Active; 'I' for Inactive)
REMARK    1  A    between atoms: C4_8  and  O1_3 
REMARK    2  A    between atoms: C3_7  and  C9_13 
REMARK    3  A    between atoms: C12_16  and  C9_13 
REMARK    4  A    between atoms: C13_17  and  C14_18 
ROOT
HETATM    1  C1  UNK     1      19.515  -0.284  31.525  1.00  0.00     0.008 A 
HETATM    2  C2  UNK     1      20.024  -0.744  30.288  1.00  0.00    -0.023 A 
HETATM    3  C3  UNK     1      18.909   1.827  30.479  1.00  0.00     0.048 A 
HETATM    4  C4  UNK     1      18.961   1.004  31.604  1.00  0.00     0.090 A 
HETATM    5  C5  UNK     1      19.964   0.098  29.165  1.00  0.00     0.013 A 
HETATM    6  C6  UNK     1      19.411   1.375  29.262  1.00  0.00     0.019 A 
HETATM    7  C7  UNK     1      19.575  -1.126  32.647  1.00  0.00     0.015 A 
HETATM    8  C8  UNK     1      20.579  -2.032  30.208  1.00  0.00     0.012 A 
HETATM    9  C10 UNK     1      20.129  -2.402  32.551  1.00  0.00     0.001 A 
HETATM   10  C11 UNK     1      20.629  -2.855  31.334  1.00  0.00     0.001 A 
ENDROOT
BRANCH   3  11
HETATM   11  C9  UNK     1      18.337   3.165  30.551  1.00  0.00     0.184 C 
HETATM   12  O2  UNK     1      17.614   3.494  31.502  1.00  0.00    -0.287 OA
BRANCH  11  13
HETATM   13  C12 UNK     1      18.617   4.126  29.432  1.00  0.00     0.056 C 
HETATM   14  C14 UNK     1      18.921   5.407  29.694  1.00  0.00     0.015 C 
BRANCH  14  15
HETATM   15  C13 UNK     1      19.010   5.984  31.047  1.00  0.00    -0.034 A 
HETATM   16  C15 UNK     1      17.900   6.609  31.615  1.00  0.00     0.037 A 
HETATM   17  C17 UNK     1      17.987   7.158  32.895  1.00  0.00     0.056 A 
HETATM   18 Cl1  UNK     1      16.578   7.920  33.544  1.00  0.00    -0.083 Cl
HETATM   19  C19 UNK     1      19.184   7.080  33.606  1.00  0.00     0.055 A 
HETATM   20  C18 UNK     1      20.294   6.455  33.039  1.00  0.00     0.026 A 
HETATM   21 Cl2  UNK     1      19.354   7.738  35.196  1.00  0.00    -0.083 Cl
HETATM   22  C16 UNK     1      20.207   5.907  31.759  1.00  0.00     0.013 A 
ENDBRANCH  14  15
ENDBRANCH  11  13
ENDBRANCH   3  11
BRANCH   4  23
HETATM   23  O1  UNK     1      18.460   1.473  32.788  1.00  0.00    -0.359 OA
HETATM   24  H11 UNK     1      17.642   0.999  33.011  1.00  0.00     0.217 HD
ENDBRANCH   4  23
TORSDOF 4
ENDMDL
MODEL 2
REMARK VINA RESULT:      -9.2     22.389     24.552
REMARK  4 active torsions:
REMARK  status: ('A' for Active; 'I' for Inactive)
REMARK    1  A    between atoms: C4_8  and  O1_3 
REMARK    2  A    between atoms: C3_7  and  C9_13 
REMARK    3  A    between atoms: C12_16  and  C9_13 
REMARK    4  A    between atoms: C13_17  and  C14_18 
ROOT
HETATM    1  C1  UNK     1      14.872   6.856   9.423  1.00  0.00     0.008 A 
HETATM    2  C2  UNK     1      14.713   8.246   9.211  1.00  0.00    -0.023 A 
HETATM    3  C3  UNK     1      12.682   6.468   8.438  1.00  0.00     0.048 A 
HETATM    4  C4  UNK     1      13.847   5.981   9.030  1.00  0.00     0.090 A 
HETATM    5  C5  UNK     1      13.534   8.720   8.614  1.00  0.00     0.013 A 
HETATM    6  C6  UNK     1      12.526   7.835   8.231  1.00  0.00     0.019 A 
HETATM    7  C7  UNK     1      16.052   6.383  10.020  1.00  0.00     0.015 A 
HETATM    8  C8  UNK     1      15.739   9.123   9.604  1.00  0.00     0.012 A 
HETATM    9  C10 UNK     1      17.060   7.268  10.404  1.00  0.00     0.001 A 
HETATM   10  C11 UNK     1      16.904   8.635  10.196  1.00  0.00     0.001 A 
ENDROOT
BRANCH   3  11
HETATM   11  C9  UNK     1      11.613   5.567   8.029  1.00  0.00     0.184 C 
HETATM   12  O2  UNK     1      11.336   4.565   8.704  1.00  0.00    -0.287 OA
BRANCH  11  13
HETATM   13  C12 UNK     1      10.876   5.860   6.754  1.00  0.00     0.056 C 
HETATM   14  C14 UNK     1       9.594   6.257   6.784  1.00  0.00     0.015 C 
BRANCH  14  15
HETATM   15  C13 UNK     1       8.806   6.441   8.014  1.00  0.00    -0.034 A 
HETATM   16  C15 UNK     1       7.998   5.407   8.488  1.00  0.00     0.037 A 
HETATM   17  C17 UNK     1       7.250   5.583   9.652  1.00  0.00     0.056 A 
HETATM   18 Cl1  UNK     1       6.268   4.265  10.188  1.00  0.00    -0.083 Cl
HETATM   19  C19 UNK     1       7.309   6.793  10.342  1.00  0.00     0.055 A 
HETATM   20  C18 UNK     1       8.116   7.828   9.869  1.00  0.00     0.026 A 
HETATM   21 Cl2  UNK     1       6.407   7.072  11.790  1.00  0.00    -0.083 Cl
HETATM   22  C16 UNK     1       8.864   7.651   8.704  1.00  0.00     0.013 A 
ENDBRANCH  14  15
ENDBRANCH  11  13
ENDBRANCH   3  11
BRANCH   4  23
HETATM   23  O1  UNK     1      13.976   4.632   9.221  1.00  0.00    -0.359 OA
HETATM   24  H11 UNK     1      14.667   4.455   9.880  1.00  0.00     0.217 HD
ENDBRANCH   4  23
TORSDOF 4
ENDMDL
MODEL 3
REMARK VINA RESULT:      -8.9     22.628     24.703
REMARK  4 active torsions:
REMARK  status: ('A' for Active; 'I' for Inactive)
REMARK    1  A    between atoms: C4_8  and  O1_3 
REMARK    2  A    between atoms: C3_7  and  C9_13 
REMARK    3  A    between atoms: C12_16  and  C9_13 
REMARK    4  A    between atoms: C13_17  and  C14_18 
ROOT
HETATM    1  C1  UNK     1      11.471   6.213   7.212  1.00  0.00     0.008 A 
HETATM    2  C2  UNK     1      10.550   5.798   8.203  1.00  0.00    -0.023 A 
HETATM    3  C3  UNK     1      13.302   5.808   8.762  1.00  0.00     0.048 A 
HETATM    4  C4  UNK     1      12.843   6.212   7.508  1.00  0.00     0.090 A 
HETATM    5  C5  UNK     1      11.028   5.394   9.460  1.00  0.00     0.013 A 
HETATM    6  C6  UNK     1      12.396   5.401   9.736  1.00  0.00     0.019 A 
HETATM    7  C7  UNK     1      10.992   6.616   5.955  1.00  0.00     0.015 A 
HETATM    8  C8  UNK     1       9.176   5.798   7.908  1.00  0.00     0.012 A 
HETATM    9  C10 UNK     1       9.625   6.610   5.679  1.00  0.00     0.001 A 
HETATM   10  C11 UNK     1       8.718   6.202   6.653  1.00  0.00     0.001 A 
ENDROOT
BRANCH   3  11
HETATM   11  C9  UNK     1      14.724   5.805   9.078  1.00  0.00     0.184 C 
HETATM   12  O2  UNK     1      15.568   5.579   8.198  1.00  0.00    -0.287 OA
BRANCH  11  13
HETATM   13  C12 UNK     1      15.144   6.048  10.499  1.00  0.00     0.056 C 
HETATM   14  C14 UNK     1      15.524   7.273  10.896  1.00  0.00     0.015 C 
BRANCH  14  15
HETATM   15  C13 UNK     1      15.568   8.458  10.023  1.00  0.00    -0.034 A 
HETATM   16  C15 UNK     1      16.786   9.080   9.749  1.00  0.00     0.037 A 
HETATM   17  C17 UNK     1      16.826  10.204   8.924  1.00  0.00     0.056 A 
HETATM   18 Cl1  UNK     1      18.365  10.930   8.623  1.00  0.00    -0.083 Cl
HETATM   19  C19 UNK     1      15.647  10.705   8.373  1.00  0.00     0.055 A 
HETATM   20  C18 UNK     1      14.429  10.084   8.646  1.00  0.00     0.026 A 
HETATM   21 Cl2  UNK     1      15.632  12.093   7.341  1.00  0.00    -0.083 Cl
HETATM   22  C16 UNK     1      14.389   8.960   9.471  1.00  0.00     0.013 A 
ENDBRANCH  14  15
ENDBRANCH  11  13
ENDBRANCH   3  11
BRANCH   4  23
HETATM   23  O1  UNK     1      13.756   6.606   6.568  1.00  0.00    -0.359 OA
HETATM   24  H11 UNK     1      13.310   6.768   5.721  1.00  0.00     0.217 HD
ENDBRANCH   4  23
TORSDOF 4
ENDMDL
MODEL 4
REMARK VINA RESULT:      -8.9     22.576     24.978
REMARK  4 active torsions:
REMARK  status: ('A' for Active; 'I' for Inactive)
REMARK    1  A    between atoms: C4_8  and  O1_3 
REMARK    2  A    between atoms: C3_7  and  C9_13 
REMARK    3  A    between atoms: C12_16  and  C9_13 
REMARK    4  A    between atoms: C13_17  and  C14_18 
ROOT
HETATM    1  C1  UNK     1      15.695  10.330   8.536  1.00  0.00     0.008 A 
HETATM    2  C2  UNK     1      17.026  10.292   9.015  1.00  0.00    -0.023 A 
HETATM    3  C3  UNK     1      15.186   8.331   9.827  1.00  0.00     0.048 A 
HETATM    4  C4  UNK     1      14.787   9.342   8.952  1.00  0.00     0.090 A 
HETATM    5  C5  UNK     1      17.410   9.267   9.895  1.00  0.00     0.013 A 
HETATM    6  C6  UNK     1      16.495   8.294  10.297  1.00  0.00     0.019 A 
HETATM    7  C7  UNK     1      15.311  11.355   7.656  1.00  0.00     0.015 A 
HETATM    8  C8  UNK     1      17.935  11.280   8.599  1.00  0.00     0.012 A 
HETATM    9  C10 UNK     1      16.226  12.327   7.254  1.00  0.00     0.001 A 
HETATM   10  C11 UNK     1      17.535  12.290   7.725  1.00  0.00     0.001 A 
ENDROOT
BRANCH   3  11
HETATM   11  C9  UNK     1      14.251   7.303  10.263  1.00  0.00     0.184 C 
HETATM   12  O2  UNK     1      13.160   7.609  10.764  1.00  0.00    -0.287 OA
BRANCH  11  13
HETATM   13  C12 UNK     1      14.653   5.863  10.122  1.00  0.00     0.056 C 
HETATM   14  C14 UNK     1      13.970   5.042   9.308  1.00  0.00     0.015 C 
BRANCH  14  15
HETATM   15  C13 UNK     1      12.806   5.445   8.501  1.00  0.00    -0.034 A 
HETATM   16  C15 UNK     1      11.516   5.297   9.011  1.00  0.00     0.037 A 
HETATM   17  C17 UNK     1      10.414   5.676   8.245  1.00  0.00     0.056 A 
HETATM   18 Cl1  UNK     1       8.842   5.468   8.932  1.00  0.00    -0.083 Cl
HETATM   19  C19 UNK     1      10.603   6.203   6.968  1.00  0.00     0.055 A 
HETATM   20  C18 UNK     1      11.892   6.352   6.456  1.00  0.00     0.026 A 
HETATM   21 Cl2  UNK     1       9.278   6.694   5.970  1.00  0.00    -0.083 Cl
HETATM   22  C16 UNK     1      12.994   5.972   7.223  1.00  0.00     0.013 A 
ENDBRANCH  14  15
ENDBRANCH  11  13
ENDBRANCH   3  11
BRANCH   4  23
HETATM   23  O1  UNK     1      13.494   9.357   8.506  1.00  0.00    -0.359 OA
HETATM   24  H11 UNK     1      13.444   8.961   7.621  1.00  0.00     0.217 HD
ENDBRANCH   4  23
TORSDOF 4
ENDMDL
MODEL 5
REMARK VINA RESULT:      -8.6     21.668     23.705
REMARK  4 active torsions:
REMARK  status: ('A' for Active; 'I' for Inactive)
REMARK    1  A    between atoms: C4_8  and  O1_3 
REMARK    2  A    between atoms: C3_7  and  C9_13 
REMARK    3  A    between atoms: C12_16  and  C9_13 
REMARK    4  A    between atoms: C13_17  and  C14_18 
ROOT
HETATM    1  C1  UNK     1      11.374   5.906   8.279  1.00  0.00     0.008 A 
HETATM    2  C2  UNK     1      11.750   6.395   7.005  1.00  0.00    -0.023 A 
HETATM    3  C3  UNK     1      13.721   5.775   8.907  1.00  0.00     0.048 A 
HETATM    4  C4  UNK     1      12.372   5.601   9.218  1.00  0.00     0.090 A 
HETATM    5  C5  UNK     1      13.112   6.564   6.708  1.00  0.00     0.013 A 
HETATM    6  C6  UNK     1      14.090   6.254   7.654  1.00  0.00     0.019 A 
HETATM    7  C7  UNK     1      10.012   5.738   8.575  1.00  0.00     0.015 A 
HETATM    8  C8  UNK     1      10.752   6.700   6.064  1.00  0.00     0.012 A 
HETATM    9  C10 UNK     1       9.034   6.046   7.629  1.00  0.00     0.001 A 
HETATM   10  C11 UNK     1       9.403   6.527   6.376  1.00  0.00     0.001 A 
ENDROOT
BRANCH   3  11
HETATM   11  C9  UNK     1      14.762   5.460   9.876  1.00  0.00     0.184 C 
HETATM   12  O2  UNK     1      14.473   5.011  10.994  1.00  0.00    -0.287 OA
BRANCH  11  13
HETATM   13  C12 UNK     1      16.193   5.722   9.501  1.00  0.00     0.056 C 
HETATM   14  C14 UNK     1      16.749   6.922   9.731  1.00  0.00     0.015 C 
BRANCH  14  15
HETATM   15  C13 UNK     1      16.048   8.062  10.347  1.00  0.00    -0.034 A 
HETATM   16  C15 UNK     1      15.732   9.184   9.582  1.00  0.00     0.037 A 
HETATM   17  C17 UNK     1      15.071  10.265  10.167  1.00  0.00     0.056 A 
HETATM   18 Cl1  UNK     1      14.706  11.627   9.167  1.00  0.00    -0.083 Cl
HETATM   19  C19 UNK     1      14.727  10.221  11.518  1.00  0.00     0.055 A 
HETATM   20  C18 UNK     1      15.044   9.100  12.284  1.00  0.00     0.026 A 
HETATM   21 Cl2  UNK     1      13.906  11.527  12.301  1.00  0.00    -0.083 Cl
HETATM   22  C16 UNK     1      15.705   8.020  11.698  1.00  0.00     0.013 A 
ENDBRANCH  14  15
ENDBRANCH  11  13
ENDBRANCH   3  11
BRANCH   4  23
HETATM   23  O1  UNK     1      12.037   5.129  10.458  1.00  0.00    -0.359 OA
HETATM   24  H11 UNK     1      12.467   4.273  10.614  1.00  0.00     0.217 HD
ENDBRANCH   4  23
TORSDOF 4
ENDMDL
MODEL 6
REMARK VINA RESULT:      -8.6     22.874     24.597
REMARK  4 active torsions:
REMARK  status: ('A' for Active; 'I' for Inactive)
REMARK    1  A    between atoms: C4_8  and  O1_3 
REMARK    2  A    between atoms: C3_7  and  C9_13 
REMARK    3  A    between atoms: C12_16  and  C9_13 
REMARK    4  A    between atoms: C13_17  and  C14_18 
ROOT
HETATM    1  C1  UNK     1       7.447   5.823  10.279  1.00  0.00     0.008 A 
HETATM    2  C2  UNK     1       7.281   7.225  10.194  1.00  0.00    -0.023 A 
HETATM    3  C3  UNK     1       9.469   5.994   8.936  1.00  0.00     0.048 A 
HETATM    4  C4  UNK     1       8.547   5.223   9.644  1.00  0.00     0.090 A 
HETATM    5  C5  UNK     1       8.218   7.987   9.477  1.00  0.00     0.013 A 
HETATM    6  C6  UNK     1       9.304   7.373   8.852  1.00  0.00     0.019 A 
HETATM    7  C7  UNK     1       6.510   5.062  10.997  1.00  0.00     0.015 A 
HETATM    8  C8  UNK     1       6.181   7.827  10.829  1.00  0.00     0.012 A 
HETATM    9  C10 UNK     1       5.424   5.675  11.621  1.00  0.00     0.001 A 
HETATM   10  C11 UNK     1       5.259   7.055  11.538  1.00  0.00     0.001 A 
ENDROOT
BRANCH   3  11
HETATM   11  C9  UNK     1      10.612   5.380   8.274  1.00  0.00     0.184 C 
HETATM   12  O2  UNK     1      11.252   4.474   8.826  1.00  0.00    -0.287 OA
BRANCH  11  13
HETATM   13  C12 UNK     1      11.017   5.891   6.921  1.00  0.00     0.056 C 
HETATM   14  C14 UNK     1      12.127   6.631   6.776  1.00  0.00     0.015 C 
BRANCH  14  15
HETATM   15  C13 UNK     1      13.029   7.007   7.879  1.00  0.00    -0.034 A 
HETATM   16  C15 UNK     1      14.072   6.158   8.249  1.00  0.00     0.037 A 
HETATM   17  C17 UNK     1      14.924   6.514   9.295  1.00  0.00     0.056 A 
HETATM   18 Cl1  UNK     1      16.198   5.421   9.706  1.00  0.00    -0.083 Cl
HETATM   19  C19 UNK     1      14.732   7.719   9.970  1.00  0.00     0.055 A 
HETATM   20  C18 UNK     1      13.688   8.568   9.601  1.00  0.00     0.026 A 
HETATM   21 Cl2  UNK     1      15.754   8.217  11.272  1.00  0.00    -0.083 Cl
HETATM   22  C16 UNK     1      12.837   8.211   8.555  1.00  0.00     0.013 A 
ENDBRANCH  14  15
ENDBRANCH  11  13
ENDBRANCH   3  11
BRANCH   4  23
HETATM   23  O1  UNK     1       8.734   3.869   9.713  1.00  0.00    -0.359 OA
HETATM   24  H11 UNK     1       9.606   3.637   9.355  1.00  0.00     0.217 HD
ENDBRANCH   4  23
TORSDOF 4
ENDMDL
MODEL 7
REMARK VINA RESULT:      -8.5     13.330     15.552
REMARK  4 active torsions:
REMARK  status: ('A' for Active; 'I' for Inactive)
REMARK    1  A    between atoms: C4_8  and  O1_3 
REMARK    2  A    between atoms: C3_7  and  C9_13 
REMARK    3  A    between atoms: C12_16  and  C9_13 
REMARK    4  A    between atoms: C13_17  and  C14_18 
ROOT
HETATM    1  C1  UNK     1      28.324  -7.467  33.508  1.00  0.00     0.008 A 
HETATM    2  C2  UNK     1      28.599  -8.615  32.728  1.00  0.00    -0.023 A 
HETATM    3  C3  UNK     1      28.641  -8.781  35.532  1.00  0.00     0.048 A 
HETATM    4  C4  UNK     1      28.349  -7.567  34.909  1.00  0.00     0.090 A 
HETATM    5  C5  UNK     1      28.892  -9.829  33.372  1.00  0.00     0.013 A 
HETATM    6  C6  UNK     1      28.911  -9.909  34.764  1.00  0.00     0.019 A 
HETATM    7  C7  UNK     1      28.032  -6.254  32.865  1.00  0.00     0.015 A 
HETATM    8  C8  UNK     1      28.575  -8.516  31.327  1.00  0.00     0.012 A 
HETATM    9  C10 UNK     1      28.012  -6.173  31.472  1.00  0.00     0.001 A 
HETATM   10  C11 UNK     1      28.283  -7.302  30.705  1.00  0.00     0.001 A 
ENDROOT
BRANCH   3  11
HETATM   11  C9  UNK     1      28.669  -8.893  36.984  1.00  0.00     0.184 C 
HETATM   12  O2  UNK     1      27.713  -8.501  37.668  1.00  0.00    -0.287 OA
BRANCH  11  13
HETATM   13  C12 UNK     1      29.895  -9.465  37.636  1.00  0.00     0.056 C 
HETATM   14  C14 UNK     1      30.939  -8.676  37.934  1.00  0.00     0.015 C 
BRANCH  14  15
HETATM   15  C13 UNK     1      30.994  -7.228  37.667  1.00  0.00    -0.034 A 
HETATM   16  C15 UNK     1      30.381  -6.332  38.542  1.00  0.00     0.037 A 
HETATM   17  C17 UNK     1      30.432  -4.961  38.286  1.00  0.00     0.056 A 
HETATM   18 Cl1  UNK     1      29.653  -3.901  39.407  1.00  0.00    -0.083 Cl
HETATM   19  C19 UNK     1      31.097  -4.489  37.155  1.00  0.00     0.055 A 
HETATM   20  C18 UNK     1      31.710  -5.384  36.279  1.00  0.00     0.026 A 
HETATM   21 Cl2  UNK     1      31.197  -2.803  36.784  1.00  0.00    -0.083 Cl
HETATM   22  C16 UNK     1      31.658  -6.755  36.536  1.00  0.00     0.013 A 
ENDBRANCH  14  15
ENDBRANCH  11  13
ENDBRANCH   3  11
BRANCH   4  23
HETATM   23  O1  UNK     1      28.089  -6.472  35.687  1.00  0.00    -0.359 OA
HETATM   24  H11 UNK     1      28.390  -6.633  36.596  1.00  0.00     0.217 HD
ENDBRANCH   4  23
TORSDOF 4
ENDMDL
MODEL 8
REMARK VINA RESULT:      -8.4     11.417     14.345
REMARK  4 active torsions:
REMARK  status: ('A' for Active; 'I' for Inactive)
REMARK    1  A    between atoms: C4_8  and  O1_3 
REMARK    2  A    between atoms: C3_7  and  C9_13 
REMARK    3  A    between atoms: C12_16  and  C9_13 
REMARK    4  A    between atoms: C13_17  and  C14_18 
ROOT
HETATM    1  C1  UNK     1      27.563  -6.803  38.681  1.00  0.00     0.008 A 
HETATM    2  C2  UNK     1      27.668  -8.207  38.538  1.00  0.00    -0.023 A 
HETATM    3  C3  UNK     1      25.155  -7.022  38.949  1.00  0.00     0.048 A 
HETATM    4  C4  UNK     1      26.299  -6.226  38.886  1.00  0.00     0.090 A 
HETATM    5  C5  UNK     1      26.506  -8.993  38.603  1.00  0.00     0.013 A 
HETATM    6  C6  UNK     1      25.258  -8.402  38.807  1.00  0.00     0.019 A 
HETATM    7  C7  UNK     1      28.725  -6.018  38.616  1.00  0.00     0.015 A 
HETATM    8  C8  UNK     1      28.932  -8.784  38.332  1.00  0.00     0.012 A 
HETATM    9  C10 UNK     1      29.973  -6.608  38.411  1.00  0.00     0.001 A 
HETATM   10  C11 UNK     1      30.076  -7.988  38.270  1.00  0.00     0.001 A 
ENDROOT
BRANCH   3  11
HETATM   11  C9  UNK     1      23.840  -6.432  39.160  1.00  0.00     0.184 C 
HETATM   12  O2  UNK     1      23.557  -5.326  38.679  1.00  0.00    -0.287 OA
BRANCH  11  13
HETATM   13  C12 UNK     1      22.846  -7.179  40.001  1.00  0.00     0.056 C 
HETATM   14  C14 UNK     1      21.744  -7.708  39.446  1.00  0.00     0.015 C 
BRANCH  14  15
HETATM   15  C13 UNK     1      21.405  -7.618  38.015  1.00  0.00    -0.034 A 
HETATM   16  C15 UNK     1      21.741  -8.659  37.150  1.00  0.00     0.037 A 
HETATM   17  C17 UNK     1      21.422  -8.571  35.795  1.00  0.00     0.056 A 
HETATM   18 Cl1  UNK     1      21.864  -9.893  34.773  1.00  0.00    -0.083 Cl
HETATM   19  C19 UNK     1      20.767  -7.441  35.306  1.00  0.00     0.055 A 
HETATM   20  C18 UNK     1      20.431  -6.399  36.170  1.00  0.00     0.026 A 
HETATM   21 Cl2  UNK     1      20.343  -7.273  33.638  1.00  0.00    -0.083 Cl
HETATM   22  C16 UNK     1      20.751  -6.488  37.525  1.00  0.00     0.013 A 
ENDBRANCH  14  15
ENDBRANCH  11  13
ENDBRANCH   3  11
BRANCH   4  23
HETATM   23  O1  UNK     1      26.170  -4.872  39.030  1.00  0.00    -0.359 OA
HETATM   24  H11 UNK     1      26.026  -4.651  39.964  1.00  0.00     0.217 HD
ENDBRANCH   4  23
TORSDOF 4
ENDMDL
MODEL 9
REMARK VINA RESULT:      -8.4      5.215      7.049
REMARK  4 active torsions:
REMARK  status: ('A' for Active; 'I' for Inactive)
REMARK    1  A    between atoms: C4_8  and  O1_3 
REMARK    2  A    between atoms: C3_7  and  C9_13 
REMARK    3  A    between atoms: C12_16  and  C9_13 
REMARK    4  A    between atoms: C13_17  and  C14_18 
ROOT
HETATM    1  C1  UNK     1      19.337   6.596  31.513  1.00  0.00     0.008 A 
HETATM    2  C2  UNK     1      19.869   6.723  32.818  1.00  0.00    -0.023 A 
HETATM    3  C3  UNK     1      17.215   7.486  32.304  1.00  0.00     0.048 A 
HETATM    4  C4  UNK     1      18.008   6.982  31.273  1.00  0.00     0.090 A 
HETATM    5  C5  UNK     1      19.057   7.233  33.844  1.00  0.00     0.013 A 
HETATM    6  C6  UNK     1      17.739   7.611  33.587  1.00  0.00     0.019 A 
HETATM    7  C7  UNK     1      20.149   6.087  30.487  1.00  0.00     0.015 A 
HETATM    8  C8  UNK     1      21.199   6.337  33.059  1.00  0.00     0.012 A 
HETATM    9  C10 UNK     1      21.467   5.708  30.744  1.00  0.00     0.001 A 
HETATM   10  C11 UNK     1      21.991   5.833  32.027  1.00  0.00     0.001 A 
ENDROOT
BRANCH   3  11
HETATM   11  C9  UNK     1      15.836   7.888  32.064  1.00  0.00     0.184 C 
HETATM   12  O2  UNK     1      15.541   8.584  31.082  1.00  0.00    -0.287 OA
BRANCH  11  13
HETATM   13  C12 UNK     1      14.785   7.468  33.050  1.00  0.00     0.056 C 
HETATM   14  C14 UNK     1      14.232   8.365  33.882  1.00  0.00     0.015 C 
BRANCH  14  15
HETATM   15  C13 UNK     1      14.581   9.795  33.917  1.00  0.00    -0.034 A 
HETATM   16  C15 UNK     1      13.850  10.712  33.161  1.00  0.00     0.037 A 
HETATM   17  C17 UNK     1      14.183  12.066  33.193  1.00  0.00     0.056 A 
HETATM   18 Cl1  UNK     1      13.239  13.153  32.235  1.00  0.00    -0.083 Cl
HETATM   19  C19 UNK     1      15.247  12.503  33.981  1.00  0.00     0.055 A 
HETATM   20  C18 UNK     1      15.979  11.588  34.737  1.00  0.00     0.026 A 
HETATM   21 Cl2  UNK     1      15.708  14.168  34.065  1.00  0.00    -0.083 Cl
HETATM   22  C16 UNK     1      15.646  10.233  34.704  1.00  0.00     0.013 A 
ENDBRANCH  14  15
ENDBRANCH  11  13
ENDBRANCH   3  11
BRANCH   4  23
HETATM   23  O1  UNK     1      17.469   6.872  30.020  1.00  0.00    -0.359 OA
HETATM   24  H11 UNK     1      17.303   5.938  29.813  1.00  0.00     0.217 HD
ENDBRANCH   4  23
TORSDOF 4
ENDMDL
MODEL 10
REMARK VINA RESULT:      -8.4     16.462     17.827
REMARK  4 active torsions:
REMARK  status: ('A' for Active; 'I' for Inactive)
REMARK    1  A    between atoms: C4_8  and  O1_3 
REMARK    2  A    between atoms: C3_7  and  C9_13 
REMARK    3  A    between atoms: C12_16  and  C9_13 
REMARK    4  A    between atoms: C13_17  and  C14_18 
ROOT
HETATM    1  C1  UNK     1      29.853  -7.615  38.389  1.00  0.00     0.008 A 
HETATM    2  C2  UNK     1      28.847  -6.772  38.918  1.00  0.00    -0.023 A 
HETATM    3  C3  UNK     1      31.280  -5.674  38.043  1.00  0.00     0.048 A 
HETATM    4  C4  UNK     1      31.064  -7.049  37.956  1.00  0.00     0.090 A 
HETATM    5  C5  UNK     1      29.081  -5.390  38.999  1.00  0.00     0.013 A 
HETATM    6  C6  UNK     1      30.290  -4.846  38.563  1.00  0.00     0.019 A 
HETATM    7  C7  UNK     1      29.619  -8.997  38.309  1.00  0.00     0.015 A 
HETATM    8  C8  UNK     1      27.636  -7.337  39.352  1.00  0.00     0.012 A 
HETATM    9  C10 UNK     1      28.411  -9.541  38.744  1.00  0.00     0.001 A 
HETATM   10  C11 UNK     1      27.421  -8.712  39.265  1.00  0.00     0.001 A 
ENDROOT
BRANCH   3  11
HETATM   11  C9  UNK     1      32.532  -5.079  37.596  1.00  0.00     0.184 C 
HETATM   12  O2  UNK     1      33.613  -5.435  38.087  1.00  0.00    -0.287 OA
BRANCH  11  13
HETATM   13  C12 UNK     1      32.481  -4.004  36.549  1.00  0.00     0.056 C 
HETATM   14  C14 UNK     1      32.932  -4.239  35.308  1.00  0.00     0.015 C 
BRANCH  14  15
HETATM   15  C13 UNK     1      33.500  -5.521  34.855  1.00  0.00    -0.034 A 
HETATM   16  C15 UNK     1      34.872  -5.751  34.952  1.00  0.00     0.037 A 
HETATM   17  C17 UNK     1      35.409  -6.964  34.521  1.00  0.00     0.056 A 
HETATM   18 Cl1  UNK     1      37.116  -7.190  34.668  1.00  0.00    -0.083 Cl
HETATM   19  C19 UNK     1      34.572  -7.947  33.991  1.00  0.00     0.055 A 
HETATM   20  C18 UNK     1      33.200  -7.717  33.893  1.00  0.00     0.026 A 
HETATM   21 Cl2  UNK     1      35.176  -9.471  33.441  1.00  0.00    -0.083 Cl
HETATM   22  C16 UNK     1      32.664  -6.504  34.325  1.00  0.00     0.013 A 
ENDBRANCH  14  15
ENDBRANCH  11  13
ENDBRANCH   3  11
BRANCH   4  23
HETATM   23  O1  UNK     1      32.055  -7.841  37.442  1.00  0.00    -0.359 OA
HETATM   24  H11 UNK     1      32.121  -8.662  37.956  1.00  0.00     0.217 HD
ENDBRANCH   4  23
TORSDOF 4
ENDMDL
