MODEL 1
REMARK VINA RESULT:      -7.6      0.000      0.000
REMARK  1 active torsions:
REMARK  status: ('A' for Active; 'I' for Inactive)
REMARK    1  A    between atoms: C5_8  and  C9_12 
ROOT
HETATM    1  O1  UNK     1      18.676   1.027  31.376  1.00  0.00    -0.274 OA
HETATM    2  O2  UNK     1      18.217  -1.362  35.535  1.00  0.00    -0.321 OA
HETATM    3  O3  UNK     1      18.914   2.169  29.428  1.00  0.00    -0.259 OA
HETATM    4  C1  UNK     1      18.264   2.215  33.461  1.00  0.00     0.005 A 
HETATM    5  C2  UNK     1      18.286   3.489  32.709  1.00  0.00    -0.037 A 
HETATM    6  C3  UNK     1      18.060   0.890  35.505  1.00  0.00     0.006 A 
HETATM    7  C4  UNK     1      18.459   1.021  32.767  1.00  0.00     0.093 A 
HETATM    8  C5  UNK     1      18.532   3.478  31.382  1.00  0.00     0.024 A 
HETATM    9  C6  UNK     1      18.066   2.143  34.855  1.00  0.00     0.029 A 
HETATM   10  C7  UNK     1      18.255  -0.254  34.743  1.00  0.00     0.088 A 
HETATM   11  C8  UNK     1      18.460  -0.245  33.369  1.00  0.00     0.076 A 
HETATM   12  C10 UNK     1      17.896   0.441  36.842  1.00  0.00    -0.027 A 
HETATM   13  C11 UNK     1      18.726   2.199  30.641  1.00  0.00     0.295 A 
HETATM   14  C12 UNK     1      18.011   4.750  33.492  1.00  0.00     0.050 C 
HETATM   15  C13 UNK     1      17.999  -0.930  36.805  1.00  0.00     0.150 A 
HETATM   16  C15 UNK     1      17.661   1.269  38.039  1.00  0.00     0.051 C 
ENDROOT
BRANCH   8  17
HETATM   17  C9  UNK     1      18.645   4.706  30.516  1.00  0.00     0.041 C 
HETATM   18  C14 UNK     1      20.004   5.359  30.656  1.00  0.00     0.010 C 
ENDBRANCH   8  17
TORSDOF 1
ENDMDL
MODEL 2
REMARK VINA RESULT:      -7.6      1.860      3.438
REMARK  1 active torsions:
REMARK  status: ('A' for Active; 'I' for Inactive)
REMARK    1  A    between atoms: C5_8  and  C9_12 
ROOT
HETATM    1  O1  UNK     1      18.428   1.925  31.727  1.00  0.00    -0.274 OA
HETATM    2  O2  UNK     1      17.196   0.867  36.264  1.00  0.00    -0.321 OA
HETATM    3  O3  UNK     1      18.994   2.400  29.580  1.00  0.00    -0.259 OA
HETATM    4  C1  UNK     1      19.007  -0.225  32.711  1.00  0.00     0.005 A 
HETATM    5  C2  UNK     1      19.649  -0.607  31.433  1.00  0.00    -0.037 A 
HETATM    6  C3  UNK     1      18.318  -0.645  35.018  1.00  0.00     0.006 A 
HETATM    7  C4  UNK     1      18.416   1.034  32.816  1.00  0.00     0.093 A 
HETATM    8  C5  UNK     1      19.618   0.247  30.388  1.00  0.00     0.024 A 
HETATM    9  C6  UNK     1      18.950  -1.078  33.833  1.00  0.00     0.029 A 
HETATM   10  C7  UNK     1      17.758   0.626  35.046  1.00  0.00     0.088 A 
HETATM   11  C8  UNK     1      17.779   1.506  33.972  1.00  0.00     0.076 A 
HETATM   12  C10 UNK     1      18.075  -1.203  36.301  1.00  0.00    -0.027 A 
HETATM   13  C11 UNK     1      18.999   1.597  30.509  1.00  0.00     0.295 A 
HETATM   14  C12 UNK     1      20.327  -1.955  31.385  1.00  0.00     0.050 C 
HETATM   15  C13 UNK     1      17.393  -0.247  37.016  1.00  0.00     0.150 A 
HETATM   16  C15 UNK     1      18.469  -2.541  36.781  1.00  0.00     0.051 C 
ENDROOT
BRANCH   8  17
HETATM   17  C9  UNK     1      20.176  -0.046  29.019  1.00  0.00     0.041 C 
HETATM   18  C14 UNK     1      19.099  -0.537  28.076  1.00  0.00     0.010 C 
ENDBRANCH   8  17
TORSDOF 1
ENDMDL
MODEL 3
REMARK VINA RESULT:      -7.5      1.570      5.647
REMARK  1 active torsions:
REMARK  status: ('A' for Active; 'I' for Inactive)
REMARK    1  A    between atoms: C5_8  and  C9_12 
ROOT
HETATM    1  O1  UNK     1      18.762   0.532  31.523  1.00  0.00    -0.274 OA
HETATM    2  O2  UNK     1      18.908   4.975  29.664  1.00  0.00    -0.321 OA
HETATM    3  O3  UNK     1      18.665  -1.556  32.409  1.00  0.00    -0.259 OA
HETATM    4  C1  UNK     1      18.385   2.487  32.924  1.00  0.00     0.005 A 
HETATM    5  C2  UNK     1      18.196   1.587  34.084  1.00  0.00    -0.037 A 
HETATM    6  C3  UNK     1      18.476   4.686  31.861  1.00  0.00     0.006 A 
HETATM    7  C4  UNK     1      18.664   1.928  31.677  1.00  0.00     0.093 A 
HETATM    8  C5  UNK     1      18.258   0.250  33.909  1.00  0.00     0.024 A 
HETATM    9  C6  UNK     1      18.286   3.891  33.011  1.00  0.00     0.029 A 
HETATM   10  C7  UNK     1      18.757   4.054  30.656  1.00  0.00     0.088 A 
HETATM   11  C8  UNK     1      18.862   2.677  30.509  1.00  0.00     0.076 A 
HETATM   12  C10 UNK     1      18.456   6.076  31.573  1.00  0.00    -0.027 A 
HETATM   13  C11 UNK     1      18.570  -0.344  32.578  1.00  0.00     0.295 A 
HETATM   14  C12 UNK     1      17.957   2.239  35.424  1.00  0.00     0.050 C 
HETATM   15  C13 UNK     1      18.724   6.197  30.229  1.00  0.00     0.150 A 
HETATM   16  C15 UNK     1      18.200   7.179  32.517  1.00  0.00     0.051 C 
ENDROOT
BRANCH   8  17
HETATM   17  C9  UNK     1      18.020  -0.772  34.990  1.00  0.00     0.041 C 
HETATM   18  C14 UNK     1      16.544  -1.050  35.175  1.00  0.00     0.010 C 
ENDBRANCH   8  17
TORSDOF 1
ENDMDL
MODEL 4
REMARK VINA RESULT:      -7.3      2.565      4.670
REMARK  1 active torsions:
REMARK  status: ('A' for Active; 'I' for Inactive)
REMARK    1  A    between atoms: C5_8  and  C9_12 
ROOT
HETATM    1  O1  UNK     1      17.679   4.429  33.850  1.00  0.00    -0.274 OA
HETATM    2  O2  UNK     1      18.827  -0.062  32.536  1.00  0.00    -0.321 OA
HETATM    3  O3  UNK     1      17.118   6.546  34.446  1.00  0.00    -0.259 OA
HETATM    4  C1  UNK     1      18.503   3.954  31.609  1.00  0.00     0.005 A 
HETATM    5  C2  UNK     1      18.380   5.393  31.287  1.00  0.00    -0.037 A 
HETATM    6  C3  UNK     1      19.043   1.634  31.061  1.00  0.00     0.006 A 
HETATM    7  C4  UNK     1      18.148   3.518  32.885  1.00  0.00     0.093 A 
HETATM    8  C5  UNK     1      17.893   6.246  32.214  1.00  0.00     0.024 A 
HETATM    9  C6  UNK     1      18.954   2.991  30.683  1.00  0.00     0.029 A 
HETATM   10  C7  UNK     1      18.677   1.280  32.353  1.00  0.00     0.088 A 
HETATM   11  C8  UNK     1      18.222   2.183  33.306  1.00  0.00     0.076 A 
HETATM   12  C10 UNK     1      19.438   0.427  30.427  1.00  0.00    -0.027 A 
HETATM   13  C11 UNK     1      17.528   5.779  33.581  1.00  0.00     0.295 A 
HETATM   14  C12 UNK     1      18.832   5.828  29.914  1.00  0.00     0.050 C 
HETATM   15  C13 UNK     1      19.289  -0.570  31.363  1.00  0.00     0.150 A 
HETATM   16  C15 UNK     1      19.913   0.262  29.041  1.00  0.00     0.051 C 
ENDROOT
BRANCH   8  17
HETATM   17  C9  UNK     1      17.658   7.718  31.991  1.00  0.00     0.041 C 
HETATM   18  C14 UNK     1      16.246   7.987  31.515  1.00  0.00     0.010 C 
ENDBRANCH   8  17
TORSDOF 1
ENDMDL
MODEL 5
REMARK VINA RESULT:      -7.3     24.362     26.061
REMARK  1 active torsions:
REMARK  status: ('A' for Active; 'I' for Inactive)
REMARK    1  A    between atoms: C5_8  and  C9_12 
ROOT
HETATM    1  O1  UNK     1      10.599   5.102   8.097  1.00  0.00    -0.274 OA
HETATM    2  O2  UNK     1      15.325   4.998   9.032  1.00  0.00    -0.321 OA
HETATM    3  O3  UNK     1       8.377   5.175   7.638  1.00  0.00    -0.259 OA
HETATM    4  C1  UNK     1      11.727   7.035   9.055  1.00  0.00     0.005 A 
HETATM    5  C2  UNK     1      10.435   7.757   9.055  1.00  0.00    -0.037 A 
HETATM    6  C3  UNK     1      14.129   6.861   9.475  1.00  0.00     0.006 A 
HETATM    7  C4  UNK     1      11.767   5.726   8.575  1.00  0.00     0.093 A 
HETATM    8  C5  UNK     1       9.333   7.154   8.559  1.00  0.00     0.024 A 
HETATM    9  C6  UNK     1      12.933   7.610   9.508  1.00  0.00     0.029 A 
HETATM   10  C7  UNK     1      14.085   5.561   8.988  1.00  0.00     0.088 A 
HETATM   11  C8  UNK     1      12.929   4.945   8.525  1.00  0.00     0.076 A 
HETATM   12  C10 UNK     1      15.483   7.094   9.833  1.00  0.00    -0.027 A 
HETATM   13  C11 UNK     1       9.376   5.750   8.060  1.00  0.00     0.295 A 
HETATM   14  C12 UNK     1      10.428   9.148   9.639  1.00  0.00     0.050 C 
HETATM   15  C13 UNK     1      16.165   5.935   9.546  1.00  0.00     0.150 A 
HETATM   16  C15 UNK     1      16.055   8.329  10.401  1.00  0.00     0.051 C 
ENDROOT
BRANCH   8  17
HETATM   17  C9  UNK     1       7.977   7.800   8.442  1.00  0.00     0.041 C 
HETATM   18  C14 UNK     1       7.134   7.544   9.674  1.00  0.00     0.010 C 
ENDBRANCH   8  17
TORSDOF 1
ENDMDL
MODEL 6
REMARK VINA RESULT:      -7.3      2.863      6.552
REMARK  1 active torsions:
REMARK  status: ('A' for Active; 'I' for Inactive)
REMARK    1  A    between atoms: C5_8  and  C9_12 
ROOT
HETATM    1  O1  UNK     1      20.571  -2.917  33.781  1.00  0.00    -0.274 OA
HETATM    2  O2  UNK     1      20.652  -1.566  29.157  1.00  0.00    -0.321 OA
HETATM    3  O3  UNK     1      20.502  -3.555  35.958  1.00  0.00    -0.259 OA
HETATM    4  C1  UNK     1      19.390  -0.922  33.040  1.00  0.00     0.005 A 
HETATM    5  C2  UNK     1      18.940  -0.702  34.433  1.00  0.00    -0.037 A 
HETATM    6  C3  UNK     1      19.500  -0.347  30.667  1.00  0.00     0.006 A 
HETATM    7  C4  UNK     1      20.194  -2.026  32.759  1.00  0.00     0.093 A 
HETATM    8  C5  UNK     1      19.282  -1.589  35.393  1.00  0.00     0.024 A 
HETATM    9  C6  UNK     1      19.036  -0.073  31.971  1.00  0.00     0.029 A 
HETATM   10  C7  UNK     1      20.303  -1.463  30.469  1.00  0.00     0.088 A 
HETATM   11  C8  UNK     1      20.680  -2.336  31.482  1.00  0.00     0.076 A 
HETATM   12  C10 UNK     1      19.358   0.258  29.391  1.00  0.00    -0.027 A 
HETATM   13  C11 UNK     1      20.153  -2.759  35.092  1.00  0.00     0.295 A 
HETATM   14  C12 UNK     1      18.122   0.538  34.701  1.00  0.00     0.050 C 
HETATM   15  C13 UNK     1      20.075  -0.519  28.512  1.00  0.00     0.150 A 
HETATM   16  C15 UNK     1      18.594   1.476  29.061  1.00  0.00     0.051 C 
ENDROOT
BRANCH   8  17
HETATM   17  C9  UNK     1      18.837  -1.515  36.831  1.00  0.00     0.041 C 
HETATM   18  C14 UNK     1      17.429  -2.045  37.002  1.00  0.00     0.010 C 
ENDBRANCH   8  17
TORSDOF 1
ENDMDL
MODEL 7
REMARK VINA RESULT:      -7.2     23.739     25.861
REMARK  1 active torsions:
REMARK  status: ('A' for Active; 'I' for Inactive)
REMARK    1  A    between atoms: C5_8  and  C9_12 
ROOT
HETATM    1  O1  UNK     1      14.492   5.381   8.426  1.00  0.00    -0.274 OA
HETATM    2  O2  UNK     1       9.856   5.364   7.112  1.00  0.00    -0.321 OA
HETATM    3  O3  UNK     1      16.667   5.385   9.073  1.00  0.00    -0.259 OA
HETATM    4  C1  UNK     1      12.923   6.992   9.357  1.00  0.00     0.005 A 
HETATM    5  C2  UNK     1      14.027   7.565  10.159  1.00  0.00    -0.037 A 
HETATM    6  C3  UNK     1      10.596   6.875   8.618  1.00  0.00     0.006 A 
HETATM    7  C4  UNK     1      13.193   5.915   8.513  1.00  0.00     0.093 A 
HETATM    8  C5  UNK     1      15.258   7.015  10.089  1.00  0.00     0.024 A 
HETATM    9  C6  UNK     1      11.598   7.474   9.410  1.00  0.00     0.029 A 
HETATM   10  C7  UNK     1      10.946   5.811   7.797  1.00  0.00     0.088 A 
HETATM   11  C8  UNK     1      12.231   5.291   7.707  1.00  0.00     0.076 A 
HETATM   12  C10 UNK     1       9.206   7.081   8.412  1.00  0.00    -0.027 A 
HETATM   13  C11 UNK     1      15.546   5.874   9.175  1.00  0.00     0.295 A 
HETATM   14  C12 UNK     1      13.701   8.767  11.012  1.00  0.00     0.050 C 
HETATM   15  C13 UNK     1       8.807   6.140   7.491  1.00  0.00     0.150 A 
HETATM   16  C15 UNK     1       8.350   8.096   9.054  1.00  0.00     0.051 C 
ENDROOT
BRANCH   8  17
HETATM   17  C9  UNK     1      16.447   7.461  10.900  1.00  0.00     0.041 C 
HETATM   18  C14 UNK     1      17.216   8.559  10.197  1.00  0.00     0.010 C 
ENDBRANCH   8  17
TORSDOF 1
ENDMDL
MODEL 8
REMARK VINA RESULT:      -7.1     14.247     16.242
REMARK  1 active torsions:
REMARK  status: ('A' for Active; 'I' for Inactive)
REMARK    1  A    between atoms: C5_8  and  C9_12 
ROOT
HETATM    1  O1  UNK     1      29.841  -3.929  37.894  1.00  0.00    -0.274 OA
HETATM    2  O2  UNK     1      33.875  -3.585  35.281  1.00  0.00    -0.321 OA
HETATM    3  O3  UNK     1      27.957  -4.105  39.147  1.00  0.00    -0.259 OA
HETATM    4  C1  UNK     1      31.133  -5.912  37.320  1.00  0.00     0.005 A 
HETATM    5  C2  UNK     1      30.147  -6.735  38.056  1.00  0.00    -0.037 A 
HETATM    6  C3  UNK     1      33.165  -5.604  35.998  1.00  0.00     0.006 A 
HETATM    7  C4  UNK     1      30.946  -4.531  37.263  1.00  0.00     0.093 A 
HETATM    8  C5  UNK     1      29.114  -6.136  38.686  1.00  0.00     0.024 A 
HETATM    9  C6  UNK     1      32.266  -6.452  36.679  1.00  0.00     0.029 A 
HETATM   10  C7  UNK     1      32.907  -4.240  35.980  1.00  0.00     0.088 A 
HETATM   11  C8  UNK     1      31.811  -3.650  36.598  1.00  0.00     0.076 A 
HETATM   12  C10 UNK     1      34.367  -5.779  35.263  1.00  0.00    -0.027 A 
HETATM   13  C11 UNK     1      28.909  -4.662  38.610  1.00  0.00     0.295 A 
HETATM   14  C12 UNK     1      30.356  -8.230  38.041  1.00  0.00     0.050 C 
HETATM   15  C13 UNK     1      34.755  -4.526  34.851  1.00  0.00     0.150 A 
HETATM   16  C15 UNK     1      35.069  -7.047  34.991  1.00  0.00     0.051 C 
ENDROOT
BRANCH   8  17
HETATM   17  C9  UNK     1      28.082  -6.851  39.519  1.00  0.00     0.041 C 
HETATM   18  C14 UNK     1      26.922  -7.330  38.673  1.00  0.00     0.010 C 
ENDBRANCH   8  17
TORSDOF 1
ENDMDL
MODEL 9
REMARK VINA RESULT:      -7.1     11.853     14.557
REMARK  1 active torsions:
REMARK  status: ('A' for Active; 'I' for Inactive)
REMARK    1  A    between atoms: C5_8  and  C9_12 
ROOT
HETATM    1  O1  UNK     1      26.150  -5.114  38.787  1.00  0.00    -0.274 OA
HETATM    2  O2  UNK     1      30.924  -4.556  38.440  1.00  0.00    -0.321 OA
HETATM    3  O3  UNK     1      23.906  -5.393  38.975  1.00  0.00    -0.259 OA
HETATM    4  C1  UNK     1      27.628  -7.043  38.652  1.00  0.00     0.005 A 
HETATM    5  C2  UNK     1      26.442  -7.925  38.732  1.00  0.00    -0.037 A 
HETATM    6  C3  UNK     1      30.032  -6.629  38.488  1.00  0.00     0.006 A 
HETATM    7  C4  UNK     1      27.442  -5.661  38.681  1.00  0.00     0.093 A 
HETATM    8  C5  UNK     1      25.214  -7.381  38.870  1.00  0.00     0.024 A 
HETATM    9  C6  UNK     1      28.948  -7.531  38.558  1.00  0.00     0.029 A 
HETATM   10  C7  UNK     1      29.764  -5.266  38.517  1.00  0.00     0.088 A 
HETATM   11  C8  UNK     1      28.487  -4.729  38.612  1.00  0.00     0.076 A 
HETATM   12  C10 UNK     1      31.443  -6.744  38.389  1.00  0.00    -0.027 A 
HETATM   13  C11 UNK     1      25.018  -5.904  38.886  1.00  0.00     0.295 A 
HETATM   14  C12 UNK     1      26.686  -9.411  38.636  1.00  0.00     0.050 C 
HETATM   15  C13 UNK     1      31.935  -5.460  38.363  1.00  0.00     0.150 A 
HETATM   16  C15 UNK     1      32.235  -7.987  38.328  1.00  0.00     0.051 C 
ENDROOT
BRANCH   8  17
HETATM   17  C9  UNK     1      23.937  -8.166  39.027  1.00  0.00     0.041 C 
HETATM   18  C14 UNK     1      23.296  -8.455  37.686  1.00  0.00     0.010 C 
ENDBRANCH   8  17
TORSDOF 1
ENDMDL
MODEL 10
REMARK VINA RESULT:      -7.1      2.785      5.968
REMARK  1 active torsions:
REMARK  status: ('A' for Active; 'I' for Inactive)
REMARK    1  A    between atoms: C5_8  and  C9_12 
ROOT
HETATM    1  O1  UNK     1      19.369  -1.968  35.327  1.00  0.00    -0.274 OA
HETATM    2  O2  UNK     1      20.827  -2.826  30.815  1.00  0.00    -0.321 OA
HETATM    3  O3  UNK     1      18.654  -1.560  37.442  1.00  0.00    -0.259 OA
HETATM    4  C1  UNK     1      18.987  -0.339  33.558  1.00  0.00     0.005 A 
HETATM    5  C2  UNK     1      18.327   0.542  34.547  1.00  0.00    -0.037 A 
HETATM    6  C3  UNK     1      19.766  -0.896  31.309  1.00  0.00     0.006 A 
HETATM    7  C4  UNK     1      19.489  -1.569  33.982  1.00  0.00     0.093 A 
HETATM    8  C5  UNK     1      18.189   0.126  35.824  1.00  0.00     0.024 A 
HETATM    9  C6  UNK     1      19.127  -0.003  32.195  1.00  0.00     0.029 A 
HETATM   10  C7  UNK     1      20.245  -2.099  31.809  1.00  0.00     0.088 A 
HETATM   11  C8  UNK     1      20.132  -2.486  33.139  1.00  0.00     0.076 A 
HETATM   12  C10 UNK     1      20.080  -0.900  29.924  1.00  0.00    -0.027 A 
HETATM   13  C11 UNK     1      18.739  -1.182  36.277  1.00  0.00     0.295 A 
HETATM   14  C12 UNK     1      17.853   1.888  34.056  1.00  0.00     0.050 C 
HETATM   15  C13 UNK     1      20.722  -2.091  29.677  1.00  0.00     0.150 A 
HETATM   16  C15 UNK     1      19.781   0.154  28.938  1.00  0.00     0.051 C 
ENDROOT
BRANCH   8  17
HETATM   17  C9  UNK     1      17.482   0.897  36.909  1.00  0.00     0.041 C 
HETATM   18  C14 UNK     1      15.981   0.723  36.824  1.00  0.00     0.010 C 
ENDBRANCH   8  17
TORSDOF 1
ENDMDL
