MODEL 1
REMARK VINA RESULT:     -10.1      0.000      0.000
REMARK  6 active torsions:
REMARK  status: ('A' for Active; 'I' for Inactive)
REMARK    1  A    between atoms: C5_11  and  N1_4 
REMARK    2  A    between atoms: C6_12  and  N2_5 
REMARK    3  A    between atoms: C5_11  and  C7_13 
REMARK    4  A    between atoms: C6_12  and  C8_14 
REMARK    5  A    between atoms: C14_20  and  C20_26 
REMARK    6  A    between atoms: C16_22  and  C21_27 
ROOT
HETATM    1  N1  UNK     1      18.180   5.017  31.523  1.00  0.00     0.096 N 
HETATM    2  N2  UNK     1      18.996   2.305  30.940  1.00  0.00     0.097 N 
HETATM    3  C1  UNK     1      18.312   4.016  32.588  1.00  0.00     0.303 C 
HETATM    4  C2  UNK     1      19.104   4.719  30.422  1.00  0.00     0.303 C 
HETATM    5  C3  UNK     1      18.072   2.604  32.041  1.00  0.00     0.303 C 
HETATM    6  C4  UNK     1      18.865   3.308  29.876  1.00  0.00     0.303 C 
ENDROOT
BRANCH   1   7
HETATM    7  C5  UNK     1      18.410   6.363  32.044  1.00  0.00     0.312 C 
BRANCH   7   8
HETATM    8  C7  UNK     1      17.137   7.099  32.282  1.00  0.00    -0.011 A 
HETATM    9  C10 UNK     1      15.960   6.592  31.888  1.00  0.00     0.092 A 
HETATM   10  C15 UNK     1      14.677   7.282  32.100  1.00  0.00     0.288 A 
HETATM   11  O2  UNK     1      14.728   8.509  32.743  1.00  0.00    -0.275 OA
HETATM   12  O3  UNK     1      13.619   6.786  31.728  1.00  0.00    -0.260 OA
HETATM   13  C12 UNK     1      15.950   9.068  33.169  1.00  0.00     0.090 A 
HETATM   14  C9  UNK     1      17.159   8.403  32.960  1.00  0.00     0.007 A 
HETATM   15  C17 UNK     1      15.883  10.308  33.804  1.00  0.00     0.039 A 
HETATM   16  C13 UNK     1      18.330   9.025  33.412  1.00  0.00     0.022 A 
HETATM   17  C14 UNK     1      18.278  10.268  34.051  1.00  0.00    -0.058 A 
HETATM   18  C19 UNK     1      17.056  10.909  34.247  1.00  0.00     0.010 A 
BRANCH  17  19
HETATM   19  C20 UNK     1      19.538  10.912  34.525  1.00  0.00     0.034 C 
HETATM   20  C22 UNK     1      20.698   9.924  34.612  1.00  0.00     0.010 C 
ENDBRANCH  17  19
ENDBRANCH   7   8
ENDBRANCH   1   7
BRANCH   2  21
HETATM   21  C6  UNK     1      18.764   0.960  30.419  1.00  0.00     0.334 C 
BRANCH  21  22
HETATM   22  C8  UNK     1      19.112  -0.044  31.470  1.00  0.00     0.095 A 
HETATM   23  C11 UNK     1      19.862  -1.187  31.359  1.00  0.00     0.078 A 
HETATM   24  O1  UNK     1      19.906  -1.782  32.583  1.00  0.00    -0.294 OA
HETATM   25  C18 UNK     1      20.577  -1.856  30.266  1.00  0.00     0.079 C 
HETATM   26  C16 UNK     1      19.170  -0.948  33.369  1.00  0.00     0.180 A 
HETATM   27  N3  UNK     1      18.671   0.105  32.760  1.00  0.00    -0.224 NA
BRANCH  26  28
HETATM   28  C21 UNK     1      19.052  -1.347  34.743  1.00  0.00     0.017 A 
HETATM   29  C23 UNK     1      18.007  -0.854  35.525  1.00  0.00     0.016 A 
HETATM   30  C25 UNK     1      17.892  -1.241  36.860  1.00  0.00     0.001 A 
HETATM   31  C27 UNK     1      18.822  -2.120  37.414  1.00  0.00     0.000 A 
HETATM   32  C26 UNK     1      19.867  -2.613  36.632  1.00  0.00     0.001 A 
HETATM   33  C24 UNK     1      19.982  -2.226  35.297  1.00  0.00     0.016 A 
ENDBRANCH  26  28
ENDBRANCH  21  22
ENDBRANCH   2  21
TORSDOF 6
ENDMDL
MODEL 2
REMARK VINA RESULT:      -9.9      4.016     12.277
REMARK  6 active torsions:
REMARK  status: ('A' for Active; 'I' for Inactive)
REMARK    1  A    between atoms: C5_11  and  N1_4 
REMARK    2  A    between atoms: C6_12  and  N2_5 
REMARK    3  A    between atoms: C5_11  and  C7_13 
REMARK    4  A    between atoms: C6_12  and  C8_14 
REMARK    5  A    between atoms: C14_20  and  C20_26 
REMARK    6  A    between atoms: C16_22  and  C21_27 
ROOT
HETATM    1  N1  UNK     1      19.155  -3.137  36.123  1.00  0.00     0.096 N 
HETATM    2  N2  UNK     1      18.084  -0.565  35.351  1.00  0.00     0.097 N 
HETATM    3  C1  UNK     1      19.780  -2.340  35.061  1.00  0.00     0.303 C 
HETATM    4  C2  UNK     1      18.495  -2.262  37.100  1.00  0.00     0.303 C 
HETATM    5  C3  UNK     1      18.745  -1.440  34.375  1.00  0.00     0.303 C 
HETATM    6  C4  UNK     1      17.462  -1.362  36.415  1.00  0.00     0.303 C 
ENDROOT
BRANCH   1   7
HETATM    7  C5  UNK     1      20.142  -3.994  36.777  1.00  0.00     0.312 C 
BRANCH   7   8
HETATM    8  C7  UNK     1      19.766  -5.434  36.716  1.00  0.00    -0.011 A 
HETATM    9  C10 UNK     1      18.668  -5.835  36.061  1.00  0.00     0.092 A 
HETATM   10  C15 UNK     1      18.255  -7.246  35.972  1.00  0.00     0.288 A 
HETATM   11  O2  UNK     1      19.067  -8.173  36.606  1.00  0.00    -0.275 OA
HETATM   12  O3  UNK     1      17.244  -7.575  35.362  1.00  0.00    -0.260 OA
HETATM   13  C12 UNK     1      20.229  -7.782  37.301  1.00  0.00     0.090 A 
HETATM   14  C9  UNK     1      20.607  -6.441  37.378  1.00  0.00     0.007 A 
HETATM   15  C17 UNK     1      20.971  -8.800  37.902  1.00  0.00     0.039 A 
HETATM   16  C13 UNK     1      21.775  -6.134  38.089  1.00  0.00     0.022 A 
HETATM   17  C14 UNK     1      22.529  -7.144  38.696  1.00  0.00    -0.058 A 
HETATM   18  C19 UNK     1      22.127  -8.476  38.602  1.00  0.00     0.010 A 
BRANCH  17  19
HETATM   19  C20 UNK     1      23.769  -6.794  39.448  1.00  0.00     0.034 C 
HETATM   20  C22 UNK     1      24.964  -7.644  39.023  1.00  0.00     0.010 C 
ENDBRANCH  17  19
ENDBRANCH   7   8
ENDBRANCH   1   7
BRANCH   2  21
HETATM   21  C6  UNK     1      17.097   0.290  34.697  1.00  0.00     0.334 C 
BRANCH  21  22
HETATM   22  C8  UNK     1      17.736   1.591  34.330  1.00  0.00     0.095 A 
HETATM   23  C11 UNK     1      18.512   2.420  35.101  1.00  0.00     0.078 A 
HETATM   24  O1  UNK     1      18.869   3.490  34.338  1.00  0.00    -0.294 OA
HETATM   25  C18 UNK     1      19.001   2.393  36.484  1.00  0.00     0.079 C 
HETATM   26  C16 UNK     1      18.279   3.236  33.138  1.00  0.00     0.180 A 
HETATM   27  N3  UNK     1      17.590   2.118  33.073  1.00  0.00    -0.224 NA
BRANCH  26  28
HETATM   28  C21 UNK     1      18.500   4.230  32.125  1.00  0.00     0.017 A 
HETATM   29  C23 UNK     1      18.397   5.585  32.443  1.00  0.00     0.016 A 
HETATM   30  C25 UNK     1      18.611   6.550  31.460  1.00  0.00     0.001 A 
HETATM   31  C27 UNK     1      18.927   6.162  30.158  1.00  0.00     0.000 A 
HETATM   32  C26 UNK     1      19.029   4.808  29.840  1.00  0.00     0.001 A 
HETATM   33  C24 UNK     1      18.816   3.842  30.823  1.00  0.00     0.016 A 
ENDBRANCH  26  28
ENDBRANCH  21  22
ENDBRANCH   2  21
TORSDOF 6
ENDMDL
MODEL 3
REMARK VINA RESULT:      -9.8     12.746     16.131
REMARK  6 active torsions:
REMARK  status: ('A' for Active; 'I' for Inactive)
REMARK    1  A    between atoms: C5_11  and  N1_4 
REMARK    2  A    between atoms: C6_12  and  N2_5 
REMARK    3  A    between atoms: C5_11  and  C7_13 
REMARK    4  A    between atoms: C6_12  and  C8_14 
REMARK    5  A    between atoms: C14_20  and  C20_26 
REMARK    6  A    between atoms: C16_22  and  C21_27 
ROOT
HETATM    1  N1  UNK     1      25.413  -8.060  38.533  1.00  0.00     0.096 N 
HETATM    2  N2  UNK     1      28.302  -7.957  38.487  1.00  0.00     0.097 N 
HETATM    3  C1  UNK     1      26.223  -9.172  39.044  1.00  0.00     0.303 C 
HETATM    4  C2  UNK     1      26.132  -6.790  38.685  1.00  0.00     0.303 C 
HETATM    5  C3  UNK     1      27.582  -9.227  38.336  1.00  0.00     0.303 C 
HETATM    6  C4  UNK     1      27.491  -6.844  37.978  1.00  0.00     0.303 C 
ENDROOT
BRANCH   1   7
HETATM    7  C5  UNK     1      24.118  -8.008  39.209  1.00  0.00     0.312 C 
BRANCH   7   8
HETATM    8  C7  UNK     1      23.016  -7.621  38.285  1.00  0.00    -0.011 A 
HETATM    9  C10 UNK     1      22.358  -6.463  38.439  1.00  0.00     0.092 A 
HETATM   10  C15 UNK     1      21.262  -6.037  37.552  1.00  0.00     0.288 A 
HETATM   11  O2  UNK     1      20.926  -6.899  36.520  1.00  0.00    -0.275 OA
HETATM   12  O3  UNK     1      20.685  -4.969  37.724  1.00  0.00    -0.260 OA
HETATM   13  C12 UNK     1      21.601  -8.122  36.332  1.00  0.00     0.090 A 
HETATM   14  C9  UNK     1      22.636  -8.513  37.181  1.00  0.00     0.007 A 
HETATM   15  C17 UNK     1      21.178  -8.910  35.261  1.00  0.00     0.039 A 
HETATM   16  C13 UNK     1      23.256  -9.744  36.928  1.00  0.00     0.022 A 
HETATM   17  C14 UNK     1      22.843 -10.545  35.857  1.00  0.00    -0.058 A 
HETATM   18  C19 UNK     1      21.805 -10.128  35.025  1.00  0.00     0.010 A 
BRANCH  17  19
HETATM   19  C20 UNK     1      23.516 -11.852  35.606  1.00  0.00     0.034 C 
HETATM   20  C22 UNK     1      24.970 -11.856  36.075  1.00  0.00     0.010 C 
ENDBRANCH  17  19
ENDBRANCH   7   8
ENDBRANCH   1   7
BRANCH   2  21
HETATM   21  C6  UNK     1      29.595  -8.009  37.810  1.00  0.00     0.334 C 
BRANCH  21  22
HETATM   22  C8  UNK     1      29.461  -7.421  36.443  1.00  0.00     0.095 A 
HETATM   23  C11 UNK     1      29.908  -6.211  35.975  1.00  0.00     0.078 A 
HETATM   24  O1  UNK     1      29.554  -6.110  34.664  1.00  0.00    -0.294 OA
HETATM   25  C18 UNK     1      30.638  -5.079  36.557  1.00  0.00     0.079 C 
HETATM   26  C16 UNK     1      28.907  -7.283  34.418  1.00  0.00     0.180 A 
HETATM   27  N3  UNK     1      28.821  -8.104  35.441  1.00  0.00    -0.224 NA
BRANCH  26  28
HETATM   28  C21 UNK     1      28.418  -7.443  33.077  1.00  0.00     0.017 A 
HETATM   29  C23 UNK     1      28.664  -8.627  32.382  1.00  0.00     0.016 A 
HETATM   30  C25 UNK     1      28.190  -8.783  31.080  1.00  0.00     0.001 A 
HETATM   31  C27 UNK     1      27.470  -7.755  30.472  1.00  0.00     0.000 A 
HETATM   32  C26 UNK     1      27.225  -6.570  31.167  1.00  0.00     0.001 A 
HETATM   33  C24 UNK     1      27.699  -6.414  32.469  1.00  0.00     0.016 A 
ENDBRANCH  26  28
ENDBRANCH  21  22
ENDBRANCH   2  21
TORSDOF 6
ENDMDL
MODEL 4
REMARK VINA RESULT:      -9.6      2.210      9.878
REMARK  6 active torsions:
REMARK  status: ('A' for Active; 'I' for Inactive)
REMARK    1  A    between atoms: C5_11  and  N1_4 
REMARK    2  A    between atoms: C6_12  and  N2_5 
REMARK    3  A    between atoms: C5_11  and  C7_13 
REMARK    4  A    between atoms: C6_12  and  C8_14 
REMARK    5  A    between atoms: C14_20  and  C20_26 
REMARK    6  A    between atoms: C16_22  and  C21_27 
ROOT
HETATM    1  N1  UNK     1      18.869   3.641  31.452  1.00  0.00     0.096 N 
HETATM    2  N2  UNK     1      19.216   6.249  32.651  1.00  0.00     0.097 N 
HETATM    3  C1  UNK     1      18.080   4.055  32.618  1.00  0.00     0.303 C 
HETATM    4  C2  UNK     1      19.238   4.809  30.643  1.00  0.00     0.303 C 
HETATM    5  C3  UNK     1      18.847   5.082  33.460  1.00  0.00     0.303 C 
HETATM    6  C4  UNK     1      20.004   5.836  31.483  1.00  0.00     0.303 C 
ENDROOT
BRANCH   1   7
HETATM    7  C5  UNK     1      18.137   2.663  30.650  1.00  0.00     0.312 C 
BRANCH   7   8
HETATM    8  C7  UNK     1      18.856   1.363  30.554  1.00  0.00    -0.011 A 
HETATM    9  C10 UNK     1      19.485   1.002  29.426  1.00  0.00     0.092 A 
HETATM   10  C15 UNK     1      20.209  -0.273  29.282  1.00  0.00     0.288 A 
HETATM   11  O2  UNK     1      20.220  -1.110  30.386  1.00  0.00    -0.275 OA
HETATM   12  O3  UNK     1      20.774  -0.567  28.235  1.00  0.00    -0.260 OA
HETATM   13  C12 UNK     1      19.569  -0.758  31.586  1.00  0.00     0.090 A 
HETATM   14  C9  UNK     1      18.886   0.453  31.707  1.00  0.00     0.007 A 
HETATM   15  C17 UNK     1      19.645  -1.678  32.632  1.00  0.00     0.039 A 
HETATM   16  C13 UNK     1      18.264   0.729  32.932  1.00  0.00     0.022 A 
HETATM   17  C14 UNK     1      18.332  -0.184  33.990  1.00  0.00    -0.058 A 
HETATM   18  C19 UNK     1      19.022  -1.386  33.840  1.00  0.00     0.010 A 
BRANCH  17  19
HETATM   19  C20 UNK     1      17.662   0.130  35.285  1.00  0.00     0.034 C 
HETATM   20  C22 UNK     1      16.146   0.244  35.142  1.00  0.00     0.010 C 
ENDBRANCH  17  19
ENDBRANCH   7   8
ENDBRANCH   1   7
BRANCH   2  21
HETATM   21  C6  UNK     1      19.950   7.226  33.452  1.00  0.00     0.334 C 
BRANCH  21  22
HETATM   22  C8  UNK     1      19.062   8.394  33.741  1.00  0.00     0.095 A 
HETATM   23  C11 UNK     1      19.396   9.633  34.226  1.00  0.00     0.078 A 
HETATM   24  O1  UNK     1      18.253  10.368  34.324  1.00  0.00    -0.294 OA
HETATM   25  C18 UNK     1      20.645  10.285  34.635  1.00  0.00     0.079 C 
HETATM   26  C16 UNK     1      17.288   9.514  33.885  1.00  0.00     0.180 A 
HETATM   27  N3  UNK     1      17.710   8.323  33.523  1.00  0.00    -0.224 NA
BRANCH  26  28
HETATM   28  C21 UNK     1      15.954  10.047  33.884  1.00  0.00     0.017 A 
HETATM   29  C23 UNK     1      15.040   9.636  32.913  1.00  0.00     0.016 A 
HETATM   30  C25 UNK     1      13.746  10.154  32.910  1.00  0.00     0.001 A 
HETATM   31  C27 UNK     1      13.363  11.083  33.878  1.00  0.00     0.000 A 
HETATM   32  C26 UNK     1      14.278  11.494  34.849  1.00  0.00     0.001 A 
HETATM   33  C24 UNK     1      15.573  10.976  34.851  1.00  0.00     0.016 A 
ENDBRANCH  26  28
ENDBRANCH  21  22
ENDBRANCH   2  21
TORSDOF 6
ENDMDL
MODEL 5
REMARK VINA RESULT:      -9.5      1.855     10.201
REMARK  6 active torsions:
REMARK  status: ('A' for Active; 'I' for Inactive)
REMARK    1  A    between atoms: C5_11  and  N1_4 
REMARK    2  A    between atoms: C6_12  and  N2_5 
REMARK    3  A    between atoms: C5_11  and  C7_13 
REMARK    4  A    between atoms: C6_12  and  C8_14 
REMARK    5  A    between atoms: C14_20  and  C20_26 
REMARK    6  A    between atoms: C16_22  and  C21_27 
ROOT
HETATM    1  N1  UNK     1      18.753   3.199  31.346  1.00  0.00     0.096 N 
HETATM    2  N2  UNK     1      18.773   5.899  32.379  1.00  0.00     0.097 N 
HETATM    3  C1  UNK     1      17.921   3.582  32.493  1.00  0.00     0.303 C 
HETATM    4  C2  UNK     1      18.969   4.350  30.463  1.00  0.00     0.303 C 
HETATM    5  C3  UNK     1      18.556   4.746  33.262  1.00  0.00     0.303 C 
HETATM    6  C4  UNK     1      19.603   5.515  31.230  1.00  0.00     0.303 C 
ENDROOT
BRANCH   1   7
HETATM    7  C5  UNK     1      18.147   2.089  30.613  1.00  0.00     0.312 C 
BRANCH   7   8
HETATM    8  C7  UNK     1      19.051   0.908  30.530  1.00  0.00    -0.011 A 
HETATM    9  C10 UNK     1      19.772   0.665  29.425  1.00  0.00     0.092 A 
HETATM   10  C15 UNK     1      20.679  -0.488  29.296  1.00  0.00     0.288 A 
HETATM   11  O2  UNK     1      20.766  -1.337  30.388  1.00  0.00    -0.275 OA
HETATM   12  O3  UNK     1      21.323  -0.677  28.270  1.00  0.00    -0.260 OA
HETATM   13  C12 UNK     1      20.022  -1.107  31.563  1.00  0.00     0.090 A 
HETATM   14  C9  UNK     1      19.166  -0.010  31.670  1.00  0.00     0.007 A 
HETATM   15  C17 UNK     1      20.189  -2.027  32.599  1.00  0.00     0.039 A 
HETATM   16  C13 UNK     1      18.460   0.148  32.871  1.00  0.00     0.022 A 
HETATM   17  C14 UNK     1      18.618  -0.766  33.919  1.00  0.00    -0.058 A 
HETATM   18  C19 UNK     1      19.481  -1.852  33.782  1.00  0.00     0.010 A 
BRANCH  17  19
HETATM   19  C20 UNK     1      17.857  -0.578  35.188  1.00  0.00     0.034 C 
HETATM   20  C22 UNK     1      17.131   0.765  35.235  1.00  0.00     0.010 C 
ENDBRANCH  17  19
ENDBRANCH   7   8
ENDBRANCH   1   7
BRANCH   2  21
HETATM   21  C6  UNK     1      19.380   7.007  33.112  1.00  0.00     0.334 C 
BRANCH  21  22
HETATM   22  C8  UNK     1      18.400   8.131  33.209  1.00  0.00     0.095 A 
HETATM   23  C11 UNK     1      17.147   8.235  32.659  1.00  0.00     0.078 A 
HETATM   24  O1  UNK     1      16.628   9.441  33.021  1.00  0.00    -0.294 OA
HETATM   25  C18 UNK     1      16.310   7.374  31.816  1.00  0.00     0.079 C 
HETATM   26  C16 UNK     1      17.612   9.996  33.779  1.00  0.00     0.180 A 
HETATM   27  N3  UNK     1      18.693   9.262  33.927  1.00  0.00    -0.224 NA
BRANCH  26  28
HETATM   28  C21 UNK     1      17.319  11.301  34.302  1.00  0.00     0.017 A 
HETATM   29  C23 UNK     1      16.064  11.567  34.851  1.00  0.00     0.016 A 
HETATM   30  C25 UNK     1      15.778  12.834  35.358  1.00  0.00     0.001 A 
HETATM   31  C27 UNK     1      16.746  13.837  35.317  1.00  0.00     0.000 A 
HETATM   32  C26 UNK     1      18.001  13.571  34.768  1.00  0.00     0.001 A 
HETATM   33  C24 UNK     1      18.287  12.304  34.261  1.00  0.00     0.016 A 
ENDBRANCH  26  28
ENDBRANCH  21  22
ENDBRANCH   2  21
TORSDOF 6
ENDMDL
MODEL 6
REMARK VINA RESULT:      -9.5      4.323      8.274
REMARK  6 active torsions:
REMARK  status: ('A' for Active; 'I' for Inactive)
REMARK    1  A    between atoms: C5_11  and  N1_4 
REMARK    2  A    between atoms: C6_12  and  N2_5 
REMARK    3  A    between atoms: C5_11  and  C7_13 
REMARK    4  A    between atoms: C6_12  and  C8_14 
REMARK    5  A    between atoms: C14_20  and  C20_26 
REMARK    6  A    between atoms: C16_22  and  C21_27 
ROOT
HETATM    1  N1  UNK     1      18.901  -0.890  35.201  1.00  0.00     0.096 N 
HETATM    2  N2  UNK     1      19.573  -3.356  36.552  1.00  0.00     0.097 N 
HETATM    3  C1  UNK     1      19.554  -1.995  34.490  1.00  0.00     0.303 C 
HETATM    4  C2  UNK     1      18.077  -1.405  36.301  1.00  0.00     0.303 C 
HETATM    5  C3  UNK     1      20.397  -2.841  35.452  1.00  0.00     0.303 C 
HETATM    6  C4  UNK     1      18.918  -2.251  37.263  1.00  0.00     0.303 C 
ENDROOT
BRANCH   1   7
HETATM    7  C5  UNK     1      18.098  -0.084  34.284  1.00  0.00     0.312 C 
BRANCH   7   8
HETATM    8  C7  UNK     1      18.644  -0.097  32.898  1.00  0.00    -0.011 A 
HETATM    9  C10 UNK     1      19.105  -1.228  32.346  1.00  0.00     0.092 A 
HETATM   10  C15 UNK     1      19.653  -1.291  30.981  1.00  0.00     0.288 A 
HETATM   11  O2  UNK     1      19.675  -0.105  30.264  1.00  0.00    -0.275 OA
HETATM   12  O3  UNK     1      20.064  -2.345  30.509  1.00  0.00    -0.260 OA
HETATM   13  C12 UNK     1      19.197   1.100  30.817  1.00  0.00     0.090 A 
HETATM   14  C9  UNK     1      18.681   1.144  32.112  1.00  0.00     0.007 A 
HETATM   15  C17 UNK     1      19.268   2.233  30.005  1.00  0.00     0.039 A 
HETATM   16  C13 UNK     1      18.226   2.381  32.590  1.00  0.00     0.022 A 
HETATM   17  C14 UNK     1      18.291   3.525  31.787  1.00  0.00    -0.058 A 
HETATM   18  C19 UNK     1      18.812   3.451  30.496  1.00  0.00     0.010 A 
BRANCH  17  19
HETATM   19  C20 UNK     1      17.802   4.832  32.315  1.00  0.00     0.034 C 
HETATM   20  C22 UNK     1      18.588   6.015  31.756  1.00  0.00     0.010 C 
ENDBRANCH  17  19
ENDBRANCH   7   8
ENDBRANCH   1   7
BRANCH   2  21
HETATM   21  C6  UNK     1      20.377  -4.160  37.470  1.00  0.00     0.334 C 
BRANCH  21  22
HETATM   22  C8  UNK     1      20.320  -5.593  37.050  1.00  0.00     0.095 A 
HETATM   23  C11 UNK     1      19.226  -6.357  36.730  1.00  0.00     0.078 A 
HETATM   24  O1  UNK     1      19.665  -7.605  36.408  1.00  0.00    -0.294 OA
HETATM   25  C18 UNK     1      17.779  -6.122  36.669  1.00  0.00     0.079 C 
HETATM   26  C16 UNK     1      21.015  -7.515  36.554  1.00  0.00     0.180 A 
HETATM   27  N3  UNK     1      21.464  -6.340  36.936  1.00  0.00    -0.224 NA
BRANCH  26  28
HETATM   28  C21 UNK     1      21.743  -8.720  36.270  1.00  0.00     0.017 A 
HETATM   29  C23 UNK     1      21.178  -9.700  35.453  1.00  0.00     0.016 A 
HETATM   30  C25 UNK     1      21.884 -10.870  35.177  1.00  0.00     0.001 A 
HETATM   31  C27 UNK     1      23.155 -11.063  35.718  1.00  0.00     0.000 A 
HETATM   32  C26 UNK     1      23.720 -10.084  36.536  1.00  0.00     0.001 A 
HETATM   33  C24 UNK     1      23.014  -8.913  36.812  1.00  0.00     0.016 A 
ENDBRANCH  26  28
ENDBRANCH  21  22
ENDBRANCH   2  21
TORSDOF 6
ENDMDL
MODEL 7
REMARK VINA RESULT:      -9.4     15.262     18.076
REMARK  6 active torsions:
REMARK  status: ('A' for Active; 'I' for Inactive)
REMARK    1  A    between atoms: C5_11  and  N1_4 
REMARK    2  A    between atoms: C6_12  and  N2_5 
REMARK    3  A    between atoms: C5_11  and  C7_13 
REMARK    4  A    between atoms: C6_12  and  C8_14 
REMARK    5  A    between atoms: C14_20  and  C20_26 
REMARK    6  A    between atoms: C16_22  and  C21_27 
ROOT
HETATM    1  N1  UNK     1      32.427  -7.936  36.097  1.00  0.00     0.096 N 
HETATM    2  N2  UNK     1      33.179  -9.963  34.179  1.00  0.00     0.097 N 
HETATM    3  C1  UNK     1      32.064  -9.344  36.295  1.00  0.00     0.303 C 
HETATM    4  C2  UNK     1      33.671  -7.831  35.327  1.00  0.00     0.303 C 
HETATM    5  C3  UNK     1      31.934 -10.068  34.950  1.00  0.00     0.303 C 
HETATM    6  C4  UNK     1      33.543  -8.555  33.983  1.00  0.00     0.303 C 
ENDROOT
BRANCH   1   7
HETATM    7  C5  UNK     1      32.550  -7.246  37.380  1.00  0.00     0.312 C 
BRANCH   7   8
HETATM    8  C7  UNK     1      31.740  -5.997  37.428  1.00  0.00    -0.011 A 
HETATM    9  C10 UNK     1      32.230  -4.837  36.967  1.00  0.00     0.092 A 
HETATM   10  C15 UNK     1      31.468  -3.577  36.993  1.00  0.00     0.288 A 
HETATM   11  O2  UNK     1      30.189  -3.633  37.524  1.00  0.00    -0.275 OA
HETATM   12  O3  UNK     1      31.948  -2.536  36.560  1.00  0.00    -0.260 OA
HETATM   13  C12 UNK     1      29.648  -4.838  38.017  1.00  0.00     0.090 A 
HETATM   14  C9  UNK     1      30.382  -6.024  37.986  1.00  0.00     0.007 A 
HETATM   15  C17 UNK     1      28.351  -4.777  38.530  1.00  0.00     0.039 A 
HETATM   16  C13 UNK     1      29.772  -7.179  38.496  1.00  0.00     0.022 A 
HETATM   17  C14 UNK     1      28.473  -7.133  39.013  1.00  0.00    -0.058 A 
HETATM   18  C19 UNK     1      27.764  -5.933  39.029  1.00  0.00     0.010 A 
BRANCH  17  19
HETATM   19  C20 UNK     1      27.844  -8.375  39.549  1.00  0.00     0.034 C 
HETATM   20  C22 UNK     1      28.511  -9.640  39.016  1.00  0.00     0.010 C 
ENDBRANCH  17  19
ENDBRANCH   7   8
ENDBRANCH   1   7
BRANCH   2  21
HETATM   21  C6  UNK     1      33.054 -10.651  32.896  1.00  0.00     0.334 C 
BRANCH  21  22
HETATM   22  C8  UNK     1      31.707 -10.368  32.313  1.00  0.00     0.095 A 
HETATM   23  C11 UNK     1      30.706 -11.247  31.983  1.00  0.00     0.078 A 
HETATM   24  O1  UNK     1      29.662 -10.528  31.486  1.00  0.00    -0.294 OA
HETATM   25  C18 UNK     1      30.541 -12.703  32.050  1.00  0.00     0.079 C 
HETATM   26  C16 UNK     1      30.104  -9.241  31.548  1.00  0.00     0.180 A 
HETATM   27  N3  UNK     1      31.315  -9.084  32.033  1.00  0.00    -0.224 NA
BRANCH  26  28
HETATM   28  C21 UNK     1      29.176  -8.253  31.075  1.00  0.00     0.017 A 
HETATM   29  C23 UNK     1      27.874  -8.623  30.737  1.00  0.00     0.016 A 
HETATM   30  C25 UNK     1      26.973  -7.663  30.276  1.00  0.00     0.001 A 
HETATM   31  C27 UNK     1      27.374  -6.333  30.151  1.00  0.00     0.000 A 
HETATM   32  C26 UNK     1      28.677  -5.963  30.488  1.00  0.00     0.001 A 
HETATM   33  C24 UNK     1      29.577  -6.922  30.949  1.00  0.00     0.016 A 
ENDBRANCH  26  28
ENDBRANCH  21  22
ENDBRANCH   2  21
TORSDOF 6
ENDMDL
MODEL 8
REMARK VINA RESULT:      -9.4      2.622      4.292
REMARK  6 active torsions:
REMARK  status: ('A' for Active; 'I' for Inactive)
REMARK    1  A    between atoms: C5_11  and  N1_4 
REMARK    2  A    between atoms: C6_12  and  N2_5 
REMARK    3  A    between atoms: C5_11  and  C7_13 
REMARK    4  A    between atoms: C6_12  and  C8_14 
REMARK    5  A    between atoms: C14_20  and  C20_26 
REMARK    6  A    between atoms: C16_22  and  C21_27 
ROOT
HETATM    1  N1  UNK     1      16.279   8.785  33.639  1.00  0.00     0.096 N 
HETATM    2  N2  UNK     1      17.584   6.349  32.788  1.00  0.00     0.097 N 
HETATM    3  C1  UNK     1      15.515   7.554  33.401  1.00  0.00     0.303 C 
HETATM    4  C2  UNK     1      17.646   8.465  34.065  1.00  0.00     0.303 C 
HETATM    5  C3  UNK     1      16.216   6.670  32.363  1.00  0.00     0.303 C 
HETATM    6  C4  UNK     1      18.347   7.580  33.029  1.00  0.00     0.303 C 
ENDROOT
BRANCH   1   7
HETATM    7  C5  UNK     1      15.611   9.627  34.629  1.00  0.00     0.312 C 
BRANCH   7   8
HETATM    8  C7  UNK     1      14.800  10.705  33.997  1.00  0.00    -0.011 A 
HETATM    9  C10 UNK     1      13.539  10.480  33.600  1.00  0.00     0.092 A 
HETATM   10  C15 UNK     1      12.699  11.512  32.971  1.00  0.00     0.288 A 
HETATM   11  O2  UNK     1      13.272  12.762  32.799  1.00  0.00    -0.275 OA
HETATM   12  O3  UNK     1      11.549  11.269  32.622  1.00  0.00    -0.260 OA
HETATM   13  C12 UNK     1      14.595  13.029  33.207  1.00  0.00     0.090 A 
HETATM   14  C9  UNK     1      15.379  12.040  33.801  1.00  0.00     0.007 A 
HETATM   15  C17 UNK     1      15.068  14.323  32.984  1.00  0.00     0.039 A 
HETATM   16  C13 UNK     1      16.685  12.385  34.177  1.00  0.00     0.022 A 
HETATM   17  C14 UNK     1      17.173  13.679  33.961  1.00  0.00    -0.058 A 
HETATM   18  C19 UNK     1      16.365  14.646  33.365  1.00  0.00     0.010 A 
BRANCH  17  19
HETATM   19  C20 UNK     1      18.566  14.024  34.370  1.00  0.00     0.034 C 
HETATM   20  C22 UNK     1      19.052  15.324  33.733  1.00  0.00     0.010 C 
ENDBRANCH  17  19
ENDBRANCH   7   8
ENDBRANCH   1   7
BRANCH   2  21
HETATM   21  C6  UNK     1      18.252   5.509  31.797  1.00  0.00     0.334 C 
BRANCH  21  22
HETATM   22  C8  UNK     1      18.181   4.081  32.234  1.00  0.00     0.095 A 
HETATM   23  C11 UNK     1      18.196   2.942  31.469  1.00  0.00     0.078 A 
HETATM   24  O1  UNK     1      18.112   1.872  32.307  1.00  0.00    -0.294 OA
HETATM   25  C18 UNK     1      18.276   2.659  30.031  1.00  0.00     0.079 C 
HETATM   26  C16 UNK     1      18.053   2.439  33.543  1.00  0.00     0.180 A 
HETATM   27  N3  UNK     1      18.090   3.753  33.562  1.00  0.00    -0.224 NA
BRANCH  26  28
HETATM   28  C21 UNK     1      17.958   1.514  34.637  1.00  0.00     0.017 A 
HETATM   29  C23 UNK     1      17.728   0.161  34.388  1.00  0.00     0.016 A 
HETATM   30  C25 UNK     1      17.635  -0.738  35.451  1.00  0.00     0.001 A 
HETATM   31  C27 UNK     1      17.772  -0.284  36.762  1.00  0.00     0.000 A 
HETATM   32  C26 UNK     1      18.001   1.069  37.011  1.00  0.00     0.001 A 
HETATM   33  C24 UNK     1      18.094   1.968  35.949  1.00  0.00     0.016 A 
ENDBRANCH  26  28
ENDBRANCH  21  22
ENDBRANCH   2  21
TORSDOF 6
ENDMDL
MODEL 9
REMARK VINA RESULT:      -9.4      2.025     10.228
REMARK  6 active torsions:
REMARK  status: ('A' for Active; 'I' for Inactive)
REMARK    1  A    between atoms: C5_11  and  N1_4 
REMARK    2  A    between atoms: C6_12  and  N2_5 
REMARK    3  A    between atoms: C5_11  and  C7_13 
REMARK    4  A    between atoms: C6_12  and  C8_14 
REMARK    5  A    between atoms: C14_20  and  C20_26 
REMARK    6  A    between atoms: C16_22  and  C21_27 
ROOT
HETATM    1  N1  UNK     1      18.378   1.528  33.854  1.00  0.00     0.096 N 
HETATM    2  N2  UNK     1      18.431   4.419  33.836  1.00  0.00     0.097 N 
HETATM    3  C1  UNK     1      18.309   2.299  35.101  1.00  0.00     0.303 C 
HETATM    4  C2  UNK     1      17.796   2.294  32.745  1.00  0.00     0.303 C 
HETATM    5  C3  UNK     1      19.013   3.653  34.944  1.00  0.00     0.303 C 
HETATM    6  C4  UNK     1      18.498   3.647  32.589  1.00  0.00     0.303 C 
ENDROOT
BRANCH   1   7
HETATM    7  C5  UNK     1      17.707   0.239  34.003  1.00  0.00     0.312 C 
BRANCH   7   8
HETATM    8  C7  UNK     1      18.667  -0.868  34.274  1.00  0.00    -0.011 A 
HETATM    9  C10 UNK     1      18.846  -1.340  35.516  1.00  0.00     0.092 A 
HETATM   10  C15 UNK     1      19.782  -2.431  35.834  1.00  0.00     0.288 A 
HETATM   11  O2  UNK     1      20.492  -2.971  34.773  1.00  0.00    -0.275 OA
HETATM   12  O3  UNK     1      19.918  -2.837  36.983  1.00  0.00    -0.260 OA
HETATM   13  C12 UNK     1      20.324  -2.497  33.456  1.00  0.00     0.090 A 
HETATM   14  C9  UNK     1      19.434  -1.461  33.171  1.00  0.00     0.007 A 
HETATM   15  C17 UNK     1      21.091  -3.114  32.467  1.00  0.00     0.039 A 
HETATM   16  C13 UNK     1      19.326  -1.046  31.836  1.00  0.00     0.022 A 
HETATM   17  C14 UNK     1      20.088  -1.656  30.834  1.00  0.00    -0.058 A 
HETATM   18  C19 UNK     1      20.969  -2.689  31.149  1.00  0.00     0.010 A 
BRANCH  17  19
HETATM   19  C20 UNK     1      19.957  -1.198  29.420  1.00  0.00     0.034 C 
HETATM   20  C22 UNK     1      19.818   0.319  29.312  1.00  0.00     0.010 C 
ENDBRANCH  17  19
ENDBRANCH   7   8
ENDBRANCH   1   7
BRANCH   2  21
HETATM   21  C6  UNK     1      19.104   5.707  33.686  1.00  0.00     0.334 C 
BRANCH  21  22
HETATM   22  C8  UNK     1      18.115   6.730  33.227  1.00  0.00     0.095 A 
HETATM   23  C11 UNK     1      17.803   7.116  31.948  1.00  0.00     0.078 A 
HETATM   24  O1  UNK     1      16.842   8.079  32.022  1.00  0.00    -0.294 OA
HETATM   25  C18 UNK     1      18.260   6.733  30.607  1.00  0.00     0.079 C 
HETATM   26  C16 UNK     1      16.631   8.214  33.360  1.00  0.00     0.180 A 
HETATM   27  N3  UNK     1      17.361   7.436  34.128  1.00  0.00    -0.224 NA
BRANCH  26  28
HETATM   28  C21 UNK     1      15.642   9.188  33.728  1.00  0.00     0.017 A 
HETATM   29  C23 UNK     1      15.509   9.578  35.061  1.00  0.00     0.016 A 
HETATM   30  C25 UNK     1      14.548  10.523  35.419  1.00  0.00     0.001 A 
HETATM   31  C27 UNK     1      13.719  11.079  34.445  1.00  0.00     0.000 A 
HETATM   32  C26 UNK     1      13.851  10.688  33.112  1.00  0.00     0.001 A 
HETATM   33  C24 UNK     1      14.812   9.743  32.754  1.00  0.00     0.016 A 
ENDBRANCH  26  28
ENDBRANCH  21  22
ENDBRANCH   2  21
TORSDOF 6
ENDMDL
MODEL 10
REMARK VINA RESULT:      -9.4     16.153     19.992
REMARK  6 active torsions:
REMARK  status: ('A' for Active; 'I' for Inactive)
REMARK    1  A    between atoms: C5_11  and  N1_4 
REMARK    2  A    between atoms: C6_12  and  N2_5 
REMARK    3  A    between atoms: C5_11  and  C7_13 
REMARK    4  A    between atoms: C6_12  and  C8_14 
REMARK    5  A    between atoms: C14_20  and  C20_26 
REMARK    6  A    between atoms: C16_22  and  C21_27 
ROOT
HETATM    1  N1  UNK     1      31.743  -5.799  35.695  1.00  0.00     0.096 N 
HETATM    2  N2  UNK     1      34.347  -6.200  34.505  1.00  0.00     0.097 N 
HETATM    3  C1  UNK     1      32.381  -4.752  34.889  1.00  0.00     0.303 C 
HETATM    4  C2  UNK     1      32.181  -7.127  35.250  1.00  0.00     0.303 C 
HETATM    5  C3  UNK     1      33.908  -4.871  34.950  1.00  0.00     0.303 C 
HETATM    6  C4  UNK     1      33.707  -7.247  35.311  1.00  0.00     0.303 C 
ENDROOT
BRANCH   1   7
HETATM    7  C5  UNK     1      30.287  -5.686  35.636  1.00  0.00     0.312 C 
BRANCH   7   8
HETATM    8  C7  UNK     1      29.668  -5.661  36.990  1.00  0.00    -0.011 A 
HETATM    9  C10 UNK     1      29.924  -4.664  37.850  1.00  0.00     0.092 A 
HETATM   10  C15 UNK     1      29.337  -4.595  39.198  1.00  0.00     0.288 A 
HETATM   11  O2  UNK     1      28.483  -5.626  39.559  1.00  0.00    -0.275 OA
HETATM   12  O3  UNK     1      29.594  -3.666  39.956  1.00  0.00    -0.260 OA
HETATM   13  C12 UNK     1      28.194  -6.687  38.677  1.00  0.00     0.090 A 
HETATM   14  C9  UNK     1      28.759  -6.739  37.402  1.00  0.00     0.007 A 
HETATM   15  C17 UNK     1      27.321  -7.669  39.146  1.00  0.00     0.039 A 
HETATM   16  C13 UNK     1      28.422  -7.827  36.586  1.00  0.00     0.022 A 
HETATM   17  C14 UNK     1      27.548  -8.820  37.042  1.00  0.00    -0.058 A 
HETATM   18  C19 UNK     1      26.998  -8.741  38.321  1.00  0.00     0.010 A 
BRANCH  17  19
HETATM   19  C20 UNK     1      27.203  -9.969  36.156  1.00  0.00     0.034 C 
HETATM   20  C22 UNK     1      25.912 -10.663  36.582  1.00  0.00     0.010 C 
ENDBRANCH  17  19
ENDBRANCH   7   8
ENDBRANCH   1   7
BRANCH   2  21
HETATM   21  C6  UNK     1      35.802  -6.313  34.567  1.00  0.00     0.334 C 
BRANCH  21  22
HETATM   22  C8  UNK     1      36.250  -7.414  33.660  1.00  0.00     0.095 A 
HETATM   23  C11 UNK     1      36.026  -7.571  32.316  1.00  0.00     0.078 A 
HETATM   24  O1  UNK     1      36.630  -8.727  31.921  1.00  0.00    -0.294 OA
HETATM   25  C18 UNK     1      35.316  -6.805  31.286  1.00  0.00     0.079 C 
HETATM   26  C16 UNK     1      37.190  -9.200  33.068  1.00  0.00     0.180 A 
HETATM   27  N3  UNK     1      36.997  -8.460  34.138  1.00  0.00    -0.224 NA
BRANCH  26  28
HETATM   28  C21 UNK     1      37.907 -10.437  32.934  1.00  0.00     0.017 A 
HETATM   29  C23 UNK     1      37.665 -11.483  33.825  1.00  0.00     0.016 A 
HETATM   30  C25 UNK     1      38.362 -12.685  33.695  1.00  0.00     0.001 A 
HETATM   31  C27 UNK     1      39.300 -12.841  32.675  1.00  0.00     0.000 A 
HETATM   32  C26 UNK     1      39.542 -11.795  31.785  1.00  0.00     0.001 A 
HETATM   33  C24 UNK     1      38.846 -10.593  31.914  1.00  0.00     0.016 A 
ENDBRANCH  26  28
ENDBRANCH  21  22
ENDBRANCH   2  21
TORSDOF 6
ENDMDL
