MODEL 1
REMARK VINA RESULT:      -8.3      0.000      0.000
REMARK  4 active torsions:
REMARK  status: ('A' for Active; 'I' for Inactive)
REMARK    1  A    between atoms: C7_12  and  O2_2 
REMARK    2  A    between atoms: C9_14  and  O4_4 
REMARK    3  A    between atoms: C15_20  and  O5_5 
REMARK    4  A    between atoms: C3_8  and  C4_9 
ROOT
HETATM    1  O1  UNK     1      19.080  -1.046  17.787  1.00  0.00    -0.309 OA
HETATM    2  O3  UNK     1      19.179   2.188  15.312  1.00  0.00    -0.287 OA
HETATM    3  C1  UNK     1      19.100   1.369  17.527  1.00  0.00     0.081 A 
HETATM    4  C2  UNK     1      19.070   0.220  18.316  1.00  0.00     0.095 A 
HETATM    5  C3  UNK     1      19.117  -1.186  16.408  1.00  0.00     0.090 A 
HETATM    6  C5  UNK     1      19.148   1.224  16.064  1.00  0.00     0.190 A 
HETATM    7  C6  UNK     1      19.155  -0.159  15.545  1.00  0.00     0.094 A 
HETATM    8  C7  UNK     1      19.087   2.633  18.121  1.00  0.00     0.085 A 
HETATM    9  C8  UNK     1      19.026   0.329  19.706  1.00  0.00     0.075 A 
HETATM   10  C9  UNK     1      19.013   1.590  20.302  1.00  0.00     0.071 A 
HETATM   11  C10 UNK     1      19.043   2.740  19.511  1.00  0.00     0.074 A 
ENDROOT
BRANCH   5  12
HETATM   12  C4  UNK     1      19.132  -2.590  15.948  1.00  0.00    -0.002 A 
HETATM   13  C11 UNK     1      20.321  -3.323  15.975  1.00  0.00     0.017 A 
HETATM   14  C13 UNK     1      20.335  -4.649  15.541  1.00  0.00     0.037 A 
HETATM   15  C15 UNK     1      19.162  -5.244  15.078  1.00  0.00     0.065 A 
HETATM   16  C14 UNK     1      17.974  -4.515  15.050  1.00  0.00     0.037 A 
HETATM   17  C12 UNK     1      17.959  -3.188  15.484  1.00  0.00     0.017 A 
BRANCH  15  18
HETATM   18  O5  UNK     1      19.176  -6.538  14.656  1.00  0.00    -0.361 OA
HETATM   19  H10 UNK     1      18.374  -6.984  14.981  1.00  0.00     0.217 HD
ENDBRANCH  15  18
ENDBRANCH   5  12
BRANCH   8  20
HETATM   20  O2  UNK     1      19.116   3.785  17.393  1.00  0.00    -0.360 OA
HETATM   21  H8  UNK     1      18.372   3.814  16.772  1.00  0.00     0.217 HD
ENDBRANCH   8  20
BRANCH  10  22
HETATM   22  O4  UNK     1      18.971   1.700  21.659  1.00  0.00    -0.361 OA
HETATM   23  H9  UNK     1      18.141   1.311  21.982  1.00  0.00     0.217 HD
ENDBRANCH  10  22
TORSDOF 4
ENDMDL
MODEL 2
REMARK VINA RESULT:      -8.1     15.713     18.301
REMARK  4 active torsions:
REMARK  status: ('A' for Active; 'I' for Inactive)
REMARK    1  A    between atoms: C7_12  and  O2_2 
REMARK    2  A    between atoms: C9_14  and  O4_4 
REMARK    3  A    between atoms: C15_20  and  O5_5 
REMARK    4  A    between atoms: C3_8  and  C4_9 
ROOT
HETATM    1  O1  UNK     1      17.768   8.367  33.238  1.00  0.00    -0.309 OA
HETATM    2  O3  UNK     1      14.416   7.150  31.267  1.00  0.00    -0.287 OA
HETATM    3  C1  UNK     1      15.371   8.571  32.895  1.00  0.00     0.081 A 
HETATM    4  C2  UNK     1      16.556   8.942  33.530  1.00  0.00     0.095 A 
HETATM    5  C3  UNK     1      17.811   7.371  32.274  1.00  0.00     0.090 A 
HETATM    6  C5  UNK     1      15.416   7.521  31.866  1.00  0.00     0.190 A 
HETATM    7  C6  UNK     1      16.742   6.933  31.590  1.00  0.00     0.094 A 
HETATM    8  C7  UNK     1      14.166   9.191  33.233  1.00  0.00     0.085 A 
HETATM    9  C8  UNK     1      16.542   9.935  34.508  1.00  0.00     0.075 A 
HETATM   10  C9  UNK     1      15.340  10.556  34.848  1.00  0.00     0.071 A 
HETATM   11  C10 UNK     1      14.155  10.184  34.212  1.00  0.00     0.074 A 
ENDROOT
BRANCH   5  12
HETATM   12  C4  UNK     1      19.164   6.828  32.034  1.00  0.00    -0.002 A 
HETATM   13  C11 UNK     1      19.470   6.222  30.813  1.00  0.00     0.017 A 
HETATM   14  C13 UNK     1      20.747   5.709  30.586  1.00  0.00     0.037 A 
HETATM   15  C15 UNK     1      21.722   5.800  31.580  1.00  0.00     0.065 A 
HETATM   16  C14 UNK     1      21.420   6.404  32.800  1.00  0.00     0.037 A 
HETATM   17  C12 UNK     1      20.141   6.917  33.027  1.00  0.00     0.017 A 
BRANCH  15  18
HETATM   18  O5  UNK     1      22.969   5.301  31.359  1.00  0.00    -0.361 OA
HETATM   19  H10 UNK     1      23.469   5.934  30.813  1.00  0.00     0.217 HD
ENDBRANCH  15  18
ENDBRANCH   5  12
BRANCH   8  20
HETATM   20  O2  UNK     1      12.983   8.864  32.642  1.00  0.00    -0.360 OA
HETATM   21  H8  UNK     1      12.706   7.974  32.904  1.00  0.00     0.217 HD
ENDBRANCH   8  20
BRANCH  10  22
HETATM   22  O4  UNK     1      15.323  11.529  35.802  1.00  0.00    -0.361 OA
HETATM   23  H9  UNK     1      16.155  11.492  36.304  1.00  0.00     0.217 HD
ENDBRANCH  10  22
TORSDOF 4
ENDMDL
MODEL 3
REMARK VINA RESULT:      -8.0     11.798     15.511
REMARK  4 active torsions:
REMARK  status: ('A' for Active; 'I' for Inactive)
REMARK    1  A    between atoms: C7_12  and  O2_2 
REMARK    2  A    between atoms: C9_14  and  O4_4 
REMARK    3  A    between atoms: C15_20  and  O5_5 
REMARK    4  A    between atoms: C3_8  and  C4_9 
ROOT
HETATM    1  O1  UNK     1      19.268   1.979  31.406  1.00  0.00    -0.309 OA
HETATM    2  O3  UNK     1      17.991   1.697  27.548  1.00  0.00    -0.287 OA
HETATM    3  C1  UNK     1      19.055   0.654  29.382  1.00  0.00     0.081 A 
HETATM    4  C2  UNK     1      19.465   0.817  30.704  1.00  0.00     0.095 A 
HETATM    5  C3  UNK     1      18.639   3.038  30.769  1.00  0.00     0.090 A 
HETATM    6  C5  UNK     1      18.379   1.772  28.705  1.00  0.00     0.190 A 
HETATM    7  C6  UNK     1      18.194   3.001  29.503  1.00  0.00     0.094 A 
HETATM    8  C7  UNK     1      19.282  -0.552  28.715  1.00  0.00     0.085 A 
HETATM    9  C8  UNK     1      20.106  -0.228  31.369  1.00  0.00     0.075 A 
HETATM   10  C9  UNK     1      20.334  -1.434  30.707  1.00  0.00     0.071 A 
HETATM   11  C10 UNK     1      19.923  -1.596  29.383  1.00  0.00     0.074 A 
ENDROOT
BRANCH   5  12
HETATM   12  C4  UNK     1      18.473   4.236  31.618  1.00  0.00    -0.002 A 
HETATM   13  C11 UNK     1      18.164   4.096  32.973  1.00  0.00     0.017 A 
HETATM   14  C13 UNK     1      18.007   5.227  33.775  1.00  0.00     0.037 A 
HETATM   15  C15 UNK     1      18.159   6.500  33.224  1.00  0.00     0.065 A 
HETATM   16  C14 UNK     1      18.467   6.642  31.871  1.00  0.00     0.037 A 
HETATM   17  C12 UNK     1      18.624   5.510  31.069  1.00  0.00     0.017 A 
BRANCH  15  18
HETATM   18  O5  UNK     1      18.007   7.603  34.006  1.00  0.00    -0.361 OA
HETATM   19  H10 UNK     1      17.686   7.325  34.883  1.00  0.00     0.217 HD
ENDBRANCH  15  18
ENDBRANCH   5  12
BRANCH   8  20
HETATM   20  O2  UNK     1      18.900  -0.760  27.425  1.00  0.00    -0.360 OA
HETATM   21  H8  UNK     1      18.196  -1.425  27.381  1.00  0.00     0.217 HD
ENDBRANCH   8  20
BRANCH  10  22
HETATM   22  O4  UNK     1      20.959  -2.458  31.354  1.00  0.00    -0.361 OA
HETATM   23  H9  UNK     1      21.551  -2.088  32.031  1.00  0.00     0.217 HD
ENDBRANCH  10  22
TORSDOF 4
ENDMDL
MODEL 4
REMARK VINA RESULT:      -7.9     14.109     17.462
REMARK  4 active torsions:
REMARK  status: ('A' for Active; 'I' for Inactive)
REMARK    1  A    between atoms: C7_12  and  O2_2 
REMARK    2  A    between atoms: C9_14  and  O4_4 
REMARK    3  A    between atoms: C15_20  and  O5_5 
REMARK    4  A    between atoms: C3_8  and  C4_9 
ROOT
HETATM    1  O1  UNK     1      18.804  -0.477  33.992  1.00  0.00    -0.309 OA
HETATM    2  O3  UNK     1      20.465  -3.584  36.037  1.00  0.00    -0.287 OA
HETATM    3  C1  UNK     1      19.134  -1.633  36.103  1.00  0.00     0.081 A 
HETATM    4  C2  UNK     1      18.594  -0.597  35.344  1.00  0.00     0.095 A 
HETATM    5  C3  UNK     1      19.593  -1.426  33.360  1.00  0.00     0.090 A 
HETATM    6  C5  UNK     1      19.964  -2.647  35.433  1.00  0.00     0.190 A 
HETATM    7  C6  UNK     1      20.161  -2.471  33.980  1.00  0.00     0.094 A 
HETATM    8  C7  UNK     1      18.887  -1.706  37.476  1.00  0.00     0.085 A 
HETATM    9  C8  UNK     1      17.802   0.376  35.953  1.00  0.00     0.075 A 
HETATM   10  C9  UNK     1      17.553   0.307  37.324  1.00  0.00     0.071 A 
HETATM   11  C10 UNK     1      18.094  -0.731  38.084  1.00  0.00     0.074 A 
ENDROOT
BRANCH   5  12
HETATM   12  C4  UNK     1      19.747  -1.205  31.907  1.00  0.00    -0.002 A 
HETATM   13  C11 UNK     1      19.404   0.028  31.346  1.00  0.00     0.017 A 
HETATM   14  C13 UNK     1      19.550   0.237  29.974  1.00  0.00     0.037 A 
HETATM   15  C15 UNK     1      20.039  -0.785  29.161  1.00  0.00     0.065 A 
HETATM   16  C14 UNK     1      20.383  -2.016  29.719  1.00  0.00     0.037 A 
HETATM   17  C12 UNK     1      20.236  -2.226  31.091  1.00  0.00     0.017 A 
BRANCH  15  18
HETATM   18  O5  UNK     1      20.183  -0.580  27.823  1.00  0.00    -0.361 OA
HETATM   19  H10 UNK     1      20.711  -1.308  27.448  1.00  0.00     0.217 HD
ENDBRANCH  15  18
ENDBRANCH   5  12
BRANCH   8  20
HETATM   20  O2  UNK     1      19.391  -2.698  38.260  1.00  0.00    -0.360 OA
HETATM   21  H8  UNK     1      18.675  -3.174  38.709  1.00  0.00     0.217 HD
ENDBRANCH   8  20
BRANCH  10  22
HETATM   22  O4  UNK     1      16.779   1.255  37.923  1.00  0.00    -0.361 OA
HETATM   23  H9  UNK     1      17.292   1.679  38.632  1.00  0.00     0.217 HD
ENDBRANCH  10  22
TORSDOF 4
ENDMDL
MODEL 5
REMARK VINA RESULT:      -7.9     15.217     18.129
REMARK  4 active torsions:
REMARK  status: ('A' for Active; 'I' for Inactive)
REMARK    1  A    between atoms: C7_12  and  O2_2 
REMARK    2  A    between atoms: C9_14  and  O4_4 
REMARK    3  A    between atoms: C15_20  and  O5_5 
REMARK    4  A    between atoms: C3_8  and  C4_9 
ROOT
HETATM    1  O1  UNK     1      18.261   3.608  34.272  1.00  0.00    -0.309 OA
HETATM    2  O3  UNK     1      18.348   1.524  30.772  1.00  0.00    -0.287 OA
HETATM    3  C1  UNK     1      18.343   1.463  33.134  1.00  0.00     0.081 A 
HETATM    4  C2  UNK     1      18.309   2.236  34.293  1.00  0.00     0.095 A 
HETATM    5  C3  UNK     1      18.252   4.250  33.042  1.00  0.00     0.090 A 
HETATM    6  C5  UNK     1      18.324   2.140  31.828  1.00  0.00     0.190 A 
HETATM    7  C6  UNK     1      18.275   3.616  31.859  1.00  0.00     0.094 A 
HETATM    8  C7  UNK     1      18.391   0.070  33.216  1.00  0.00     0.085 A 
HETATM    9  C8  UNK     1      18.323   1.620  35.544  1.00  0.00     0.075 A 
HETATM   10  C9  UNK     1      18.371   0.228  35.630  1.00  0.00     0.071 A 
HETATM   11  C10 UNK     1      18.405  -0.545  34.468  1.00  0.00     0.074 A 
ENDROOT
BRANCH   5  12
HETATM   12  C4  UNK     1      18.193   5.723  33.136  1.00  0.00    -0.002 A 
HETATM   13  C11 UNK     1      19.236   6.429  33.740  1.00  0.00     0.017 A 
HETATM   14  C13 UNK     1      19.181   7.820  33.828  1.00  0.00     0.037 A 
HETATM   15  C15 UNK     1      18.083   8.508  33.312  1.00  0.00     0.065 A 
HETATM   16  C14 UNK     1      17.040   7.806  32.708  1.00  0.00     0.037 A 
HETATM   17  C12 UNK     1      17.096   6.414  32.620  1.00  0.00     0.017 A 
BRANCH  15  18
HETATM   18  O5  UNK     1      18.029   9.866  33.396  1.00  0.00    -0.361 OA
HETATM   19  H10 UNK     1      17.431  10.113  34.123  1.00  0.00     0.217 HD
ENDBRANCH  15  18
ENDBRANCH   5  12
BRANCH   8  20
HETATM   20  O2  UNK     1      18.424  -0.729  32.113  1.00  0.00    -0.360 OA
HETATM   21  H8  UNK     1      18.472  -1.662  32.370  1.00  0.00     0.217 HD
ENDBRANCH   8  20
BRANCH  10  22
HETATM   22  O4  UNK     1      18.384  -0.378  36.850  1.00  0.00    -0.361 OA
HETATM   23  H9  UNK     1      18.481  -1.337  36.724  1.00  0.00     0.217 HD
ENDBRANCH  10  22
TORSDOF 4
ENDMDL
MODEL 6
REMARK VINA RESULT:      -7.8     13.337     15.255
REMARK  4 active torsions:
REMARK  status: ('A' for Active; 'I' for Inactive)
REMARK    1  A    between atoms: C7_12  and  O2_2 
REMARK    2  A    between atoms: C9_14  and  O4_4 
REMARK    3  A    between atoms: C15_20  and  O5_5 
REMARK    4  A    between atoms: C3_8  and  C4_9 
ROOT
HETATM    1  O1  UNK     1       9.545   5.456   9.659  1.00  0.00    -0.309 OA
HETATM    2  O3  UNK     1       9.391   6.568   5.743  1.00  0.00    -0.287 OA
HETATM    3  C1  UNK     1      10.714   5.862   7.569  1.00  0.00     0.081 A 
HETATM    4  C2  UNK     1      10.696   5.489   8.912  1.00  0.00     0.095 A 
HETATM    5  C3  UNK     1       8.352   5.814   9.051  1.00  0.00     0.090 A 
HETATM    6  C5  UNK     1       9.449   6.235   6.918  1.00  0.00     0.190 A 
HETATM    7  C6  UNK     1       8.240   6.184   7.765  1.00  0.00     0.094 A 
HETATM    8  C7  UNK     1      11.916   5.878   6.857  1.00  0.00     0.085 A 
HETATM    9  C8  UNK     1      11.881   5.129   9.552  1.00  0.00     0.075 A 
HETATM   10  C9  UNK     1      13.083   5.144   8.844  1.00  0.00     0.071 A 
HETATM   11  C10 UNK     1      13.101   5.518   7.500  1.00  0.00     0.074 A 
ENDROOT
BRANCH   5  12
HETATM   12  C4  UNK     1       7.177   5.737   9.943  1.00  0.00    -0.002 A 
HETATM   13  C11 UNK     1       6.701   6.887  10.577  1.00  0.00     0.017 A 
HETATM   14  C13 UNK     1       5.592   6.814  11.419  1.00  0.00     0.037 A 
HETATM   15  C15 UNK     1       4.956   5.590  11.630  1.00  0.00     0.065 A 
HETATM   16  C14 UNK     1       5.429   4.441  10.999  1.00  0.00     0.037 A 
HETATM   17  C12 UNK     1       6.539   4.513  10.156  1.00  0.00     0.017 A 
BRANCH  15  18
HETATM   18  O5  UNK     1       3.872   5.519  12.451  1.00  0.00    -0.361 OA
HETATM   19  H10 UNK     1       3.834   6.327  12.993  1.00  0.00     0.217 HD
ENDBRANCH  15  18
ENDBRANCH   5  12
BRANCH   8  20
HETATM   20  O2  UNK     1      11.986   6.234   5.544  1.00  0.00    -0.360 OA
HETATM   21  H8  UNK     1      11.158   6.651   5.260  1.00  0.00     0.217 HD
ENDBRANCH   8  20
BRANCH  10  22
HETATM   22  O4  UNK     1      14.243   4.792   9.466  1.00  0.00    -0.361 OA
HETATM   23  H9  UNK     1      14.035   4.204  10.213  1.00  0.00     0.217 HD
ENDBRANCH  10  22
TORSDOF 4
ENDMDL
MODEL 7
REMARK VINA RESULT:      -7.7     17.969     21.269
REMARK  4 active torsions:
REMARK  status: ('A' for Active; 'I' for Inactive)
REMARK    1  A    between atoms: C7_12  and  O2_2 
REMARK    2  A    between atoms: C9_14  and  O4_4 
REMARK    3  A    between atoms: C15_20  and  O5_5 
REMARK    4  A    between atoms: C3_8  and  C4_9 
ROOT
HETATM    1  O1  UNK     1      20.537  -6.139  35.733  1.00  0.00    -0.309 OA
HETATM    2  O3  UNK     1      20.717  -7.283  39.640  1.00  0.00    -0.287 OA
HETATM    3  C1  UNK     1      20.945  -7.890  37.367  1.00  0.00     0.081 A 
HETATM    4  C2  UNK     1      20.867  -7.433  36.053  1.00  0.00     0.095 A 
HETATM    5  C3  UNK     1      20.264  -5.253  36.765  1.00  0.00     0.090 A 
HETATM    6  C5  UNK     1      20.664  -6.951  38.464  1.00  0.00     0.190 A 
HETATM    7  C6  UNK     1      20.312  -5.572  38.068  1.00  0.00     0.094 A 
HETATM    8  C7  UNK     1      21.285  -9.219  37.633  1.00  0.00     0.085 A 
HETATM    9  C8  UNK     1      21.130  -8.302  34.995  1.00  0.00     0.075 A 
HETATM   10  C9  UNK     1      21.471  -9.629  35.257  1.00  0.00     0.071 A 
HETATM   11  C10 UNK     1      21.548 -10.087  36.573  1.00  0.00     0.074 A 
ENDROOT
BRANCH   5  12
HETATM   12  C4  UNK     1      19.927  -3.889  36.310  1.00  0.00    -0.002 A 
HETATM   13  C11 UNK     1      19.264  -3.008  37.167  1.00  0.00     0.017 A 
HETATM   14  C13 UNK     1      18.946  -1.719  36.738  1.00  0.00     0.037 A 
HETATM   15  C15 UNK     1      19.290  -1.308  35.450  1.00  0.00     0.065 A 
HETATM   16  C14 UNK     1      19.952  -2.186  34.591  1.00  0.00     0.037 A 
HETATM   17  C12 UNK     1      20.270  -3.475  35.021  1.00  0.00     0.017 A 
BRANCH  15  18
HETATM   18  O5  UNK     1      18.981  -0.051  35.031  1.00  0.00    -0.361 OA
HETATM   19  H10 UNK     1      18.577   0.437  35.770  1.00  0.00     0.217 HD
ENDBRANCH  15  18
ENDBRANCH   5  12
BRANCH   8  20
HETATM   20  O2  UNK     1      21.375  -9.713  38.899  1.00  0.00    -0.360 OA
HETATM   21  H8  UNK     1      21.248 -10.673  38.900  1.00  0.00     0.217 HD
ENDBRANCH   8  20
BRANCH  10  22
HETATM   22  O4  UNK     1      21.729 -10.481  34.225  1.00  0.00    -0.361 OA
HETATM   23  H9  UNK     1      22.566 -10.221  33.804  1.00  0.00     0.217 HD
ENDBRANCH  10  22
TORSDOF 4
ENDMDL
MODEL 8
REMARK VINA RESULT:      -7.7     13.400     17.506
REMARK  4 active torsions:
REMARK  status: ('A' for Active; 'I' for Inactive)
REMARK    1  A    between atoms: C7_12  and  O2_2 
REMARK    2  A    between atoms: C9_14  and  O4_4 
REMARK    3  A    between atoms: C15_20  and  O5_5 
REMARK    4  A    between atoms: C3_8  and  C4_9 
ROOT
HETATM    1  O1  UNK     1      19.000  -0.036  32.971  1.00  0.00    -0.309 OA
HETATM    2  O3  UNK     1      20.932  -3.616  32.759  1.00  0.00    -0.287 OA
HETATM    3  C1  UNK     1      20.091  -1.728  31.613  1.00  0.00     0.081 A 
HETATM    4  C2  UNK     1      19.427  -0.511  31.757  1.00  0.00     0.095 A 
HETATM    5  C3  UNK     1      19.236  -0.804  34.102  1.00  0.00     0.090 A 
HETATM    6  C5  UNK     1      20.351  -2.541  32.811  1.00  0.00     0.190 A 
HETATM    7  C6  UNK     1      19.870  -1.987  34.093  1.00  0.00     0.094 A 
HETATM    8  C7  UNK     1      20.503  -2.163  30.351  1.00  0.00     0.085 A 
HETATM    9  C8  UNK     1      19.170   0.280  30.638  1.00  0.00     0.075 A 
HETATM   10  C9  UNK     1      19.580  -0.151  29.376  1.00  0.00     0.071 A 
HETATM   11  C10 UNK     1      20.245  -1.370  29.233  1.00  0.00     0.074 A 
ENDROOT
BRANCH   5  12
HETATM   12  C4  UNK     1      18.741  -0.195  35.354  1.00  0.00    -0.002 A 
HETATM   13  C11 UNK     1      18.696   1.194  35.487  1.00  0.00     0.017 A 
HETATM   14  C13 UNK     1      18.229   1.769  36.669  1.00  0.00     0.037 A 
HETATM   15  C15 UNK     1      17.806   0.956  37.721  1.00  0.00     0.065 A 
HETATM   16  C14 UNK     1      17.850  -0.431  37.590  1.00  0.00     0.037 A 
HETATM   17  C12 UNK     1      18.317  -1.007  36.408  1.00  0.00     0.017 A 
BRANCH  15  18
HETATM   18  O5  UNK     1      17.348   1.517  38.874  1.00  0.00    -0.361 OA
HETATM   19  H10 UNK     1      16.734   0.896  39.304  1.00  0.00     0.217 HD
ENDBRANCH  15  18
ENDBRANCH   5  12
BRANCH   8  20
HETATM   20  O2  UNK     1      21.156  -3.343  30.159  1.00  0.00    -0.360 OA
HETATM   21  H8  UNK     1      21.077  -3.630  29.237  1.00  0.00     0.217 HD
ENDBRANCH   8  20
BRANCH  10  22
HETATM   22  O4  UNK     1      19.332   0.620  28.280  1.00  0.00    -0.361 OA
HETATM   23  H9  UNK     1      20.051   0.496  27.638  1.00  0.00     0.217 HD
ENDBRANCH  10  22
TORSDOF 4
ENDMDL
MODEL 9
REMARK VINA RESULT:      -7.7     14.269     17.810
REMARK  4 active torsions:
REMARK  status: ('A' for Active; 'I' for Inactive)
REMARK    1  A    between atoms: C7_12  and  O2_2 
REMARK    2  A    between atoms: C9_14  and  O4_4 
REMARK    3  A    between atoms: C15_20  and  O5_5 
REMARK    4  A    between atoms: C3_8  and  C4_9 
ROOT
HETATM    1  O1  UNK     1      18.230   2.497  34.354  1.00  0.00    -0.309 OA
HETATM    2  O3  UNK     1      18.452  -1.407  33.213  1.00  0.00    -0.287 OA
HETATM    3  C1  UNK     1      18.214   0.149  34.975  1.00  0.00     0.081 A 
HETATM    4  C2  UNK     1      18.143   1.503  35.297  1.00  0.00     0.095 A 
HETATM    5  C3  UNK     1      18.400   2.136  33.026  1.00  0.00     0.090 A 
HETATM    6  C5  UNK     1      18.386  -0.239  33.566  1.00  0.00     0.190 A 
HETATM    7  C6  UNK     1      18.475   0.868  32.592  1.00  0.00     0.094 A 
HETATM    8  C7  UNK     1      18.121  -0.821  35.976  1.00  0.00     0.085 A 
HETATM    9  C8  UNK     1      17.979   1.897  36.624  1.00  0.00     0.075 A 
HETATM   10  C9  UNK     1      17.885   0.932  37.627  1.00  0.00     0.071 A 
HETATM   11  C10 UNK     1      17.957  -0.424  37.304  1.00  0.00     0.074 A 
ENDROOT
BRANCH   5  12
HETATM   12  C4  UNK     1      18.473   3.282  32.098  1.00  0.00    -0.002 A 
HETATM   13  C11 UNK     1      18.773   3.074  30.749  1.00  0.00     0.017 A 
HETATM   14  C13 UNK     1      18.842   4.156  29.872  1.00  0.00     0.037 A 
HETATM   15  C15 UNK     1      18.612   5.450  30.341  1.00  0.00     0.065 A 
HETATM   16  C14 UNK     1      18.312   5.661  31.686  1.00  0.00     0.037 A 
HETATM   17  C12 UNK     1      18.243   4.578  32.564  1.00  0.00     0.017 A 
BRANCH  15  18
HETATM   18  O5  UNK     1      18.677   6.506  29.485  1.00  0.00    -0.361 OA
HETATM   19  H10 UNK     1      19.587   6.853  29.482  1.00  0.00     0.217 HD
ENDBRANCH  15  18
ENDBRANCH   5  12
BRANCH   8  20
HETATM   20  O2  UNK     1      18.184  -2.155  35.713  1.00  0.00    -0.360 OA
HETATM   21  H8  UNK     1      17.294  -2.540  35.688  1.00  0.00     0.217 HD
ENDBRANCH   8  20
BRANCH  10  22
HETATM   22  O4  UNK     1      17.723   1.313  38.925  1.00  0.00    -0.361 OA
HETATM   23  H9  UNK     1      18.502   1.034  39.435  1.00  0.00     0.217 HD
ENDBRANCH  10  22
TORSDOF 4
ENDMDL
MODEL 10
REMARK VINA RESULT:      -7.7     13.296     17.296
REMARK  4 active torsions:
REMARK  status: ('A' for Active; 'I' for Inactive)
REMARK    1  A    between atoms: C7_12  and  O2_2 
REMARK    2  A    between atoms: C9_14  and  O4_4 
REMARK    3  A    between atoms: C15_20  and  O5_5 
REMARK    4  A    between atoms: C3_8  and  C4_9 
ROOT
HETATM    1  O1  UNK     1      18.188   1.690  32.870  1.00  0.00    -0.309 OA
HETATM    2  O3  UNK     1      18.636   5.658  33.680  1.00  0.00    -0.287 OA
HETATM    3  C1  UNK     1      18.452   3.961  32.047  1.00  0.00     0.081 A 
HETATM    4  C2  UNK     1      18.295   2.591  31.840  1.00  0.00     0.095 A 
HETATM    5  C3  UNK     1      18.244   2.166  34.172  1.00  0.00     0.090 A 
HETATM    6  C5  UNK     1      18.503   4.469  33.426  1.00  0.00     0.190 A 
HETATM    7  C6  UNK     1      18.386   3.460  34.498  1.00  0.00     0.094 A 
HETATM    8  C7  UNK     1      18.556   4.831  30.959  1.00  0.00     0.085 A 
HETATM    9  C8  UNK     1      18.241   2.083  30.543  1.00  0.00     0.075 A 
HETATM   10  C9  UNK     1      18.344   2.949  29.454  1.00  0.00     0.071 A 
HETATM   11  C10 UNK     1      18.502   4.321  29.662  1.00  0.00     0.074 A 
ENDROOT
BRANCH   5  12
HETATM   12  C4  UNK     1      18.112   1.114  35.200  1.00  0.00    -0.002 A 
HETATM   13  C11 UNK     1      18.298  -0.228  34.858  1.00  0.00     0.017 A 
HETATM   14  C13 UNK     1      18.174  -1.221  35.829  1.00  0.00     0.037 A 
HETATM   15  C15 UNK     1      17.864  -0.876  37.145  1.00  0.00     0.065 A 
HETATM   16  C14 UNK     1      17.678   0.462  37.489  1.00  0.00     0.037 A 
HETATM   17  C12 UNK     1      17.802   1.456  36.518  1.00  0.00     0.017 A 
BRANCH  15  18
HETATM   18  O5  UNK     1      17.744  -1.846  38.093  1.00  0.00    -0.361 OA
HETATM   19  H10 UNK     1      18.544  -2.400  38.079  1.00  0.00     0.217 HD
ENDBRANCH  15  18
ENDBRANCH   5  12
BRANCH   8  20
HETATM   20  O2  UNK     1      18.709   6.176  31.109  1.00  0.00    -0.360 OA
HETATM   21  H8  UNK     1      18.049   6.528  31.725  1.00  0.00     0.217 HD
ENDBRANCH   8  20
BRANCH  10  22
HETATM   22  O4  UNK     1      18.291   2.457  28.185  1.00  0.00    -0.361 OA
HETATM   23  H9  UNK     1      18.779   3.055  27.594  1.00  0.00     0.217 HD
ENDBRANCH  10  22
TORSDOF 4
ENDMDL
