MODEL 1
REMARK VINA RESULT:      -8.1      0.000      0.000
REMARK  4 active torsions:
REMARK  status: ('A' for Active; 'I' for Inactive)
REMARK    1  A    between atoms: C1_9  and  N1_6 
REMARK    2  A    between atoms: C5_13  and  N1_6 
REMARK    3  A    between atoms: C4_12  and  N2_7 
REMARK       I    between atoms: C16_24  and  N3_8 
REMARK    4  A    between atoms: C16_24  and  C7_15 
ROOT
HETATM    1  O1  UNK     1      15.566   6.408  10.035  1.00  0.00    -0.273 OA
HETATM    2  O2  UNK     1      14.799   4.274  10.288  1.00  0.00    -0.257 OA
HETATM    3  C1  UNK     1      12.907   7.195   9.307  1.00  0.00     0.085 A 
HETATM    4  C2  UNK     1      14.019   8.180   9.343  1.00  0.00     0.027 A 
HETATM    5  C3  UNK     1      15.301   7.752   9.706  1.00  0.00     0.092 A 
HETATM    6  C4  UNK     1      13.237   5.933   9.630  1.00  0.00     0.205 A 
HETATM    7  C6  UNK     1      13.874   9.543   9.030  1.00  0.00     0.017 A 
HETATM    8  C8  UNK     1      16.398   8.616   9.764  1.00  0.00     0.038 A 
HETATM    9  C9  UNK     1      14.570   5.446  10.010  1.00  0.00     0.324 A 
HETATM   10  C11 UNK     1      14.965  10.422   9.084  1.00  0.00     0.001 A 
HETATM   11  C12 UNK     1      16.225   9.959   9.450  1.00  0.00     0.003 A 
ENDROOT
BRANCH   3  12
HETATM   12  N1  UNK     1      11.660   7.642   8.956  1.00  0.00    -0.352 N 
HETATM   13  H1  UNK     1      11.162   8.106   9.711  1.00  0.00     0.166 HD
BRANCH  12  14
HETATM   14  C5  UNK     1      10.863   7.228   7.888  1.00  0.00     0.048 A 
HETATM   15  C10 UNK     1      11.406   7.176   6.595  1.00  0.00     0.030 A 
HETATM   16  C14 UNK     1      10.628   6.766   5.513  1.00  0.00     0.002 A 
HETATM   17  C15 UNK     1       9.295   6.404   5.711  1.00  0.00     0.001 A 
HETATM   18  C13 UNK     1       8.741   6.451   6.990  1.00  0.00     0.019 A 
HETATM   19  C7  UNK     1       9.521   6.861   8.072  1.00  0.00     0.058 A 
BRANCH  19  20
HETATM   20  C16 UNK     1       8.913   6.900   9.397  1.00  0.00     0.251 C 
HETATM   21  O5  UNK     1       8.840   7.958  10.042  1.00  0.00    -0.268 OA
HETATM   22  N3  UNK     1       8.401   5.711   9.905  1.00  0.00    -0.366 N 
HETATM   23  H10 UNK     1       8.447   4.839   9.387  1.00  0.00     0.159 HD
HETATM   24  H11 UNK     1       7.961   5.681  10.819  1.00  0.00     0.159 HD
ENDBRANCH  19  20
ENDBRANCH  12  14
ENDBRANCH   3  12
BRANCH   6  25
HETATM   25  N2  UNK     1      12.195   4.957   9.606  1.00  0.00    -0.107 N 
HETATM   26  O3  UNK     1      11.472   4.883  10.607  1.00  0.00    -0.531 OA
HETATM   27  O4  UNK     1      12.098   4.262   8.588  1.00  0.00    -0.531 OA
ENDBRANCH   6  25
TORSDOF 4
ENDMDL
MODEL 2
REMARK VINA RESULT:      -8.1     23.243     25.397
REMARK  4 active torsions:
REMARK  status: ('A' for Active; 'I' for Inactive)
REMARK    1  A    between atoms: C1_9  and  N1_6 
REMARK    2  A    between atoms: C5_13  and  N1_6 
REMARK    3  A    between atoms: C4_12  and  N2_7 
REMARK       I    between atoms: C16_24  and  N3_8 
REMARK    4  A    between atoms: C16_24  and  C7_15 
ROOT
HETATM    1  O1  UNK     1      19.297   0.060  28.686  1.00  0.00    -0.273 OA
HETATM    2  O2  UNK     1      18.304   2.057  28.209  1.00  0.00    -0.257 OA
HETATM    3  C1  UNK     1      19.192   0.758  31.464  1.00  0.00     0.085 A 
HETATM    4  C2  UNK     1      19.782  -0.530  31.016  1.00  0.00     0.027 A 
HETATM    5  C3  UNK     1      19.810  -0.830  29.650  1.00  0.00     0.092 A 
HETATM    6  C4  UNK     1      18.727   1.556  30.489  1.00  0.00     0.205 A 
HETATM    7  C6  UNK     1      20.328  -1.491  31.885  1.00  0.00     0.017 A 
HETATM    8  C8  UNK     1      20.347  -2.021  29.149  1.00  0.00     0.038 A 
HETATM    9  C9  UNK     1      18.744   1.277  29.045  1.00  0.00     0.324 A 
HETATM   10  C11 UNK     1      20.869  -2.688  31.397  1.00  0.00     0.001 A 
HETATM   11  C12 UNK     1      20.879  -2.952  30.031  1.00  0.00     0.003 A 
ENDROOT
BRANCH   3  12
HETATM   12  N1  UNK     1      19.169   1.025  32.809  1.00  0.00    -0.352 N 
HETATM   13  H1  UNK     1      20.076   1.272  33.194  1.00  0.00     0.166 HD
BRANCH  12  14
HETATM   14  C5  UNK     1      18.211   0.643  33.748  1.00  0.00     0.048 A 
HETATM   15  C10 UNK     1      17.530  -0.574  33.592  1.00  0.00     0.030 A 
HETATM   16  C14 UNK     1      16.568  -0.975  34.518  1.00  0.00     0.002 A 
HETATM   17  C15 UNK     1      16.274  -0.162  35.613  1.00  0.00     0.001 A 
HETATM   18  C13 UNK     1      16.942   1.050  35.782  1.00  0.00     0.019 A 
HETATM   19  C7  UNK     1      17.905   1.450  34.855  1.00  0.00     0.058 A 
BRANCH  19  20
HETATM   20  C16 UNK     1      18.586   2.723  35.059  1.00  0.00     0.251 C 
HETATM   21  O5  UNK     1      18.342   3.707  34.342  1.00  0.00    -0.268 OA
HETATM   22  N3  UNK     1      19.506   2.801  36.098  1.00  0.00    -0.366 N 
HETATM   23  H10 UNK     1      19.712   2.008  36.697  1.00  0.00     0.159 HD
HETATM   24  H11 UNK     1      20.005   3.664  36.290  1.00  0.00     0.159 HD
ENDBRANCH  19  20
ENDBRANCH  12  14
ENDBRANCH   3  12
BRANCH   6  25
HETATM   25  N2  UNK     1      18.152   2.804  30.879  1.00  0.00    -0.107 N 
HETATM   26  O3  UNK     1      18.907   3.783  30.916  1.00  0.00    -0.531 OA
HETATM   27  O4  UNK     1      16.946   2.807  31.150  1.00  0.00    -0.531 OA
ENDBRANCH   6  25
TORSDOF 4
ENDMDL
MODEL 3
REMARK VINA RESULT:      -8.1     24.082     26.160
REMARK  4 active torsions:
REMARK  status: ('A' for Active; 'I' for Inactive)
REMARK    1  A    between atoms: C1_9  and  N1_6 
REMARK    2  A    between atoms: C5_13  and  N1_6 
REMARK    3  A    between atoms: C4_12  and  N2_7 
REMARK       I    between atoms: C16_24  and  N3_8 
REMARK    4  A    between atoms: C16_24  and  C7_15 
ROOT
HETATM    1  O1  UNK     1      19.879  -2.254  35.011  1.00  0.00    -0.273 OA
HETATM    2  O2  UNK     1      21.328  -2.854  33.354  1.00  0.00    -0.257 OA
HETATM    3  C1  UNK     1      18.660  -0.421  33.174  1.00  0.00     0.085 A 
HETATM    4  C2  UNK     1      18.171  -0.549  34.572  1.00  0.00     0.027 A 
HETATM    5  C3  UNK     1      18.796  -1.458  35.434  1.00  0.00     0.092 A 
HETATM    6  C4  UNK     1      19.697  -1.208  32.845  1.00  0.00     0.205 A 
HETATM    7  C6  UNK     1      17.105   0.194  35.105  1.00  0.00     0.017 A 
HETATM    8  C8  UNK     1      18.396  -1.638  36.761  1.00  0.00     0.038 A 
HETATM    9  C9  UNK     1      20.381  -2.169  33.723  1.00  0.00     0.324 A 
HETATM   10  C11 UNK     1      16.692   0.025  36.434  1.00  0.00     0.001 A 
HETATM   11  C12 UNK     1      17.337  -0.889  37.261  1.00  0.00     0.003 A 
ENDROOT
BRANCH   3  12
HETATM   12  N1  UNK     1      18.026   0.471  32.348  1.00  0.00    -0.352 N 
HETATM   13  H1  UNK     1      17.559   0.039  31.557  1.00  0.00     0.166 HD
BRANCH  12  14
HETATM   14  C5  UNK     1      18.248   1.844  32.227  1.00  0.00     0.048 A 
HETATM   15  C10 UNK     1      18.232   2.655  33.372  1.00  0.00     0.030 A 
HETATM   16  C14 UNK     1      18.450   4.028  33.274  1.00  0.00     0.002 A 
HETATM   17  C15 UNK     1      18.688   4.608  32.028  1.00  0.00     0.001 A 
HETATM   18  C13 UNK     1      18.707   3.815  30.880  1.00  0.00     0.019 A 
HETATM   19  C7  UNK     1      18.488   2.440  30.980  1.00  0.00     0.058 A 
BRANCH  19  20
HETATM   20  C16 UNK     1      18.515   1.639  29.763  1.00  0.00     0.251 C 
HETATM   21  O5  UNK     1      17.474   1.384  29.136  1.00  0.00    -0.268 OA
HETATM   22  N3  UNK     1      19.751   1.184  29.318  1.00  0.00    -0.366 N 
HETATM   23  H10 UNK     1      20.611   1.388  29.816  1.00  0.00     0.159 HD
HETATM   24  H11 UNK     1      19.829   0.627  28.473  1.00  0.00     0.159 HD
ENDBRANCH  19  20
ENDBRANCH  12  14
ENDBRANCH   3  12
BRANCH   6  25
HETATM   25  N2  UNK     1      20.195  -1.114  31.510  1.00  0.00    -0.107 N 
HETATM   26  O3  UNK     1      21.113  -0.309  31.309  1.00  0.00    -0.531 OA
HETATM   27  O4  UNK     1      19.670  -1.843  30.661  1.00  0.00    -0.531 OA
ENDBRANCH   6  25
TORSDOF 4
ENDMDL
MODEL 4
REMARK VINA RESULT:      -7.9      1.593      2.337
REMARK  4 active torsions:
REMARK  status: ('A' for Active; 'I' for Inactive)
REMARK    1  A    between atoms: C1_9  and  N1_6 
REMARK    2  A    between atoms: C5_13  and  N1_6 
REMARK    3  A    between atoms: C4_12  and  N2_7 
REMARK       I    between atoms: C16_24  and  N3_8 
REMARK    4  A    between atoms: C16_24  and  C7_15 
ROOT
HETATM    1  O1  UNK     1      16.011   6.429  10.264  1.00  0.00    -0.273 OA
HETATM    2  O2  UNK     1      14.969   4.421  10.563  1.00  0.00    -0.257 OA
HETATM    3  C1  UNK     1      13.600   7.414   9.066  1.00  0.00     0.085 A 
HETATM    4  C2  UNK     1      14.803   8.277   9.197  1.00  0.00     0.027 A 
HETATM    5  C3  UNK     1      15.958   7.755   9.790  1.00  0.00     0.092 A 
HETATM    6  C4  UNK     1      13.727   6.162   9.536  1.00  0.00     0.205 A 
HETATM    7  C6  UNK     1      14.868   9.610   8.757  1.00  0.00     0.017 A 
HETATM    8  C8  UNK     1      17.129   8.501   9.951  1.00  0.00     0.038 A 
HETATM    9  C9  UNK     1      14.923   5.578  10.160  1.00  0.00     0.324 A 
HETATM   10  C11 UNK     1      16.035  10.371   8.911  1.00  0.00     0.001 A 
HETATM   11  C12 UNK     1      17.164   9.817   9.507  1.00  0.00     0.003 A 
ENDROOT
BRANCH   3  12
HETATM   12  N1  UNK     1      12.480   7.953   8.488  1.00  0.00    -0.352 N 
HETATM   13  H1  UNK     1      12.615   8.249   7.526  1.00  0.00     0.166 HD
BRANCH  12  14
HETATM   14  C5  UNK     1      11.354   8.486   9.119  1.00  0.00     0.048 A 
HETATM   15  C10 UNK     1      11.500   9.560  10.011  1.00  0.00     0.030 A 
HETATM   16  C14 UNK     1      10.390  10.106  10.653  1.00  0.00     0.002 A 
HETATM   17  C15 UNK     1       9.119   9.585  10.411  1.00  0.00     0.001 A 
HETATM   18  C13 UNK     1       8.958   8.518   9.527  1.00  0.00     0.019 A 
HETATM   19  C7  UNK     1      10.070   7.972   8.885  1.00  0.00     0.058 A 
BRANCH  19  20
HETATM   20  C16 UNK     1       9.869   6.857   7.967  1.00  0.00     0.251 C 
HETATM   21  O5  UNK     1      10.202   6.936   6.774  1.00  0.00    -0.268 OA
HETATM   22  N3  UNK     1       9.306   5.694   8.481  1.00  0.00    -0.366 N 
HETATM   23  H10 UNK     1       9.033   5.612   9.455  1.00  0.00     0.159 HD
HETATM   24  H11 UNK     1       9.148   4.885   7.889  1.00  0.00     0.159 HD
ENDBRANCH  19  20
ENDBRANCH  12  14
ENDBRANCH   3  12
BRANCH   6  25
HETATM   25  N2  UNK     1      12.593   5.302   9.428  1.00  0.00    -0.107 N 
HETATM   26  O3  UNK     1      11.837   5.244  10.405  1.00  0.00    -0.531 OA
HETATM   27  O4  UNK     1      12.455   4.684   8.366  1.00  0.00    -0.531 OA
ENDBRANCH   6  25
TORSDOF 4
ENDMDL
MODEL 5
REMARK VINA RESULT:      -7.8     24.558     26.632
REMARK  4 active torsions:
REMARK  status: ('A' for Active; 'I' for Inactive)
REMARK    1  A    between atoms: C1_9  and  N1_6 
REMARK    2  A    between atoms: C5_13  and  N1_6 
REMARK    3  A    between atoms: C4_12  and  N2_7 
REMARK       I    between atoms: C16_24  and  N3_8 
REMARK    4  A    between atoms: C16_24  and  C7_15 
ROOT
HETATM    1  O1  UNK     1      20.790  -2.798  30.735  1.00  0.00    -0.273 OA
HETATM    2  O2  UNK     1      21.431  -4.237  32.385  1.00  0.00    -0.257 OA
HETATM    3  C1  UNK     1      19.878  -0.994  32.769  1.00  0.00     0.085 A 
HETATM    4  C2  UNK     1      19.745  -0.659  31.326  1.00  0.00     0.027 A 
HETATM    5  C3  UNK     1      20.206  -1.569  30.368  1.00  0.00     0.092 A 
HETATM    6  C4  UNK     1      20.441  -2.183  33.041  1.00  0.00     0.205 A 
HETATM    7  C6  UNK     1      19.176   0.531  30.844  1.00  0.00     0.017 A 
HETATM    8  C8  UNK     1      20.119  -1.328  28.994  1.00  0.00     0.038 A 
HETATM    9  C9  UNK     1      20.931  -3.165  32.063  1.00  0.00     0.324 A 
HETATM   10  C11 UNK     1      19.081   0.787  29.469  1.00  0.00     0.001 A 
HETATM   11  C12 UNK     1      19.551  -0.142  28.545  1.00  0.00     0.003 A 
ENDROOT
BRANCH   3  12
HETATM   12  N1  UNK     1      19.426  -0.082  33.687  1.00  0.00    -0.352 N 
HETATM   13  H1  UNK     1      20.166   0.434  34.153  1.00  0.00     0.166 HD
BRANCH  12  14
HETATM   14  C5  UNK     1      18.184  -0.041  34.323  1.00  0.00     0.048 A 
HETATM   15  C10 UNK     1      17.248  -1.059  34.087  1.00  0.00     0.030 A 
HETATM   16  C14 UNK     1      16.001  -1.036  34.711  1.00  0.00     0.002 A 
HETATM   17  C15 UNK     1      15.675   0.006  35.579  1.00  0.00     0.001 A 
HETATM   18  C13 UNK     1      16.596   1.025  35.824  1.00  0.00     0.019 A 
HETATM   19  C7  UNK     1      17.843   1.002  35.199  1.00  0.00     0.058 A 
BRANCH  19  20
HETATM   20  C16 UNK     1      18.783   2.081  35.474  1.00  0.00     0.251 C 
HETATM   21  O5  UNK     1      19.812   1.886  36.140  1.00  0.00    -0.268 OA
HETATM   22  N3  UNK     1      18.493   3.336  34.949  1.00  0.00    -0.366 N 
HETATM   23  H10 UNK     1      17.659   3.511  34.398  1.00  0.00     0.159 HD
HETATM   24  H11 UNK     1      19.115   4.123  35.104  1.00  0.00     0.159 HD
ENDBRANCH  19  20
ENDBRANCH  12  14
ENDBRANCH   3  12
BRANCH   6  25
HETATM   25  N2  UNK     1      20.585  -2.541  34.416  1.00  0.00    -0.107 N 
HETATM   26  O3  UNK     1      21.550  -2.061  35.023  1.00  0.00    -0.531 OA
HETATM   27  O4  UNK     1      19.734  -3.303  34.890  1.00  0.00    -0.531 OA
ENDBRANCH   6  25
TORSDOF 4
ENDMDL
MODEL 6
REMARK VINA RESULT:      -7.8      1.793      2.599
REMARK  4 active torsions:
REMARK  status: ('A' for Active; 'I' for Inactive)
REMARK    1  A    between atoms: C1_9  and  N1_6 
REMARK    2  A    between atoms: C5_13  and  N1_6 
REMARK    3  A    between atoms: C4_12  and  N2_7 
REMARK       I    between atoms: C16_24  and  N3_8 
REMARK    4  A    between atoms: C16_24  and  C7_15 
ROOT
HETATM    1  O1  UNK     1      14.730   9.310  10.414  1.00  0.00    -0.273 OA
HETATM    2  O2  UNK     1      16.361   7.727  10.219  1.00  0.00    -0.257 OA
HETATM    3  C1  UNK     1      12.812   7.315   9.664  1.00  0.00     0.085 A 
HETATM    4  C2  UNK     1      12.396   8.712   9.955  1.00  0.00     0.027 A 
HETATM    5  C3  UNK     1      13.366   9.653  10.319  1.00  0.00     0.092 A 
HETATM    6  C4  UNK     1      14.128   7.065   9.771  1.00  0.00     0.205 A 
HETATM    7  C6  UNK     1      11.069   9.169   9.888  1.00  0.00     0.017 A 
HETATM    8  C8  UNK     1      13.056  10.985  10.609  1.00  0.00     0.038 A 
HETATM    9  C9  UNK     1      15.175   8.027  10.145  1.00  0.00     0.324 A 
HETATM   10  C11 UNK     1      10.742  10.501  10.176  1.00  0.00     0.001 A 
HETATM   11  C12 UNK     1      11.735  11.408  10.535  1.00  0.00     0.003 A 
ENDROOT
BRANCH   3  12
HETATM   12  N1  UNK     1      11.841   6.412   9.317  1.00  0.00    -0.352 N 
HETATM   13  H1  UNK     1      11.862   5.556   9.863  1.00  0.00     0.166 HD
BRANCH  12  14
HETATM   14  C5  UNK     1      11.117   6.337   8.126  1.00  0.00     0.048 A 
HETATM   15  C10 UNK     1      11.782   6.481   6.899  1.00  0.00     0.030 A 
HETATM   16  C14 UNK     1      11.078   6.411   5.697  1.00  0.00     0.002 A 
HETATM   17  C15 UNK     1       9.699   6.196   5.709  1.00  0.00     0.001 A 
HETATM   18  C13 UNK     1       9.025   6.052   6.921  1.00  0.00     0.019 A 
HETATM   19  C7  UNK     1       9.730   6.122   8.123  1.00  0.00     0.058 A 
BRANCH  19  20
HETATM   20  C16 UNK     1       8.997   5.967   9.373  1.00  0.00     0.251 C 
HETATM   21  O5  UNK     1       9.250   5.039  10.159  1.00  0.00    -0.268 OA
HETATM   22  N3  UNK     1       8.014   6.906   9.664  1.00  0.00    -0.366 N 
HETATM   23  H10 UNK     1       7.799   7.673   9.035  1.00  0.00     0.159 HD
HETATM   24  H11 UNK     1       7.477   6.851  10.523  1.00  0.00     0.159 HD
ENDBRANCH  19  20
ENDBRANCH  12  14
ENDBRANCH   3  12
BRANCH   6  25
HETATM   25  N2  UNK     1      14.567   5.734   9.499  1.00  0.00    -0.107 N 
HETATM   26  O3  UNK     1      14.849   5.464   8.326  1.00  0.00    -0.531 OA
HETATM   27  O4  UNK     1      14.630   4.956  10.458  1.00  0.00    -0.531 OA
ENDBRANCH   6  25
TORSDOF 4
ENDMDL
MODEL 7
REMARK VINA RESULT:      -7.7      1.995      3.140
REMARK  4 active torsions:
REMARK  status: ('A' for Active; 'I' for Inactive)
REMARK    1  A    between atoms: C1_9  and  N1_6 
REMARK    2  A    between atoms: C5_13  and  N1_6 
REMARK    3  A    between atoms: C4_12  and  N2_7 
REMARK       I    between atoms: C16_24  and  N3_8 
REMARK    4  A    between atoms: C16_24  and  C7_15 
ROOT
HETATM    1  O1  UNK     1      14.865   9.505  10.371  1.00  0.00    -0.273 OA
HETATM    2  O2  UNK     1      13.308  11.155  10.606  1.00  0.00    -0.257 OA
HETATM    3  C1  UNK     1      12.736   7.689   9.748  1.00  0.00     0.085 A 
HETATM    4  C2  UNK     1      14.150   7.233   9.787  1.00  0.00     0.027 A 
HETATM    5  C3  UNK     1      15.158   8.155  10.094  1.00  0.00     0.092 A 
HETATM    6  C4  UNK     1      12.536   8.988  10.026  1.00  0.00     0.205 A 
HETATM    7  C6  UNK     1      14.559   5.913   9.534  1.00  0.00     0.017 A 
HETATM    8  C8  UNK     1      16.510   7.805  10.149  1.00  0.00     0.038 A 
HETATM    9  C9  UNK     1      13.566   9.983  10.357  1.00  0.00     0.324 A 
HETATM   10  C11 UNK     1      15.912   5.547   9.586  1.00  0.00     0.001 A 
HETATM   11  C12 UNK     1      16.885   6.492   9.894  1.00  0.00     0.003 A 
ENDROOT
BRANCH   3  12
HETATM   12  N1  UNK     1      11.770   6.768   9.437  1.00  0.00    -0.352 N 
HETATM   13  H1  UNK     1      11.721   5.988  10.085  1.00  0.00     0.166 HD
BRANCH  12  14
HETATM   14  C5  UNK     1      11.142   6.557   8.208  1.00  0.00     0.048 A 
HETATM   15  C10 UNK     1      11.919   6.358   7.056  1.00  0.00     0.030 A 
HETATM   16  C14 UNK     1      11.312   6.146   5.819  1.00  0.00     0.002 A 
HETATM   17  C15 UNK     1       9.921   6.131   5.717  1.00  0.00     0.001 A 
HETATM   18  C13 UNK     1       9.136   6.327   6.854  1.00  0.00     0.019 A 
HETATM   19  C7  UNK     1       9.744   6.539   8.092  1.00  0.00     0.058 A 
BRANCH  19  20
HETATM   20  C16 UNK     1       8.896   6.740   9.261  1.00  0.00     0.251 C 
HETATM   21  O5  UNK     1       8.767   5.858  10.124  1.00  0.00    -0.268 OA
HETATM   22  N3  UNK     1       8.250   7.966   9.383  1.00  0.00    -0.366 N 
HETATM   23  H10 UNK     1       8.350   8.700   8.690  1.00  0.00     0.159 HD
HETATM   24  H11 UNK     1       7.653   8.163  10.180  1.00  0.00     0.159 HD
ENDBRANCH  19  20
ENDBRANCH  12  14
ENDBRANCH   3  12
BRANCH   6  25
HETATM   25  N2  UNK     1      11.190   9.464   9.999  1.00  0.00    -0.107 N 
HETATM   26  O3  UNK     1      10.569   9.457  11.069  1.00  0.00    -0.531 OA
HETATM   27  O4  UNK     1      10.750   9.847   8.908  1.00  0.00    -0.531 OA
ENDBRANCH   6  25
TORSDOF 4
ENDMDL
MODEL 8
REMARK VINA RESULT:      -7.7     24.007     26.023
REMARK  4 active torsions:
REMARK  status: ('A' for Active; 'I' for Inactive)
REMARK    1  A    between atoms: C1_9  and  N1_6 
REMARK    2  A    between atoms: C5_13  and  N1_6 
REMARK    3  A    between atoms: C4_12  and  N2_7 
REMARK       I    between atoms: C16_24  and  N3_8 
REMARK    4  A    between atoms: C16_24  and  C7_15 
ROOT
HETATM    1  O1  UNK     1      19.477  -1.721  34.421  1.00  0.00    -0.273 OA
HETATM    2  O2  UNK     1      18.534  -1.388  36.471  1.00  0.00    -0.257 OA
HETATM    3  C1  UNK     1      18.208   0.690  33.530  1.00  0.00     0.085 A 
HETATM    4  C2  UNK     1      19.052  -0.120  32.613  1.00  0.00     0.027 A 
HETATM    5  C3  UNK     1      19.653  -1.290  33.092  1.00  0.00     0.092 A 
HETATM    6  C4  UNK     1      18.084   0.214  34.780  1.00  0.00     0.205 A 
HETATM    7  C6  UNK     1      19.294   0.209  31.268  1.00  0.00     0.017 A 
HETATM    8  C8  UNK     1      20.461  -2.105  32.293  1.00  0.00     0.038 A 
HETATM    9  C9  UNK     1      18.695  -1.011  35.316  1.00  0.00     0.324 A 
HETATM   10  C11 UNK     1      20.101  -0.600  30.455  1.00  0.00     0.001 A 
HETATM   11  C12 UNK     1      20.683  -1.755  30.967  1.00  0.00     0.003 A 
ENDROOT
BRANCH   3  12
HETATM   12  N1  UNK     1      17.637   1.835  33.038  1.00  0.00    -0.352 N 
HETATM   13  H1  UNK     1      16.874   1.668  32.389  1.00  0.00     0.166 HD
BRANCH  12  14
HETATM   14  C5  UNK     1      18.178   3.121  32.998  1.00  0.00     0.048 A 
HETATM   15  C10 UNK     1      18.480   3.786  34.197  1.00  0.00     0.030 A 
HETATM   16  C14 UNK     1      19.019   5.071  34.180  1.00  0.00     0.002 A 
HETATM   17  C15 UNK     1      19.264   5.709  32.963  1.00  0.00     0.001 A 
HETATM   18  C13 UNK     1      18.969   5.061  31.764  1.00  0.00     0.019 A 
HETATM   19  C7  UNK     1      18.429   3.774  31.781  1.00  0.00     0.058 A 
BRANCH  19  20
HETATM   20  C16 UNK     1      18.131   3.123  30.511  1.00  0.00     0.251 C 
HETATM   21  O5  UNK     1      17.089   2.468  30.351  1.00  0.00    -0.268 OA
HETATM   22  N3  UNK     1      19.049   3.278  29.479  1.00  0.00    -0.366 N 
HETATM   23  H10 UNK     1      19.903   3.815  29.592  1.00  0.00     0.159 HD
HETATM   24  H11 UNK     1      18.890   2.852  28.571  1.00  0.00     0.159 HD
ENDBRANCH  19  20
ENDBRANCH  12  14
ENDBRANCH   3  12
BRANCH   6  25
HETATM   25  N2  UNK     1      17.281   0.965  35.691  1.00  0.00    -0.107 N 
HETATM   26  O3  UNK     1      17.870   1.749  36.444  1.00  0.00    -0.531 OA
HETATM   27  O4  UNK     1      16.060   0.771  35.655  1.00  0.00    -0.531 OA
ENDBRANCH   6  25
TORSDOF 4
ENDMDL
MODEL 9
REMARK VINA RESULT:      -7.6     34.706     36.399
REMARK  4 active torsions:
REMARK  status: ('A' for Active; 'I' for Inactive)
REMARK    1  A    between atoms: C1_9  and  N1_6 
REMARK    2  A    between atoms: C5_13  and  N1_6 
REMARK    3  A    between atoms: C4_12  and  N2_7 
REMARK       I    between atoms: C16_24  and  N3_8 
REMARK    4  A    between atoms: C16_24  and  C7_15 
ROOT
HETATM    1  O1  UNK     1      26.396  -6.441  38.247  1.00  0.00    -0.273 OA
HETATM    2  O2  UNK     1      26.674  -4.320  39.038  1.00  0.00    -0.257 OA
HETATM    3  C1  UNK     1      29.226  -6.567  37.809  1.00  0.00     0.085 A 
HETATM    4  C2  UNK     1      28.343  -7.714  37.471  1.00  0.00     0.027 A 
HETATM    5  C3  UNK     1      26.967  -7.609  37.703  1.00  0.00     0.092 A 
HETATM    6  C4  UNK     1      28.609  -5.488  38.319  1.00  0.00     0.205 A 
HETATM    7  C6  UNK     1      28.800  -8.923  36.920  1.00  0.00     0.017 A 
HETATM    8  C8  UNK     1      26.071  -8.642  37.414  1.00  0.00     0.038 A 
HETATM    9  C9  UNK     1      27.169  -5.340  38.572  1.00  0.00     0.324 A 
HETATM   10  C11 UNK     1      27.913  -9.968  36.624  1.00  0.00     0.001 A 
HETATM   11  C12 UNK     1      26.551  -9.828  36.870  1.00  0.00     0.003 A 
ENDROOT
BRANCH   3  12
HETATM   12  N1  UNK     1      30.571  -6.698  37.578  1.00  0.00    -0.352 N 
HETATM   13  H1  UNK     1      31.119  -6.849  38.419  1.00  0.00     0.166 HD
BRANCH  12  14
HETATM   14  C5  UNK     1      31.300  -6.284  36.462  1.00  0.00     0.048 A 
HETATM   15  C10 UNK     1      30.702  -6.308  35.193  1.00  0.00     0.030 A 
HETATM   16  C14 UNK     1      31.413  -5.901  34.065  1.00  0.00     0.002 A 
HETATM   17  C15 UNK     1      32.731  -5.463  34.192  1.00  0.00     0.001 A 
HETATM   18  C13 UNK     1      33.339  -5.434  35.447  1.00  0.00     0.019 A 
HETATM   19  C7  UNK     1      32.627  -5.842  36.576  1.00  0.00     0.058 A 
BRANCH  19  20
HETATM   20  C16 UNK     1      33.291  -5.800  37.873  1.00  0.00     0.251 C 
HETATM   21  O5  UNK     1      32.858  -5.092  38.796  1.00  0.00    -0.268 OA
HETATM   22  N3  UNK     1      34.417  -6.596  38.046  1.00  0.00    -0.366 N 
HETATM   23  H10 UNK     1      34.781  -7.185  37.304  1.00  0.00     0.159 HD
HETATM   24  H11 UNK     1      34.915  -6.611  38.930  1.00  0.00     0.159 HD
ENDBRANCH  19  20
ENDBRANCH  12  14
ENDBRANCH   3  12
BRANCH   6  25
HETATM   25  N2  UNK     1      29.424  -4.365  38.656  1.00  0.00    -0.107 N 
HETATM   26  O3  UNK     1      29.918  -3.727  37.718  1.00  0.00    -0.531 OA
HETATM   27  O4  UNK     1      29.571  -4.118  39.859  1.00  0.00    -0.531 OA
ENDBRANCH   6  25
TORSDOF 4
ENDMDL
MODEL 10
REMARK VINA RESULT:      -7.6      2.141      5.632
REMARK  4 active torsions:
REMARK  status: ('A' for Active; 'I' for Inactive)
REMARK    1  A    between atoms: C1_9  and  N1_6 
REMARK    2  A    between atoms: C5_13  and  N1_6 
REMARK    3  A    between atoms: C4_12  and  N2_7 
REMARK       I    between atoms: C16_24  and  N3_8 
REMARK    4  A    between atoms: C16_24  and  C7_15 
ROOT
HETATM    1  O1  UNK     1      10.871   5.635   8.413  1.00  0.00    -0.273 OA
HETATM    2  O2  UNK     1      12.439   3.997   8.161  1.00  0.00    -0.257 OA
HETATM    3  C1  UNK     1      12.872   7.248   9.684  1.00  0.00     0.085 A 
HETATM    4  C2  UNK     1      11.482   7.743   9.508  1.00  0.00     0.027 A 
HETATM    5  C3  UNK     1      10.538   6.922   8.880  1.00  0.00     0.092 A 
HETATM    6  C4  UNK     1      13.113   6.011   9.218  1.00  0.00     0.205 A 
HETATM    7  C6  UNK     1      11.035   9.005   9.937  1.00  0.00     0.017 A 
HETATM    8  C8  UNK     1       9.212   7.315   8.675  1.00  0.00     0.038 A 
HETATM    9  C9  UNK     1      12.148   5.120   8.559  1.00  0.00     0.324 A 
HETATM   10  C11 UNK     1       9.708   9.412   9.739  1.00  0.00     0.001 A 
HETATM   11  C12 UNK     1       8.798   8.568   9.110  1.00  0.00     0.003 A 
ENDROOT
BRANCH   3  12
HETATM   12  N1  UNK     1      13.779   8.075  10.296  1.00  0.00    -0.352 N 
HETATM   13  H1  UNK     1      13.538   8.312  11.253  1.00  0.00     0.166 HD
BRANCH  12  14
HETATM   14  C5  UNK     1      14.726   8.908   9.699  1.00  0.00     0.048 A 
HETATM   15  C10 UNK     1      14.312   9.884   8.779  1.00  0.00     0.030 A 
HETATM   16  C14 UNK     1      15.242  10.726   8.171  1.00  0.00     0.002 A 
HETATM   17  C15 UNK     1      16.597  10.603   8.474  1.00  0.00     0.001 A 
HETATM   18  C13 UNK     1      17.024   9.638   9.386  1.00  0.00     0.019 A 
HETATM   19  C7  UNK     1      16.093   8.795   9.995  1.00  0.00     0.058 A 
BRANCH  19  20
HETATM   20  C16 UNK     1      16.570   7.796  10.944  1.00  0.00     0.251 C 
HETATM   21  O5  UNK     1      16.224   7.822  12.136  1.00  0.00    -0.268 OA
HETATM   22  N3  UNK     1      17.413   6.802  10.462  1.00  0.00    -0.366 N 
HETATM   23  H10 UNK     1      17.701   6.763   9.489  1.00  0.00     0.159 HD
HETATM   24  H11 UNK     1      17.771   6.077  11.076  1.00  0.00     0.159 HD
ENDBRANCH  19  20
ENDBRANCH  12  14
ENDBRANCH   3  12
BRANCH   6  25
HETATM   25  N2  UNK     1      14.437   5.500   9.370  1.00  0.00    -0.107 N 
HETATM   26  O3  UNK     1      14.719   4.984  10.458  1.00  0.00    -0.531 OA
HETATM   27  O4  UNK     1      15.198   5.612   8.401  1.00  0.00    -0.531 OA
ENDBRANCH   6  25
TORSDOF 4
ENDMDL
