MODEL 1
REMARK VINA RESULT:      -8.5      0.000      0.000
REMARK  5 active torsions:
REMARK  status: ('A' for Active; 'I' for Inactive)
REMARK    1  A    between atoms: C15_22  and  O4_5 
REMARK    2  A    between atoms: C21_28  and  O4_5 
REMARK    3  A    between atoms: C9_16  and  N1_6 
REMARK    4  A    between atoms: C1_8  and  C3_10 
REMARK    5  A    between atoms: C11_18  and  C15_22 
ROOT
HETATM    1  O1  UNK     1      29.091  -5.831  32.748  1.00  0.00    -0.269 OA
HETATM    2  O2  UNK     1      28.507  -6.580  34.890  1.00  0.00    -0.286 OA
HETATM    3  O3  UNK     1      31.483  -9.354  34.863  1.00  0.00    -0.287 OA
HETATM    4  N2  UNK     1      31.941  -7.087  29.072  1.00  0.00    -0.191 NA
HETATM    5  C1  UNK     1      31.309  -7.635  32.546  1.00  0.00     0.108 C 
HETATM    6  C2  UNK     1      30.389  -7.561  33.745  1.00  0.00     0.065 A 
HETATM    7  C4  UNK     1      30.790  -6.808  31.377  1.00  0.00     0.086 C 
HETATM    8  C5  UNK     1      29.361  -6.693  33.804  1.00  0.00     0.204 A 
HETATM    9  C6  UNK     1      30.607  -8.499  34.879  1.00  0.00     0.197 A 
HETATM   10  C8  UNK     1      29.709  -8.349  36.032  1.00  0.00     0.049 A 
HETATM   11  C9  UNK     1      29.744  -5.964  31.524  1.00  0.00     0.162 C 
HETATM   12  C12 UNK     1      28.701  -7.391  35.975  1.00  0.00     0.092 A 
HETATM   13  C16 UNK     1      29.857  -9.153  37.165  1.00  0.00     0.018 A 
HETATM   14  C17 UNK     1      27.833  -7.230  37.056  1.00  0.00     0.038 A 
HETATM   15  C18 UNK     1      31.426  -6.962  30.104  1.00  0.00     0.100 C 
HETATM   16  C19 UNK     1      28.989  -8.988  38.244  1.00  0.00     0.001 A 
HETATM   17  C20 UNK     1      27.977  -8.029  38.190  1.00  0.00     0.003 A 
ENDROOT
BRANCH   5  18
HETATM   18  C3  UNK     1      32.694  -7.193  32.919  1.00  0.00    -0.043 A 
HETATM   19  C10 UNK     1      33.794  -7.836  32.363  1.00  0.00     0.008 A 
HETATM   20  C13 UNK     1      35.082  -7.425  32.709  1.00  0.00     0.001 A 
HETATM   21  C14 UNK     1      35.260  -6.375  33.609  1.00  0.00     0.009 A 
HETATM   22  C11 UNK     1      34.152  -5.734  34.162  1.00  0.00    -0.034 A 
HETATM   23  C7  UNK     1      32.864  -6.145  33.816  1.00  0.00     0.017 A 
BRANCH  22  24
HETATM   24  C15 UNK     1      34.343  -4.610  35.124  1.00  0.00     0.214 C 
BRANCH  24  25
HETATM   25  O4  UNK     1      34.131  -5.081  36.449  1.00  0.00    -0.347 OA
BRANCH  25  26
HETATM   26  C21 UNK     1      32.877  -4.907  36.973  1.00  0.00     0.069 A 
HETATM   27  C22 UNK     1      32.156  -3.759  36.663  1.00  0.00     0.038 A 
HETATM   28  C24 UNK     1      30.880  -3.581  37.198  1.00  0.00     0.026 A 
HETATM   29  C26 UNK     1      30.334  -4.550  38.039  1.00  0.00     0.034 A 
HETATM   30  C25 UNK     1      31.065  -5.699  38.345  1.00  0.00     0.026 A 
HETATM   31 Cl1  UNK     1      28.760  -4.331  38.698  1.00  0.00    -0.084 Cl
HETATM   32  C23 UNK     1      32.340  -5.878  37.810  1.00  0.00     0.038 A 
ENDBRANCH  25  26
ENDBRANCH  24  25
ENDBRANCH  22  24
ENDBRANCH   5  18
BRANCH  11  33
HETATM   33  N1  UNK     1      29.224  -5.176  30.534  1.00  0.00    -0.379 N 
HETATM   34  H10 UNK     1      29.774  -4.440  30.112  1.00  0.00     0.158 HD
HETATM   35  H11 UNK     1      28.273  -5.339  30.231  1.00  0.00     0.158 HD
ENDBRANCH  11  33
TORSDOF 5
ENDMDL
MODEL 2
REMARK VINA RESULT:      -8.5      3.601      6.000
REMARK  5 active torsions:
REMARK  status: ('A' for Active; 'I' for Inactive)
REMARK    1  A    between atoms: C15_22  and  O4_5 
REMARK    2  A    between atoms: C21_28  and  O4_5 
REMARK    3  A    between atoms: C9_16  and  N1_6 
REMARK    4  A    between atoms: C1_8  and  C3_10 
REMARK    5  A    between atoms: C11_18  and  C15_22 
ROOT
HETATM    1  O1  UNK     1      27.688  -6.953  36.445  1.00  0.00    -0.269 OA
HETATM    2  O2  UNK     1      27.929  -7.525  34.186  1.00  0.00    -0.286 OA
HETATM    3  O3  UNK     1      31.387  -5.403  33.891  1.00  0.00    -0.287 OA
HETATM    4  N2  UNK     1      29.636  -3.989  39.707  1.00  0.00    -0.191 NA
HETATM    5  C1  UNK     1      30.149  -5.483  36.501  1.00  0.00     0.108 C 
HETATM    6  C2  UNK     1      29.608  -6.175  35.269  1.00  0.00     0.065 A 
HETATM    7  C4  UNK     1      29.134  -5.466  37.637  1.00  0.00     0.086 C 
HETATM    8  C5  UNK     1      28.450  -6.862  35.286  1.00  0.00     0.204 A 
HETATM    9  C6  UNK     1      30.362  -6.063  33.992  1.00  0.00     0.197 A 
HETATM   10  C8  UNK     1      29.809  -6.793  32.842  1.00  0.00     0.049 A 
HETATM   11  C9  UNK     1      27.990  -6.183  37.567  1.00  0.00     0.162 C 
HETATM   12  C12 UNK     1      28.615  -7.489  33.002  1.00  0.00     0.092 A 
HETATM   13  C16 UNK     1      30.464  -6.787  31.608  1.00  0.00     0.018 A 
HETATM   14  C17 UNK     1      28.067  -8.188  31.926  1.00  0.00     0.038 A 
HETATM   15  C18 UNK     1      29.411  -4.650  38.780  1.00  0.00     0.100 C 
HETATM   16  C19 UNK     1      29.915  -7.488  30.534  1.00  0.00     0.001 A 
HETATM   17  C20 UNK     1      28.718  -8.187  30.692  1.00  0.00     0.003 A 
ENDROOT
BRANCH   5  18
HETATM   18  C3  UNK     1      31.422  -6.136  36.954  1.00  0.00    -0.043 A 
HETATM   19  C10 UNK     1      31.367  -7.311  37.694  1.00  0.00     0.008 A 
HETATM   20  C13 UNK     1      32.550  -7.918  38.114  1.00  0.00     0.001 A 
HETATM   21  C14 UNK     1      33.781  -7.347  37.791  1.00  0.00     0.009 A 
HETATM   22  C11 UNK     1      33.827  -6.168  37.047  1.00  0.00    -0.034 A 
HETATM   23  C7  UNK     1      32.644  -5.561  36.627  1.00  0.00     0.017 A 
BRANCH  22  24
HETATM   24  C15 UNK     1      35.144  -5.557  36.700  1.00  0.00     0.214 C 
BRANCH  24  25
HETATM   25  O4  UNK     1      35.174  -5.258  35.310  1.00  0.00    -0.347 OA
BRANCH  25  26
HETATM   26  C21 UNK     1      35.588  -6.260  34.472  1.00  0.00     0.069 A 
HETATM   27  C22 UNK     1      34.884  -6.509  33.299  1.00  0.00     0.038 A 
HETATM   28  C24 UNK     1      35.304  -7.531  32.447  1.00  0.00     0.026 A 
HETATM   29  C26 UNK     1      36.423  -8.296  32.772  1.00  0.00     0.034 A 
HETATM   30  C25 UNK     1      37.124  -8.039  33.952  1.00  0.00     0.026 A 
HETATM   31 Cl1  UNK     1      36.941  -9.555  31.721  1.00  0.00    -0.084 Cl
HETATM   32  C23 UNK     1      36.705  -7.018  34.804  1.00  0.00     0.038 A 
ENDBRANCH  25  26
ENDBRANCH  24  25
ENDBRANCH  22  24
ENDBRANCH   5  18
BRANCH  11  33
HETATM   33  N1  UNK     1      27.034  -6.236  38.544  1.00  0.00    -0.379 N 
HETATM   34  H10 UNK     1      26.933  -5.487  39.216  1.00  0.00     0.158 HD
HETATM   35  H11 UNK     1      26.426  -7.044  38.588  1.00  0.00     0.158 HD
ENDBRANCH  11  33
TORSDOF 5
ENDMDL
MODEL 3
REMARK VINA RESULT:      -8.5      3.359      5.725
REMARK  5 active torsions:
REMARK  status: ('A' for Active; 'I' for Inactive)
REMARK    1  A    between atoms: C15_22  and  O4_5 
REMARK    2  A    between atoms: C21_28  and  O4_5 
REMARK    3  A    between atoms: C9_16  and  N1_6 
REMARK    4  A    between atoms: C1_8  and  C3_10 
REMARK    5  A    between atoms: C11_18  and  C15_22 
ROOT
HETATM    1  O1  UNK     1      32.465  -7.827  38.232  1.00  0.00    -0.269 OA
HETATM    2  O2  UNK     1      30.344  -8.757  38.586  1.00  0.00    -0.286 OA
HETATM    3  O3  UNK     1      29.121  -7.693  34.855  1.00  0.00    -0.287 OA
HETATM    4  N2  UNK     1      34.769  -5.055  35.034  1.00  0.00    -0.191 NA
HETATM    5  C1  UNK     1      31.861  -7.071  35.534  1.00  0.00     0.108 C 
HETATM    6  C2  UNK     1      30.880  -7.761  36.456  1.00  0.00     0.065 A 
HETATM    7  C4  UNK     1      33.117  -6.624  36.270  1.00  0.00     0.086 C 
HETATM    8  C5  UNK     1      31.206  -8.108  37.716  1.00  0.00     0.204 A 
HETATM    9  C6  UNK     1      29.502  -8.036  35.966  1.00  0.00     0.197 A 
HETATM   10  C8  UNK     1      28.610  -8.748  36.892  1.00  0.00     0.049 A 
HETATM   11  C9  UNK     1      33.362  -7.014  37.541  1.00  0.00     0.162 C 
HETATM   12  C12 UNK     1      29.082  -9.073  38.160  1.00  0.00     0.092 A 
HETATM   13  C16 UNK     1      27.310  -9.092  36.512  1.00  0.00     0.018 A 
HETATM   14  C17 UNK     1      28.255  -9.747  39.059  1.00  0.00     0.038 A 
HETATM   15  C18 UNK     1      34.030  -5.757  35.587  1.00  0.00     0.100 C 
HETATM   16  C19 UNK     1      26.486  -9.767  37.413  1.00  0.00     0.001 A 
HETATM   17  C20 UNK     1      26.957 -10.094  38.685  1.00  0.00     0.003 A 
ENDROOT
BRANCH   5  18
HETATM   18  C3  UNK     1      32.223  -7.967  34.386  1.00  0.00    -0.043 A 
HETATM   19  C10 UNK     1      32.721  -9.240  34.639  1.00  0.00     0.008 A 
HETATM   20  C13 UNK     1      33.057 -10.074  33.572  1.00  0.00     0.001 A 
HETATM   21  C14 UNK     1      32.894  -9.628  32.260  1.00  0.00     0.009 A 
HETATM   22  C11 UNK     1      32.394  -8.350  32.016  1.00  0.00    -0.034 A 
HETATM   23  C7  UNK     1      32.057  -7.516  33.082  1.00  0.00     0.017 A 
BRANCH  22  24
HETATM   24  C15 UNK     1      32.218  -7.874  30.612  1.00  0.00     0.214 C 
BRANCH  24  25
HETATM   25  O4  UNK     1      31.200  -8.639  29.978  1.00  0.00    -0.347 OA
BRANCH  25  26
HETATM   26  C21 UNK     1      29.918  -8.169  30.086  1.00  0.00     0.069 A 
HETATM   27  C22 UNK     1      29.687  -6.798  30.102  1.00  0.00     0.038 A 
HETATM   28  C24 UNK     1      28.381  -6.319  30.214  1.00  0.00     0.026 A 
HETATM   29  C26 UNK     1      27.316  -7.214  30.310  1.00  0.00     0.034 A 
HETATM   30  C25 UNK     1      27.556  -8.589  30.294  1.00  0.00     0.026 A 
HETATM   31 Cl1  UNK     1      25.706  -6.624  30.448  1.00  0.00    -0.084 Cl
HETATM   32  C23 UNK     1      28.861  -9.067  30.182  1.00  0.00     0.038 A 
ENDBRANCH  25  26
ENDBRANCH  24  25
ENDBRANCH  22  24
ENDBRANCH   5  18
BRANCH  11  33
HETATM   33  N1  UNK     1      34.469  -6.672  38.269  1.00  0.00    -0.379 N 
HETATM   34  H10 UNK     1      35.134  -5.995  37.920  1.00  0.00     0.158 HD
HETATM   35  H11 UNK     1      34.616  -7.113  39.168  1.00  0.00     0.158 HD
ENDBRANCH  11  33
TORSDOF 5
ENDMDL
MODEL 4
REMARK VINA RESULT:      -8.4      3.356      7.178
REMARK  5 active torsions:
REMARK  status: ('A' for Active; 'I' for Inactive)
REMARK    1  A    between atoms: C15_22  and  O4_5 
REMARK    2  A    between atoms: C21_28  and  O4_5 
REMARK    3  A    between atoms: C9_16  and  N1_6 
REMARK    4  A    between atoms: C1_8  and  C3_10 
REMARK    5  A    between atoms: C11_18  and  C15_22 
ROOT
HETATM    1  O1  UNK     1      32.873  -3.985  35.363  1.00  0.00    -0.269 OA
HETATM    2  O2  UNK     1      34.286  -5.356  34.092  1.00  0.00    -0.286 OA
HETATM    3  O3  UNK     1      32.842  -8.712  35.881  1.00  0.00    -0.287 OA
HETATM    4  N2  UNK     1      29.895  -4.285  39.139  1.00  0.00    -0.191 NA
HETATM    5  C1  UNK     1      31.637  -6.209  36.683  1.00  0.00     0.108 C 
HETATM    6  C2  UNK     1      32.739  -6.346  35.655  1.00  0.00     0.065 A 
HETATM    7  C4  UNK     1      31.420  -4.760  37.098  1.00  0.00     0.086 C 
HETATM    8  C5  UNK     1      33.289  -5.274  35.051  1.00  0.00     0.204 A 
HETATM    9  C6  UNK     1      33.252  -7.702  35.325  1.00  0.00     0.197 A 
HETATM   10  C8  UNK     1      34.291  -7.772  34.288  1.00  0.00     0.049 A 
HETATM   11  C9  UNK     1      32.021  -3.744  36.439  1.00  0.00     0.162 C 
HETATM   12  C12 UNK     1      34.755  -6.588  33.723  1.00  0.00     0.092 A 
HETATM   13  C16 UNK     1      34.810  -9.002  33.875  1.00  0.00     0.018 A 
HETATM   14  C17 UNK     1      35.742  -6.626  32.737  1.00  0.00     0.038 A 
HETATM   15  C18 UNK     1      30.578  -4.498  38.226  1.00  0.00     0.100 C 
HETATM   16  C19 UNK     1      35.796  -9.037  32.889  1.00  0.00     0.001 A 
HETATM   17  C20 UNK     1      36.262  -7.852  32.321  1.00  0.00     0.003 A 
ENDROOT
BRANCH   5  18
HETATM   18  C3  UNK     1      30.358  -6.796  36.162  1.00  0.00    -0.043 A 
HETATM   19  C10 UNK     1      29.783  -7.881  36.814  1.00  0.00     0.008 A 
HETATM   20  C13 UNK     1      28.594  -8.427  36.331  1.00  0.00     0.001 A 
HETATM   21  C14 UNK     1      27.987  -7.884  35.199  1.00  0.00     0.009 A 
HETATM   22  C11 UNK     1      28.569  -6.795  34.550  1.00  0.00    -0.034 A 
HETATM   23  C7  UNK     1      29.758  -6.249  35.034  1.00  0.00     0.017 A 
BRANCH  22  24
HETATM   24  C15 UNK     1      27.919  -6.213  33.340  1.00  0.00     0.214 C 
BRANCH  24  25
HETATM   25  O4  UNK     1      28.876  -6.112  32.293  1.00  0.00    -0.347 OA
BRANCH  25  26
HETATM   26  C21 UNK     1      28.800  -7.047  31.294  1.00  0.00     0.069 A 
HETATM   27  C22 UNK     1      27.661  -7.837  31.178  1.00  0.00     0.038 A 
HETATM   28  C24 UNK     1      27.585  -8.791  30.163  1.00  0.00     0.026 A 
HETATM   29  C26 UNK     1      28.645  -8.949  29.271  1.00  0.00     0.034 A 
HETATM   30  C25 UNK     1      29.784  -8.151  29.395  1.00  0.00     0.026 A 
HETATM   31 Cl1  UNK     1      28.550 -10.124  28.019  1.00  0.00    -0.084 Cl
HETATM   32  C23 UNK     1      29.861  -7.198  30.409  1.00  0.00     0.038 A 
ENDBRANCH  25  26
ENDBRANCH  24  25
ENDBRANCH  22  24
ENDBRANCH   5  18
BRANCH  11  33
HETATM   33  N1  UNK     1      31.870  -2.417  36.735  1.00  0.00    -0.379 N 
HETATM   34  H10 UNK     1      31.365  -2.121  37.559  1.00  0.00     0.158 HD
HETATM   35  H11 UNK     1      32.272  -1.729  36.110  1.00  0.00     0.158 HD
ENDBRANCH  11  33
TORSDOF 5
ENDMDL
MODEL 5
REMARK VINA RESULT:      -8.2     20.918     24.632
REMARK  5 active torsions:
REMARK  status: ('A' for Active; 'I' for Inactive)
REMARK    1  A    between atoms: C15_22  and  O4_5 
REMARK    2  A    between atoms: C21_28  and  O4_5 
REMARK    3  A    between atoms: C9_16  and  N1_6 
REMARK    4  A    between atoms: C1_8  and  C3_10 
REMARK    5  A    between atoms: C11_18  and  C15_22 
ROOT
HETATM    1  O1  UNK     1      20.086  -7.297  11.696  1.00  0.00    -0.269 OA
HETATM    2  O2  UNK     1      21.324  -6.057  10.140  1.00  0.00    -0.286 OA
HETATM    3  O3  UNK     1      19.577  -2.583  11.337  1.00  0.00    -0.287 OA
HETATM    4  N2  UNK     1      16.386  -6.730  14.729  1.00  0.00    -0.191 NA
HETATM    5  C1  UNK     1      18.802  -4.971  12.770  1.00  0.00     0.108 C 
HETATM    6  C2  UNK     1      19.802  -4.933  11.635  1.00  0.00     0.065 A 
HETATM    7  C4  UNK     1      18.389  -6.394  13.120  1.00  0.00     0.086 C 
HETATM    8  C5  UNK     1      20.390  -6.049  11.164  1.00  0.00     0.204 A 
HETATM    9  C6  UNK     1      20.121  -3.626  11.000  1.00  0.00     0.197 A 
HETATM   10  C8  UNK     1      21.132  -3.649   9.934  1.00  0.00     0.049 A 
HETATM   11  C9  UNK     1      19.032  -7.461  12.592  1.00  0.00     0.162 C 
HETATM   12  C12 UNK     1      21.683  -4.870   9.559  1.00  0.00     0.092 A 
HETATM   13  C16 UNK     1      21.533  -2.469   9.302  1.00  0.00     0.018 A 
HETATM   14  C17 UNK     1      22.644  -4.920   8.548  1.00  0.00     0.038 A 
HETATM   15  C18 UNK     1      17.283  -6.580  14.009  1.00  0.00     0.100 C 
HETATM   16  C19 UNK     1      22.494  -2.522   8.292  1.00  0.00     0.001 A 
HETATM   17  C20 UNK     1      23.049  -3.745   7.915  1.00  0.00     0.003 A 
ENDROOT
BRANCH   5  18
HETATM   18  C3  UNK     1      19.355  -4.279  13.981  1.00  0.00    -0.043 A 
HETATM   19  C10 UNK     1      20.631  -4.596  14.431  1.00  0.00     0.008 A 
HETATM   20  C13 UNK     1      21.146  -3.953  15.557  1.00  0.00     0.001 A 
HETATM   21  C14 UNK     1      20.381  -2.997  16.225  1.00  0.00     0.009 A 
HETATM   22  C11 UNK     1      19.101  -2.684  15.767  1.00  0.00    -0.034 A 
HETATM   23  C7  UNK     1      18.587  -3.327  14.641  1.00  0.00     0.017 A 
BRANCH  22  24
HETATM   24  C15 UNK     1      18.283  -1.661  16.482  1.00  0.00     0.214 C 
BRANCH  24  25
HETATM   25  O4  UNK     1      18.975  -0.418  16.478  1.00  0.00    -0.347 OA
BRANCH  25  26
HETATM   26  C21 UNK     1      19.096   0.224  17.682  1.00  0.00     0.069 A 
HETATM   27  C22 UNK     1      19.110   1.614  17.722  1.00  0.00     0.038 A 
HETATM   28  C24 UNK     1      19.236   2.269  18.947  1.00  0.00     0.026 A 
HETATM   29  C26 UNK     1      19.346   1.530  20.125  1.00  0.00     0.034 A 
HETATM   30  C25 UNK     1      19.330   0.135  20.077  1.00  0.00     0.026 A 
HETATM   31 Cl1  UNK     1      19.500   2.337  21.636  1.00  0.00    -0.084 Cl
HETATM   32  C23 UNK     1      19.205  -0.519  18.852  1.00  0.00     0.038 A 
ENDBRANCH  25  26
ENDBRANCH  24  25
ENDBRANCH  22  24
ENDBRANCH   5  18
BRANCH  11  33
HETATM   33  N1  UNK     1      18.737  -8.769  12.862  1.00  0.00    -0.379 N 
HETATM   34  H10 UNK     1      17.950  -9.016  13.447  1.00  0.00     0.158 HD
HETATM   35  H11 UNK     1      19.325  -9.493  12.468  1.00  0.00     0.158 HD
ENDBRANCH  11  33
TORSDOF 5
ENDMDL
MODEL 6
REMARK VINA RESULT:      -8.2      3.179      6.159
REMARK  5 active torsions:
REMARK  status: ('A' for Active; 'I' for Inactive)
REMARK    1  A    between atoms: C15_22  and  O4_5 
REMARK    2  A    between atoms: C21_28  and  O4_5 
REMARK    3  A    between atoms: C9_16  and  N1_6 
REMARK    4  A    between atoms: C1_8  and  C3_10 
REMARK    5  A    between atoms: C11_18  and  C15_22 
ROOT
HETATM    1  O1  UNK     1      35.269  -7.066  36.047  1.00  0.00    -0.269 OA
HETATM    2  O2  UNK     1      33.514  -6.136  37.290  1.00  0.00    -0.286 OA
HETATM    3  O3  UNK     1      31.001  -6.305  34.096  1.00  0.00    -0.287 OA
HETATM    4  N2  UNK     1      36.341  -8.191  31.487  1.00  0.00    -0.191 NA
HETATM    5  C1  UNK     1      33.656  -7.377  33.699  1.00  0.00     0.108 C 
HETATM    6  C2  UNK     1      33.152  -6.780  34.995  1.00  0.00     0.065 A 
HETATM    7  C4  UNK     1      35.165  -7.582  33.713  1.00  0.00     0.086 C 
HETATM    8  C5  UNK     1      33.941  -6.659  36.080  1.00  0.00     0.204 A 
HETATM    9  C6  UNK     1      31.751  -6.283  35.062  1.00  0.00     0.197 A 
HETATM   10  C8  UNK     1      31.308  -5.755  36.360  1.00  0.00     0.049 A 
HETATM   11  C9  UNK     1      35.882  -7.431  34.850  1.00  0.00     0.162 C 
HETATM   12  C12 UNK     1      32.219  -5.711  37.411  1.00  0.00     0.092 A 
HETATM   13  C16 UNK     1      29.999  -5.302  36.540  1.00  0.00     0.018 A 
HETATM   14  C17 UNK     1      31.824  -5.213  38.653  1.00  0.00     0.038 A 
HETATM   15  C18 UNK     1      35.814  -7.918  32.483  1.00  0.00     0.100 C 
HETATM   16  C19 UNK     1      29.607  -4.806  37.783  1.00  0.00     0.001 A 
HETATM   17  C20 UNK     1      30.518  -4.760  38.839  1.00  0.00     0.003 A 
ENDROOT
BRANCH   5  18
HETATM   18  C3  UNK     1      32.959  -8.675  33.412  1.00  0.00    -0.043 A 
HETATM   19  C10 UNK     1      32.864  -9.639  34.409  1.00  0.00     0.008 A 
HETATM   20  C13 UNK     1      32.217 -10.846  34.143  1.00  0.00     0.001 A 
HETATM   21  C14 UNK     1      31.668 -11.079  32.882  1.00  0.00     0.009 A 
HETATM   22  C11 UNK     1      31.767 -10.107  31.888  1.00  0.00    -0.034 A 
HETATM   23  C7  UNK     1      32.414  -8.900  32.154  1.00  0.00     0.017 A 
BRANCH  22  24
HETATM   24  C15 UNK     1      31.178 -10.357  30.539  1.00  0.00     0.214 C 
BRANCH  24  25
HETATM   25  O4  UNK     1      30.998  -9.118  29.866  1.00  0.00    -0.347 OA
BRANCH  25  26
HETATM   26  C21 UNK     1      29.770  -8.523  29.986  1.00  0.00     0.069 A 
HETATM   27  C22 UNK     1      28.618  -9.287  29.835  1.00  0.00     0.038 A 
HETATM   28  C24 UNK     1      27.367  -8.681  29.955  1.00  0.00     0.026 A 
HETATM   29  C26 UNK     1      27.276  -7.316  30.224  1.00  0.00     0.034 A 
HETATM   30  C25 UNK     1      28.437  -6.556  30.374  1.00  0.00     0.026 A 
HETATM   31 Cl1  UNK     1      25.733  -6.569  30.373  1.00  0.00    -0.084 Cl
HETATM   32  C23 UNK     1      29.687  -7.161  30.255  1.00  0.00     0.038 A 
ENDBRANCH  25  26
ENDBRANCH  24  25
ENDBRANCH  22  24
ENDBRANCH   5  18
BRANCH  11  33
HETATM   33  N1  UNK     1      37.234  -7.609  34.956  1.00  0.00    -0.379 N 
HETATM   34  H10 UNK     1      37.872  -6.832  34.846  1.00  0.00     0.158 HD
HETATM   35  H11 UNK     1      37.590  -8.538  35.142  1.00  0.00     0.158 HD
ENDBRANCH  11  33
TORSDOF 5
ENDMDL
MODEL 7
REMARK VINA RESULT:      -8.2      3.304      6.371
REMARK  5 active torsions:
REMARK  status: ('A' for Active; 'I' for Inactive)
REMARK    1  A    between atoms: C15_22  and  O4_5 
REMARK    2  A    between atoms: C21_28  and  O4_5 
REMARK    3  A    between atoms: C9_16  and  N1_6 
REMARK    4  A    between atoms: C1_8  and  C3_10 
REMARK    5  A    between atoms: C11_18  and  C15_22 
ROOT
HETATM    1  O1  UNK     1      31.399  -9.571  37.396  1.00  0.00    -0.269 OA
HETATM    2  O2  UNK     1      32.029  -8.777  35.283  1.00  0.00    -0.286 OA
HETATM    3  O3  UNK     1      28.312  -7.270  34.607  1.00  0.00    -0.287 OA
HETATM    4  N2  UNK     1      27.426 -10.175  40.053  1.00  0.00    -0.191 NA
HETATM    5  C1  UNK     1      28.747  -8.505  37.184  1.00  0.00     0.108 C 
HETATM    6  C2  UNK     1      29.795  -8.378  36.100  1.00  0.00     0.065 A 
HETATM    7  C4  UNK     1      29.185  -9.451  38.294  1.00  0.00     0.086 C 
HETATM    8  C5  UNK     1      31.034  -8.887  36.242  1.00  0.00     0.204 A 
HETATM    9  C6  UNK     1      29.436  -7.700  34.826  1.00  0.00     0.197 A 
HETATM   10  C8  UNK     1      30.510  -7.569  33.831  1.00  0.00     0.049 A 
HETATM   11  C9  UNK     1      30.451  -9.921  38.356  1.00  0.00     0.162 C 
HETATM   12  C12 UNK     1      31.756  -8.118  34.115  1.00  0.00     0.092 A 
HETATM   13  C16 UNK     1      30.287  -6.911  32.619  1.00  0.00     0.018 A 
HETATM   14  C17 UNK     1      32.792  -8.010  33.187  1.00  0.00     0.038 A 
HETATM   15  C18 UNK     1      28.213  -9.851  39.266  1.00  0.00     0.100 C 
HETATM   16  C19 UNK     1      31.325  -6.803  31.694  1.00  0.00     0.001 A 
HETATM   17  C20 UNK     1      32.576  -7.353  31.976  1.00  0.00     0.003 A 
ENDROOT
BRANCH   5  18
HETATM   18  C3  UNK     1      28.414  -7.157  37.753  1.00  0.00    -0.043 A 
HETATM   19  C10 UNK     1      27.096  -6.852  38.072  1.00  0.00     0.008 A 
HETATM   20  C13 UNK     1      26.786  -5.599  38.601  1.00  0.00     0.001 A 
HETATM   21  C14 UNK     1      27.796  -4.660  38.807  1.00  0.00     0.009 A 
HETATM   22  C11 UNK     1      29.116  -4.973  38.485  1.00  0.00    -0.034 A 
HETATM   23  C7  UNK     1      29.426  -6.226  37.956  1.00  0.00     0.017 A 
BRANCH  22  24
HETATM   24  C15 UNK     1      30.197  -3.969  38.706  1.00  0.00     0.214 C 
BRANCH  24  25
HETATM   25  O4  UNK     1      30.745  -3.581  37.453  1.00  0.00    -0.347 OA
BRANCH  25  26
HETATM   26  C21 UNK     1      31.832  -4.287  37.009  1.00  0.00     0.069 A 
HETATM   27  C22 UNK     1      32.158  -4.270  35.657  1.00  0.00     0.038 A 
HETATM   28  C24 UNK     1      33.263  -4.991  35.205  1.00  0.00     0.026 A 
HETATM   29  C26 UNK     1      34.034  -5.725  36.105  1.00  0.00     0.034 A 
HETATM   30  C25 UNK     1      33.700  -5.738  37.460  1.00  0.00     0.026 A 
HETATM   31 Cl1  UNK     1      35.397  -6.614  35.547  1.00  0.00    -0.084 Cl
HETATM   32  C23 UNK     1      32.596  -5.017  37.913  1.00  0.00     0.038 A 
ENDBRANCH  25  26
ENDBRANCH  24  25
ENDBRANCH  22  24
ENDBRANCH   5  18
BRANCH  11  33
HETATM   33  N1  UNK     1      30.932 -10.760  39.324  1.00  0.00    -0.379 N 
HETATM   34  H10 UNK     1      30.757 -11.756  39.284  1.00  0.00     0.158 HD
HETATM   35  H11 UNK     1      31.466 -10.367  40.088  1.00  0.00     0.158 HD
ENDBRANCH  11  33
TORSDOF 5
ENDMDL
MODEL 8
REMARK VINA RESULT:      -8.1      3.981      6.670
REMARK  5 active torsions:
REMARK  status: ('A' for Active; 'I' for Inactive)
REMARK    1  A    between atoms: C15_22  and  O4_5 
REMARK    2  A    between atoms: C21_28  and  O4_5 
REMARK    3  A    between atoms: C9_16  and  N1_6 
REMARK    4  A    between atoms: C1_8  and  C3_10 
REMARK    5  A    between atoms: C11_18  and  C15_22 
ROOT
HETATM    1  O1  UNK     1      33.813  -8.783  29.381  1.00  0.00    -0.269 OA
HETATM    2  O2  UNK     1      32.512 -10.698  29.746  1.00  0.00    -0.286 OA
HETATM    3  O3  UNK     1      32.805 -10.274  33.781  1.00  0.00    -0.287 OA
HETATM    4  N2  UNK     1      36.569  -5.695  31.846  1.00  0.00    -0.191 NA
HETATM    5  C1  UNK     1      34.070  -8.227  32.181  1.00  0.00     0.108 C 
HETATM    6  C2  UNK     1      33.314  -9.413  31.623  1.00  0.00     0.065 A 
HETATM    7  C4  UNK     1      34.862  -7.497  31.104  1.00  0.00     0.086 C 
HETATM    8  C5  UNK     1      33.210  -9.635  30.299  1.00  0.00     0.204 A 
HETATM    9  C6  UNK     1      32.695 -10.381  32.568  1.00  0.00     0.197 A 
HETATM   10  C8  UNK     1      31.938 -11.487  31.965  1.00  0.00     0.049 A 
HETATM   11  C9  UNK     1      34.699  -7.790  29.793  1.00  0.00     0.162 C 
HETATM   12  C12 UNK     1      31.886 -11.586  30.578  1.00  0.00     0.092 A 
HETATM   13  C16 UNK     1      31.283 -12.427  32.765  1.00  0.00     0.018 A 
HETATM   14  C17 UNK     1      31.175 -12.628  29.981  1.00  0.00     0.038 A 
HETATM   15  C18 UNK     1      35.805  -6.501  31.514  1.00  0.00     0.100 C 
HETATM   16  C19 UNK     1      30.572 -13.466  32.165  1.00  0.00     0.001 A 
HETATM   17  C20 UNK     1      30.519 -13.568  30.775  1.00  0.00     0.003 A 
ENDROOT
BRANCH   5  18
HETATM   18  C3  UNK     1      33.129  -7.279  32.865  1.00  0.00    -0.043 A 
HETATM   19  C10 UNK     1      33.438  -6.797  34.131  1.00  0.00     0.008 A 
HETATM   20  C13 UNK     1      32.564  -5.916  34.767  1.00  0.00     0.001 A 
HETATM   21  C14 UNK     1      31.387  -5.522  34.132  1.00  0.00     0.009 A 
HETATM   22  C11 UNK     1      31.084  -6.009  32.861  1.00  0.00    -0.034 A 
HETATM   23  C7  UNK     1      31.958  -6.890  32.225  1.00  0.00     0.017 A 
BRANCH  22  24
HETATM   24  C15 UNK     1      29.824  -5.586  32.181  1.00  0.00     0.214 C 
BRANCH  24  25
HETATM   25  O4  UNK     1      29.995  -5.678  30.772  1.00  0.00    -0.347 OA
BRANCH  25  26
HETATM   26  C21 UNK     1      29.616  -6.854  30.180  1.00  0.00     0.069 A 
HETATM   27  C22 UNK     1      28.447  -7.486  30.591  1.00  0.00     0.038 A 
HETATM   28  C24 UNK     1      28.063  -8.685  29.989  1.00  0.00     0.026 A 
HETATM   29  C26 UNK     1      28.849  -9.244  28.982  1.00  0.00     0.034 A 
HETATM   30  C25 UNK     1      30.021  -8.603  28.576  1.00  0.00     0.026 A 
HETATM   31 Cl1  UNK     1      28.374 -10.722  28.241  1.00  0.00    -0.084 Cl
HETATM   32  C23 UNK     1      30.405  -7.405  29.176  1.00  0.00     0.038 A 
ENDBRANCH  25  26
ENDBRANCH  24  25
ENDBRANCH  22  24
ENDBRANCH   5  18
BRANCH  11  33
HETATM   33  N1  UNK     1      35.356  -7.176  28.763  1.00  0.00    -0.379 N 
HETATM   34  H10 UNK     1      36.162  -6.589  28.935  1.00  0.00     0.158 HD
HETATM   35  H11 UNK     1      35.020  -7.315  27.818  1.00  0.00     0.158 HD
ENDBRANCH  11  33
TORSDOF 5
ENDMDL
MODEL 9
REMARK VINA RESULT:      -8.1      0.980      1.109
REMARK  5 active torsions:
REMARK  status: ('A' for Active; 'I' for Inactive)
REMARK    1  A    between atoms: C15_22  and  O4_5 
REMARK    2  A    between atoms: C21_28  and  O4_5 
REMARK    3  A    between atoms: C9_16  and  N1_6 
REMARK    4  A    between atoms: C1_8  and  C3_10 
REMARK    5  A    between atoms: C11_18  and  C15_22 
ROOT
HETATM    1  O1  UNK     1      29.938  -6.600  31.635  1.00  0.00    -0.269 OA
HETATM    2  O2  UNK     1      29.080  -6.827  33.803  1.00  0.00    -0.286 OA
HETATM    3  O3  UNK     1      32.073  -9.375  34.851  1.00  0.00    -0.287 OA
HETATM    4  N2  UNK     1      33.279  -8.583  28.785  1.00  0.00    -0.191 NA
HETATM    5  C1  UNK     1      32.190  -8.289  32.176  1.00  0.00     0.108 C 
HETATM    6  C2  UNK     1      31.115  -7.967  33.190  1.00  0.00     0.065 A 
HETATM    7  C4  UNK     1      31.822  -7.801  30.780  1.00  0.00     0.086 C 
HETATM    8  C5  UNK     1      30.075  -7.162  32.899  1.00  0.00     0.204 A 
HETATM    9  C6  UNK     1      31.191  -8.586  34.541  1.00  0.00     0.197 A 
HETATM   10  C8  UNK     1      30.142  -8.201  35.495  1.00  0.00     0.049 A 
HETATM   11  C9  UNK     1      30.753  -6.998  30.577  1.00  0.00     0.162 C 
HETATM   12  C12 UNK     1      29.137  -7.336  35.073  1.00  0.00     0.092 A 
HETATM   13  C16 UNK     1      30.147  -8.693  36.803  1.00  0.00     0.018 A 
HETATM   14  C17 UNK     1      28.128  -6.955  35.958  1.00  0.00     0.038 A 
HETATM   15  C18 UNK     1      32.627  -8.233  29.678  1.00  0.00     0.100 C 
HETATM   16  C19 UNK     1      29.138  -8.310  37.686  1.00  0.00     0.001 A 
HETATM   17  C20 UNK     1      28.129  -7.443  37.265  1.00  0.00     0.003 A 
ENDROOT
BRANCH   5  18
HETATM   18  C3  UNK     1      33.505  -7.702  32.600  1.00  0.00    -0.043 A 
HETATM   19  C10 UNK     1      34.690  -8.287  32.167  1.00  0.00     0.008 A 
HETATM   20  C13 UNK     1      35.912  -7.742  32.562  1.00  0.00     0.001 A 
HETATM   21  C14 UNK     1      35.941  -6.617  33.385  1.00  0.00     0.009 A 
HETATM   22  C11 UNK     1      34.748  -6.036  33.814  1.00  0.00    -0.034 A 
HETATM   23  C7  UNK     1      33.525  -6.580  33.420  1.00  0.00     0.017 A 
BRANCH  22  24
HETATM   24  C15 UNK     1      34.779  -4.831  34.694  1.00  0.00     0.214 C 
BRANCH  24  25
HETATM   25  O4  UNK     1      34.673  -5.237  36.053  1.00  0.00    -0.347 OA
BRANCH  25  26
HETATM   26  C21 UNK     1      33.454  -5.063  36.655  1.00  0.00     0.069 A 
HETATM   27  C22 UNK     1      32.603  -4.058  36.208  1.00  0.00     0.038 A 
HETATM   28  C24 UNK     1      31.364  -3.880  36.823  1.00  0.00     0.026 A 
HETATM   29  C26 UNK     1      30.983  -4.706  37.880  1.00  0.00     0.034 A 
HETATM   30  C25 UNK     1      31.844  -5.712  38.323  1.00  0.00     0.026 A 
HETATM   31 Cl1  UNK     1      29.455  -4.486  38.638  1.00  0.00    -0.084 Cl
HETATM   32  C23 UNK     1      33.083  -5.891  37.709  1.00  0.00     0.038 A 
ENDBRANCH  25  26
ENDBRANCH  24  25
ENDBRANCH  22  24
ENDBRANCH   5  18
BRANCH  11  33
HETATM   33  N1  UNK     1      30.361  -6.504  29.363  1.00  0.00    -0.379 N 
HETATM   34  H10 UNK     1      30.723  -6.891  28.501  1.00  0.00     0.158 HD
HETATM   35  H11 UNK     1      29.701  -5.737  29.340  1.00  0.00     0.158 HD
ENDBRANCH  11  33
TORSDOF 5
ENDMDL
MODEL 10
REMARK VINA RESULT:      -8.1      3.337      6.227
REMARK  5 active torsions:
REMARK  status: ('A' for Active; 'I' for Inactive)
REMARK    1  A    between atoms: C15_22  and  O4_5 
REMARK    2  A    between atoms: C21_28  and  O4_5 
REMARK    3  A    between atoms: C9_16  and  N1_6 
REMARK    4  A    between atoms: C1_8  and  C3_10 
REMARK    5  A    between atoms: C11_18  and  C15_22 
ROOT
HETATM    1  O1  UNK     1      31.768 -10.157  34.391  1.00  0.00    -0.269 OA
HETATM    2  O2  UNK     1      31.427  -8.833  32.488  1.00  0.00    -0.286 OA
HETATM    3  O3  UNK     1      29.512  -5.981  34.668  1.00  0.00    -0.287 OA
HETATM    4  N2  UNK     1      30.396 -10.375  39.004  1.00  0.00    -0.191 NA
HETATM    5  C1  UNK     1      30.547  -8.243  36.140  1.00  0.00     0.108 C 
HETATM    6  C2  UNK     1      30.680  -8.054  34.645  1.00  0.00     0.065 A 
HETATM    7  C4  UNK     1      30.928  -9.653  36.573  1.00  0.00     0.086 C 
HETATM    8  C5  UNK     1      31.268  -8.975  33.858  1.00  0.00     0.204 A 
HETATM    9  C6  UNK     1      30.114  -6.828  34.022  1.00  0.00     0.197 A 
HETATM   10  C8  UNK     1      30.313  -6.681  32.573  1.00  0.00     0.049 A 
HETATM   11  C9  UNK     1      31.510 -10.518  35.712  1.00  0.00     0.162 C 
HETATM   12  C12 UNK     1      30.963  -7.698  31.880  1.00  0.00     0.092 A 
HETATM   13  C16 UNK     1      29.857  -5.546  31.898  1.00  0.00     0.018 A 
HETATM   14  C17 UNK     1      31.164  -7.584  30.504  1.00  0.00     0.038 A 
HETATM   15  C18 UNK     1      30.634 -10.052  37.916  1.00  0.00     0.100 C 
HETATM   16  C19 UNK     1      30.060  -5.434  30.523  1.00  0.00     0.001 A 
HETATM   17  C20 UNK     1      30.711  -6.452  29.826  1.00  0.00     0.003 A 
ENDROOT
BRANCH   5  18
HETATM   18  C3  UNK     1      31.380  -7.233  36.874  1.00  0.00    -0.043 A 
HETATM   19  C10 UNK     1      30.804  -6.468  37.881  1.00  0.00     0.008 A 
HETATM   20  C13 UNK     1      31.577  -5.528  38.563  1.00  0.00     0.001 A 
HETATM   21  C14 UNK     1      32.922  -5.361  38.233  1.00  0.00     0.009 A 
HETATM   22  C11 UNK     1      33.493  -6.133  37.222  1.00  0.00    -0.034 A 
HETATM   23  C7  UNK     1      32.719  -7.072  36.540  1.00  0.00     0.017 A 
BRANCH  22  24
HETATM   24  C15 UNK     1      34.932  -5.955  36.870  1.00  0.00     0.214 C 
BRANCH  24  25
HETATM   25  O4  UNK     1      35.036  -5.478  35.534  1.00  0.00    -0.347 OA
BRANCH  25  26
HETATM   26  C21 UNK     1      35.414  -6.388  34.582  1.00  0.00     0.069 A 
HETATM   27  C22 UNK     1      34.597  -6.609  33.479  1.00  0.00     0.038 A 
HETATM   28  C24 UNK     1      34.981  -7.537  32.511  1.00  0.00     0.026 A 
HETATM   29  C26 UNK     1      36.178  -8.238  32.651  1.00  0.00     0.034 A 
HETATM   30  C25 UNK     1      36.993  -8.010  33.761  1.00  0.00     0.026 A 
HETATM   31 Cl1  UNK     1      36.652  -9.381  31.456  1.00  0.00    -0.084 Cl
HETATM   32  C23 UNK     1      36.610  -7.082  34.729  1.00  0.00     0.038 A 
ENDBRANCH  25  26
ENDBRANCH  24  25
ENDBRANCH  22  24
ENDBRANCH   5  18
BRANCH  11  33
HETATM   33  N1  UNK     1      31.897 -11.794  36.020  1.00  0.00    -0.379 N 
HETATM   34  H10 UNK     1      32.352 -12.002  36.899  1.00  0.00     0.158 HD
HETATM   35  H11 UNK     1      31.723 -12.531  35.349  1.00  0.00     0.158 HD
ENDBRANCH  11  33
TORSDOF 5
ENDMDL
