MODEL 1
REMARK VINA RESULT:      -9.4      0.000      0.000
REMARK  6 active torsions:
REMARK  status: ('A' for Active; 'I' for Inactive)
REMARK    1  A    between atoms: C14_20  and  O2_2 
REMARK    2  A    between atoms: C7_13  and  O2_2 
REMARK    3  A    between atoms: C4_10  and  N1_6 
REMARK       I    between atoms: C6_12  and  N1_6 
REMARK    4  A    between atoms: C2_8  and  C6_12 
REMARK    5  A    between atoms: C4_10  and  C7_13 
REMARK    6  A    between atoms: C13_19  and  C14_20 
ROOT
HETATM    1  O3  UNK     1      19.443  -2.486  31.191  1.00  0.00    -0.267 OA
HETATM    2  N1  UNK     1      20.217  -0.291  31.331  1.00  0.00    -0.355 N 
HETATM    3  C6  UNK     1      19.640  -1.449  31.821  1.00  0.00     0.257 C 
HETATM    4  H6  UNK     1      20.304   0.528  31.924  1.00  0.00     0.162 HD
ENDROOT
BRANCH   2   5
HETATM    5  C4  UNK     1      20.675  -0.156  29.967  1.00  0.00     0.149 C 
BRANCH   5   6
HETATM    6  C7  UNK     1      19.557   0.296  29.046  1.00  0.00     0.198 C 
BRANCH   6   7
HETATM    7  O2  UNK     1      18.613   1.059  29.786  1.00  0.00    -0.316 OA
BRANCH   7   8
HETATM    8  C14 UNK     1      18.301   2.282  29.277  1.00  0.00     0.293 C 
HETATM    9  O5  UNK     1      17.920   2.511  28.140  1.00  0.00    -0.259 OA
BRANCH   8  10
HETATM   10  C13 UNK     1      18.485   3.341  30.302  1.00  0.00     0.039 A 
HETATM   11  C15 UNK     1      18.112   3.080  31.605  1.00  0.00     0.017 A 
HETATM   12  C17 UNK     1      18.287   4.074  32.568  1.00  0.00     0.001 A 
HETATM   13  C19 UNK     1      18.830   5.307  32.207  1.00  0.00     0.000 A 
HETATM   14  C18 UNK     1      19.199   5.546  30.884  1.00  0.00     0.001 A 
HETATM   15  C16 UNK     1      19.025   4.552  29.920  1.00  0.00     0.017 A 
ENDBRANCH   8  10
ENDBRANCH   7   8
ENDBRANCH   6   7
ENDBRANCH   5   6
ENDBRANCH   2   5
BRANCH   3  16
HETATM   16  C2  UNK     1      19.260  -1.343  33.235  1.00  0.00     0.108 A 
HETATM   17  C5  UNK     1      18.322  -0.435  33.529  1.00  0.00     0.037 A 
HETATM   18  C1  UNK     1      17.880  -0.255  34.903  1.00  0.00    -0.001 A 
HETATM   19  C3  UNK     1      18.448  -1.042  35.901  1.00  0.00     0.089 A 
HETATM   20  C8  UNK     1      16.904   0.680  35.255  1.00  0.00     0.014 A 
HETATM   21  C10 UNK     1      18.069  -0.919  37.236  1.00  0.00     0.038 A 
HETATM   22  O1  UNK     1      19.434  -1.996  35.585  1.00  0.00    -0.274 OA
HETATM   23  C12 UNK     1      17.095   0.017  37.579  1.00  0.00     0.003 A 
HETATM   24  C11 UNK     1      16.513   0.814  36.591  1.00  0.00     0.001 A 
HETATM   25  C9  UNK     1      19.878  -2.190  34.280  1.00  0.00     0.304 A 
HETATM   26  O4  UNK     1      20.739  -3.022  34.015  1.00  0.00    -0.259 OA
ENDBRANCH   3  16
TORSDOF 6
ENDMDL
MODEL 2
REMARK VINA RESULT:      -8.9      4.072      9.316
REMARK  6 active torsions:
REMARK  status: ('A' for Active; 'I' for Inactive)
REMARK    1  A    between atoms: C14_20  and  O2_2 
REMARK    2  A    between atoms: C7_13  and  O2_2 
REMARK    3  A    between atoms: C4_10  and  N1_6 
REMARK       I    between atoms: C6_12  and  N1_6 
REMARK    4  A    between atoms: C2_8  and  C6_12 
REMARK    5  A    between atoms: C4_10  and  C7_13 
REMARK    6  A    between atoms: C13_19  and  C14_20 
ROOT
HETATM    1  O3  UNK     1      17.030  -0.506  35.444  1.00  0.00    -0.267 OA
HETATM    2  N1  UNK     1      18.998  -1.749  35.570  1.00  0.00    -0.355 N 
HETATM    3  C6  UNK     1      18.086  -0.907  34.960  1.00  0.00     0.257 C 
HETATM    4  H6  UNK     1      19.829  -2.051  35.071  1.00  0.00     0.162 HD
ENDROOT
BRANCH   2   5
HETATM    5  C4  UNK     1      18.812  -2.279  36.901  1.00  0.00     0.149 C 
BRANCH   5   6
HETATM    6  C7  UNK     1      20.018  -3.080  37.356  1.00  0.00     0.198 C 
BRANCH   6   7
HETATM    7  O2  UNK     1      19.796  -4.459  37.093  1.00  0.00    -0.316 OA
BRANCH   7   8
HETATM    8  C14 UNK     1      20.776  -5.312  37.503  1.00  0.00     0.293 C 
HETATM    9  O5  UNK     1      21.962  -5.043  37.610  1.00  0.00    -0.259 OA
BRANCH   8  10
HETATM   10  C13 UNK     1      20.213  -6.650  37.814  1.00  0.00     0.039 A 
HETATM   11  C15 UNK     1      19.551  -7.341  36.820  1.00  0.00     0.017 A 
HETATM   12  C17 UNK     1      19.022  -8.599  37.111  1.00  0.00     0.001 A 
HETATM   13  C19 UNK     1      19.167  -9.137  38.390  1.00  0.00     0.000 A 
HETATM   14  C18 UNK     1      19.840  -8.419  39.377  1.00  0.00     0.001 A 
HETATM   15  C16 UNK     1      20.369  -7.161  39.086  1.00  0.00     0.017 A 
ENDBRANCH   8  10
ENDBRANCH   7   8
ENDBRANCH   6   7
ENDBRANCH   5   6
ENDBRANCH   2   5
BRANCH   3  16
HETATM   16  C2  UNK     1      18.499  -0.500  33.611  1.00  0.00     0.108 A 
HETATM   17  C5  UNK     1      19.117  -1.431  32.876  1.00  0.00     0.037 A 
HETATM   18  C1  UNK     1      19.565  -1.123  31.527  1.00  0.00    -0.001 A 
HETATM   19  C3  UNK     1      19.340   0.153  31.018  1.00  0.00     0.089 A 
HETATM   20  C8  UNK     1      20.214  -2.064  30.723  1.00  0.00     0.014 A 
HETATM   21  C10 UNK     1      19.744   0.512  29.734  1.00  0.00     0.038 A 
HETATM   22  O1  UNK     1      18.688   1.129  31.797  1.00  0.00    -0.274 OA
HETATM   23  C12 UNK     1      20.390  -0.432  28.940  1.00  0.00     0.003 A 
HETATM   24  C11 UNK     1      20.625  -1.718  29.433  1.00  0.00     0.001 A 
HETATM   25  C9  UNK     1      18.249   0.863  33.091  1.00  0.00     0.304 A 
HETATM   26  O4  UNK     1      17.684   1.720  33.762  1.00  0.00    -0.259 OA
ENDBRANCH   3  16
TORSDOF 6
ENDMDL
MODEL 3
REMARK VINA RESULT:      -8.9      5.023      7.264
REMARK  6 active torsions:
REMARK  status: ('A' for Active; 'I' for Inactive)
REMARK    1  A    between atoms: C14_20  and  O2_2 
REMARK    2  A    between atoms: C7_13  and  O2_2 
REMARK    3  A    between atoms: C4_10  and  N1_6 
REMARK       I    between atoms: C6_12  and  N1_6 
REMARK    4  A    between atoms: C2_8  and  C6_12 
REMARK    5  A    between atoms: C4_10  and  C7_13 
REMARK    6  A    between atoms: C13_19  and  C14_20 
ROOT
HETATM    1  O3  UNK     1      21.279  -4.201  37.459  1.00  0.00    -0.267 OA
HETATM    2  N1  UNK     1      19.460  -4.084  36.007  1.00  0.00    -0.355 N 
HETATM    3  C6  UNK     1      20.408  -4.734  36.775  1.00  0.00     0.257 C 
HETATM    4  H6  UNK     1      18.801  -4.617  35.448  1.00  0.00     0.162 HD
ENDROOT
BRANCH   2   5
HETATM    5  C4  UNK     1      19.376  -2.645  35.910  1.00  0.00     0.149 C 
BRANCH   5   6
HETATM    6  C7  UNK     1      20.440  -2.086  34.983  1.00  0.00     0.198 C 
BRANCH   6   7
HETATM    7  O2  UNK     1      19.859  -1.792  33.719  1.00  0.00    -0.316 OA
BRANCH   7   8
HETATM    8  C14 UNK     1      20.496  -2.309  32.633  1.00  0.00     0.293 C 
HETATM    9  O5  UNK     1      21.181  -3.319  32.616  1.00  0.00    -0.259 OA
BRANCH   8  10
HETATM   10  C13 UNK     1      20.251  -1.471  31.431  1.00  0.00     0.039 A 
HETATM   11  C15 UNK     1      19.697  -0.218  31.594  1.00  0.00     0.017 A 
HETATM   12  C17 UNK     1      19.467   0.569  30.466  1.00  0.00     0.001 A 
HETATM   13  C19 UNK     1      19.797   0.086  29.200  1.00  0.00     0.000 A 
HETATM   14  C18 UNK     1      20.356  -1.183  29.061  1.00  0.00     0.001 A 
HETATM   15  C16 UNK     1      20.586  -1.971  30.190  1.00  0.00     0.017 A 
ENDBRANCH   8  10
ENDBRANCH   7   8
ENDBRANCH   6   7
ENDBRANCH   5   6
ENDBRANCH   2   5
BRANCH   3  16
HETATM   16  C2  UNK     1      20.287  -6.196  36.715  1.00  0.00     0.108 A 
HETATM   17  C5  UNK     1      20.053  -6.819  37.875  1.00  0.00     0.037 A 
HETATM   18  C1  UNK     1      19.919  -8.266  37.917  1.00  0.00    -0.001 A 
HETATM   19  C3  UNK     1      20.037  -8.988  36.733  1.00  0.00     0.089 A 
HETATM   20  C8  UNK     1      19.674  -8.958  39.107  1.00  0.00     0.014 A 
HETATM   21  C10 UNK     1      19.919 -10.376  36.705  1.00  0.00     0.038 A 
HETATM   22  O1  UNK     1      20.283  -8.327  35.514  1.00  0.00    -0.274 OA
HETATM   23  C12 UNK     1      19.675 -11.058  37.896  1.00  0.00     0.003 A 
HETATM   24  C11 UNK     1      19.553 -10.351  39.094  1.00  0.00     0.001 A 
HETATM   25  C9  UNK     1      20.416  -6.943  35.443  1.00  0.00     0.304 A 
HETATM   26  O4  UNK     1      20.632  -6.376  34.378  1.00  0.00    -0.259 OA
ENDBRANCH   3  16
TORSDOF 6
ENDMDL
MODEL 4
REMARK VINA RESULT:      -8.9      4.793      8.538
REMARK  6 active torsions:
REMARK  status: ('A' for Active; 'I' for Inactive)
REMARK    1  A    between atoms: C14_20  and  O2_2 
REMARK    2  A    between atoms: C7_13  and  O2_2 
REMARK    3  A    between atoms: C4_10  and  N1_6 
REMARK       I    between atoms: C6_12  and  N1_6 
REMARK    4  A    between atoms: C2_8  and  C6_12 
REMARK    5  A    between atoms: C4_10  and  C7_13 
REMARK    6  A    between atoms: C13_19  and  C14_20 
ROOT
HETATM    1  O3  UNK     1      18.377   6.536  34.157  1.00  0.00    -0.267 OA
HETATM    2  N1  UNK     1      17.226   5.525  32.401  1.00  0.00    -0.355 N 
HETATM    3  C6  UNK     1      17.496   6.540  33.301  1.00  0.00     0.257 C 
HETATM    4  H6  UNK     1      16.450   5.610  31.752  1.00  0.00     0.162 HD
ENDROOT
BRANCH   2   5
HETATM    5  C4  UNK     1      17.975   4.290  32.358  1.00  0.00     0.149 C 
BRANCH   5   6
HETATM    6  C7  UNK     1      18.376   3.930  30.939  1.00  0.00     0.198 C 
BRANCH   6   7
HETATM    7  O2  UNK     1      17.884   2.634  30.623  1.00  0.00    -0.316 OA
BRANCH   7   8
HETATM    8  C14 UNK     1      18.255   2.133  29.413  1.00  0.00     0.293 C 
HETATM    9  O5  UNK     1      17.970   2.603  28.323  1.00  0.00    -0.259 OA
BRANCH   8  10
HETATM   10  C13 UNK     1      19.073   0.904  29.581  1.00  0.00     0.039 A 
HETATM   11  C15 UNK     1      19.294   0.096  28.484  1.00  0.00     0.017 A 
HETATM   12  C17 UNK     1      20.063  -1.057  28.642  1.00  0.00     0.001 A 
HETATM   13  C19 UNK     1      20.593  -1.377  29.892  1.00  0.00     0.000 A 
HETATM   14  C18 UNK     1      20.355  -0.544  30.984  1.00  0.00     0.001 A 
HETATM   15  C16 UNK     1      19.586   0.610  30.827  1.00  0.00     0.017 A 
ENDBRANCH   8  10
ENDBRANCH   7   8
ENDBRANCH   6   7
ENDBRANCH   5   6
ENDBRANCH   2   5
BRANCH   3  16
HETATM   16  C2  UNK     1      16.602   7.694  33.145  1.00  0.00     0.108 A 
HETATM   17  C5  UNK     1      16.124   8.228  34.275  1.00  0.00     0.037 A 
HETATM   18  C1  UNK     1      15.229   9.373  34.225  1.00  0.00    -0.001 A 
HETATM   19  C3  UNK     1      14.881   9.901  32.985  1.00  0.00     0.089 A 
HETATM   20  C8  UNK     1      14.707   9.963  35.379  1.00  0.00     0.014 A 
HETATM   21  C10 UNK     1      14.028  10.997  32.867  1.00  0.00     0.038 A 
HETATM   22  O1  UNK     1      15.387   9.335  31.799  1.00  0.00    -0.274 OA
HETATM   23  C12 UNK     1      13.512  11.578  34.023  1.00  0.00     0.003 A 
HETATM   24  C11 UNK     1      13.851  11.063  35.276  1.00  0.00     0.001 A 
HETATM   25  C9  UNK     1      16.245   8.238  31.816  1.00  0.00     0.304 A 
HETATM   26  O4  UNK     1      16.679   7.750  30.778  1.00  0.00    -0.259 OA
ENDBRANCH   3  16
TORSDOF 6
ENDMDL
MODEL 5
REMARK VINA RESULT:      -8.8      2.444      6.378
REMARK  6 active torsions:
REMARK  status: ('A' for Active; 'I' for Inactive)
REMARK    1  A    between atoms: C14_20  and  O2_2 
REMARK    2  A    between atoms: C7_13  and  O2_2 
REMARK    3  A    between atoms: C4_10  and  N1_6 
REMARK       I    between atoms: C6_12  and  N1_6 
REMARK    4  A    between atoms: C2_8  and  C6_12 
REMARK    5  A    between atoms: C4_10  and  C7_13 
REMARK    6  A    between atoms: C13_19  and  C14_20 
ROOT
HETATM    1  O3  UNK     1      16.995   2.715  30.806  1.00  0.00    -0.267 OA
HETATM    2  N1  UNK     1      19.302   2.517  30.536  1.00  0.00    -0.355 N 
HETATM    3  C6  UNK     1      18.137   3.153  30.926  1.00  0.00     0.257 C 
HETATM    4  H6  UNK     1      20.199   2.979  30.647  1.00  0.00     0.162 HD
ENDROOT
BRANCH   2   5
HETATM    5  C4  UNK     1      19.317   1.213  29.915  1.00  0.00     0.149 C 
BRANCH   5   6
HETATM    6  C7  UNK     1      19.617   0.119  30.924  1.00  0.00     0.198 C 
BRANCH   6   7
HETATM    7  O2  UNK     1      19.283   0.574  32.229  1.00  0.00    -0.316 OA
BRANCH   7   8
HETATM    8  C14 UNK     1      18.531  -0.273  32.983  1.00  0.00     0.293 C 
HETATM    9  O5  UNK     1      18.079  -1.348  32.621  1.00  0.00    -0.259 OA
BRANCH   8  10
HETATM   10  C13 UNK     1      18.318   0.282  34.344  1.00  0.00     0.039 A 
HETATM   11  C15 UNK     1      18.112  -0.589  35.395  1.00  0.00     0.017 A 
HETATM   12  C17 UNK     1      17.913  -0.067  36.673  1.00  0.00     0.001 A 
HETATM   13  C19 UNK     1      17.923   1.314  36.873  1.00  0.00     0.000 A 
HETATM   14  C18 UNK     1      18.133   2.172  35.794  1.00  0.00     0.001 A 
HETATM   15  C16 UNK     1      18.333   1.651  34.515  1.00  0.00     0.017 A 
ENDBRANCH   8  10
ENDBRANCH   7   8
ENDBRANCH   6   7
ENDBRANCH   5   6
ENDBRANCH   2   5
BRANCH   3  16
HETATM   16  C2  UNK     1      18.380   4.467  31.535  1.00  0.00     0.108 A 
HETATM   17  C5  UNK     1      17.668   4.751  32.631  1.00  0.00     0.037 A 
HETATM   18  C1  UNK     1      17.838   6.029  33.305  1.00  0.00    -0.001 A 
HETATM   19  C3  UNK     1      18.751   6.945  32.791  1.00  0.00     0.089 A 
HETATM   20  C8  UNK     1      17.115   6.368  34.452  1.00  0.00     0.014 A 
HETATM   21  C10 UNK     1      18.961   8.186  33.390  1.00  0.00     0.038 A 
HETATM   22  O1  UNK     1      19.499   6.639  31.638  1.00  0.00    -0.274 OA
HETATM   23  C12 UNK     1      18.236   8.516  34.533  1.00  0.00     0.003 A 
HETATM   24  C11 UNK     1      17.315   7.610  35.063  1.00  0.00     0.001 A 
HETATM   25  C9  UNK     1      19.357   5.425  30.971  1.00  0.00     0.304 A 
HETATM   26  O4  UNK     1      20.011   5.168  29.966  1.00  0.00    -0.259 OA
ENDBRANCH   3  16
TORSDOF 6
ENDMDL
MODEL 6
REMARK VINA RESULT:      -8.8      3.688      6.343
REMARK  6 active torsions:
REMARK  status: ('A' for Active; 'I' for Inactive)
REMARK    1  A    between atoms: C14_20  and  O2_2 
REMARK    2  A    between atoms: C7_13  and  O2_2 
REMARK    3  A    between atoms: C4_10  and  N1_6 
REMARK       I    between atoms: C6_12  and  N1_6 
REMARK    4  A    between atoms: C2_8  and  C6_12 
REMARK    5  A    between atoms: C4_10  and  C7_13 
REMARK    6  A    between atoms: C13_19  and  C14_20 
ROOT
HETATM    1  O3  UNK     1      17.514   3.522  31.927  1.00  0.00    -0.267 OA
HETATM    2  N1  UNK     1      18.943   4.530  30.386  1.00  0.00    -0.355 N 
HETATM    3  C6  UNK     1      18.331   3.459  31.011  1.00  0.00     0.257 C 
HETATM    4  H6  UNK     1      19.634   4.371  29.660  1.00  0.00     0.162 HD
ENDROOT
BRANCH   2   5
HETATM    5  C4  UNK     1      18.687   5.905  30.747  1.00  0.00     0.149 C 
BRANCH   5   6
HETATM    6  C7  UNK     1      19.732   6.431  31.714  1.00  0.00     0.198 C 
BRANCH   6   7
HETATM    7  O2  UNK     1      19.463   5.932  33.018  1.00  0.00    -0.316 OA
BRANCH   7   8
HETATM    8  C14 UNK     1      18.470   6.561  33.706  1.00  0.00     0.293 C 
HETATM    9  O5  UNK     1      17.440   6.046  34.111  1.00  0.00    -0.259 OA
BRANCH   8  10
HETATM   10  C13 UNK     1      18.800   7.995  33.912  1.00  0.00     0.039 A 
HETATM   11  C15 UNK     1      17.824   8.942  33.677  1.00  0.00     0.017 A 
HETATM   12  C17 UNK     1      18.132  10.289  33.871  1.00  0.00     0.001 A 
HETATM   13  C19 UNK     1      19.409  10.658  34.295  1.00  0.00     0.000 A 
HETATM   14  C18 UNK     1      20.377   9.681  34.526  1.00  0.00     0.001 A 
HETATM   15  C16 UNK     1      20.069   8.334  34.333  1.00  0.00     0.017 A 
ENDBRANCH   8  10
ENDBRANCH   7   8
ENDBRANCH   6   7
ENDBRANCH   5   6
ENDBRANCH   2   5
BRANCH   3  16
HETATM   16  C2  UNK     1      18.752   2.162  30.466  1.00  0.00     0.108 A 
HETATM   17  C5  UNK     1      19.284   1.298  31.338  1.00  0.00     0.037 A 
HETATM   18  C1  UNK     1      19.732  -0.011  30.893  1.00  0.00    -0.001 A 
HETATM   19  C3  UNK     1      19.596  -0.348  29.549  1.00  0.00     0.089 A 
HETATM   20  C8  UNK     1      20.293  -0.945  31.768  1.00  0.00     0.014 A 
HETATM   21  C10 UNK     1      20.006  -1.587  29.058  1.00  0.00     0.038 A 
HETATM   22  O1  UNK     1      19.034   0.565  28.636  1.00  0.00    -0.274 OA
HETATM   23  C12 UNK     1      20.565  -2.511  29.938  1.00  0.00     0.003 A 
HETATM   24  C11 UNK     1      20.708  -2.191  31.290  1.00  0.00     0.001 A 
HETATM   25  C9  UNK     1      18.597   1.826  29.033  1.00  0.00     0.304 A 
HETATM   26  O4  UNK     1      18.111   2.615  28.230  1.00  0.00    -0.259 OA
ENDBRANCH   3  16
TORSDOF 6
ENDMDL
MODEL 7
REMARK VINA RESULT:      -8.8      5.294      9.710
REMARK  6 active torsions:
REMARK  status: ('A' for Active; 'I' for Inactive)
REMARK    1  A    between atoms: C14_20  and  O2_2 
REMARK    2  A    between atoms: C7_13  and  O2_2 
REMARK    3  A    between atoms: C4_10  and  N1_6 
REMARK       I    between atoms: C6_12  and  N1_6 
REMARK    4  A    between atoms: C2_8  and  C6_12 
REMARK    5  A    between atoms: C4_10  and  C7_13 
REMARK    6  A    between atoms: C13_19  and  C14_20 
ROOT
HETATM    1  O3  UNK     1      20.971  -4.613  37.110  1.00  0.00    -0.267 OA
HETATM    2  N1  UNK     1      19.224  -5.238  35.698  1.00  0.00    -0.355 N 
HETATM    3  C6  UNK     1      20.030  -4.336  36.369  1.00  0.00     0.257 C 
HETATM    4  H6  UNK     1      18.447  -4.908  35.135  1.00  0.00     0.162 HD
ENDROOT
BRANCH   2   5
HETATM    5  C4  UNK     1      19.399  -6.669  35.789  1.00  0.00     0.149 C 
BRANCH   5   6
HETATM    6  C7  UNK     1      20.304  -7.192  34.688  1.00  0.00     0.198 C 
BRANCH   6   7
HETATM    7  O2  UNK     1      21.433  -7.830  35.268  1.00  0.00    -0.316 OA
BRANCH   7   8
HETATM    8  C14 UNK     1      21.322  -9.172  35.474  1.00  0.00     0.293 C 
HETATM    9  O5  UNK     1      21.554 -10.045  34.654  1.00  0.00    -0.259 OA
BRANCH   8  10
HETATM   10  C13 UNK     1      20.868  -9.455  36.859  1.00  0.00     0.039 A 
HETATM   11  C15 UNK     1      21.497  -8.819  37.910  1.00  0.00     0.017 A 
HETATM   12  C17 UNK     1      21.070  -9.084  39.211  1.00  0.00     0.001 A 
HETATM   13  C19 UNK     1      20.025  -9.980  39.433  1.00  0.00     0.000 A 
HETATM   14  C18 UNK     1      19.405 -10.611  38.355  1.00  0.00     0.001 A 
HETATM   15  C16 UNK     1      19.832 -10.345  37.053  1.00  0.00     0.017 A 
ENDBRANCH   8  10
ENDBRANCH   7   8
ENDBRANCH   6   7
ENDBRANCH   5   6
ENDBRANCH   2   5
BRANCH   3  16
HETATM   16  C2  UNK     1      19.657  -2.939  36.115  1.00  0.00     0.108 A 
HETATM   17  C5  UNK     1      18.964  -2.326  37.082  1.00  0.00     0.037 A 
HETATM   18  C1  UNK     1      18.549  -0.942  36.922  1.00  0.00    -0.001 A 
HETATM   19  C3  UNK     1      18.884  -0.269  35.750  1.00  0.00     0.089 A 
HETATM   20  C8  UNK     1      17.824  -0.262  37.905  1.00  0.00     0.014 A 
HETATM   21  C10 UNK     1      18.516   1.058  35.535  1.00  0.00     0.038 A 
HETATM   22  O1  UNK     1      19.615  -0.919  34.737  1.00  0.00    -0.274 OA
HETATM   23  C12 UNK     1      17.793   1.727  36.520  1.00  0.00     0.003 A 
HETATM   24  C11 UNK     1      17.448   1.069  37.703  1.00  0.00     0.001 A 
HETATM   25  C9  UNK     1      20.025  -2.243  34.861  1.00  0.00     0.304 A 
HETATM   26  O4  UNK     1      20.659  -2.802  33.972  1.00  0.00    -0.259 OA
ENDBRANCH   3  16
TORSDOF 6
ENDMDL
MODEL 8
REMARK VINA RESULT:      -8.7      3.156      5.791
REMARK  6 active torsions:
REMARK  status: ('A' for Active; 'I' for Inactive)
REMARK    1  A    between atoms: C14_20  and  O2_2 
REMARK    2  A    between atoms: C7_13  and  O2_2 
REMARK    3  A    between atoms: C4_10  and  N1_6 
REMARK       I    between atoms: C6_12  and  N1_6 
REMARK    4  A    between atoms: C2_8  and  C6_12 
REMARK    5  A    between atoms: C4_10  and  C7_13 
REMARK    6  A    between atoms: C13_19  and  C14_20 
ROOT
HETATM    1  O3  UNK     1      17.984   3.179  28.575  1.00  0.00    -0.267 OA
HETATM    2  N1  UNK     1      19.196   4.254  30.252  1.00  0.00    -0.355 N 
HETATM    3  C6  UNK     1      18.652   3.158  29.607  1.00  0.00     0.257 C 
HETATM    4  H6  UNK     1      19.705   4.135  31.122  1.00  0.00     0.162 HD
ENDROOT
BRANCH   2   5
HETATM    5  C4  UNK     1      19.038   5.608  29.773  1.00  0.00     0.149 C 
BRANCH   5   6
HETATM    6  C7  UNK     1      18.439   6.509  30.838  1.00  0.00     0.198 C 
BRANCH   6   7
HETATM    7  O2  UNK     1      17.842   5.711  31.852  1.00  0.00    -0.316 OA
BRANCH   7   8
HETATM    8  C14 UNK     1      18.136   6.057  33.136  1.00  0.00     0.293 C 
HETATM    9  O5  UNK     1      18.931   5.490  33.868  1.00  0.00    -0.259 OA
BRANCH   8  10
HETATM   10  C13 UNK     1      17.348   7.245  33.554  1.00  0.00     0.039 A 
HETATM   11  C15 UNK     1      18.014   8.421  33.831  1.00  0.00     0.017 A 
HETATM   12  C17 UNK     1      17.274   9.537  34.223  1.00  0.00     0.001 A 
HETATM   13  C19 UNK     1      15.885   9.452  34.329  1.00  0.00     0.000 A 
HETATM   14  C18 UNK     1      15.237   8.251  34.042  1.00  0.00     0.001 A 
HETATM   15  C16 UNK     1      15.977   7.135  33.650  1.00  0.00     0.017 A 
ENDBRANCH   8  10
ENDBRANCH   7   8
ENDBRANCH   6   7
ENDBRANCH   5   6
ENDBRANCH   2   5
BRANCH   3  16
HETATM   16  C2  UNK     1      18.953   1.890  30.283  1.00  0.00     0.108 A 
HETATM   17  C5  UNK     1      19.592   0.968  29.554  1.00  0.00     0.037 A 
HETATM   18  C1  UNK     1      19.933  -0.320  30.135  1.00  0.00    -0.001 A 
HETATM   19  C3  UNK     1      19.585  -0.575  31.459  1.00  0.00     0.089 A 
HETATM   20  C8  UNK     1      20.600  -1.313  29.411  1.00  0.00     0.014 A 
HETATM   21  C10 UNK     1      19.883  -1.789  32.075  1.00  0.00     0.038 A 
HETATM   22  O1  UNK     1      18.914   0.400  32.222  1.00  0.00    -0.274 OA
HETATM   23  C12 UNK     1      20.547  -2.772  31.346  1.00  0.00     0.003 A 
HETATM   24  C11 UNK     1      20.905  -2.535  30.017  1.00  0.00     0.001 A 
HETATM   25  C9  UNK     1      18.574   1.642  31.692  1.00  0.00     0.304 A 
HETATM   26  O4  UNK     1      17.987   2.484  32.363  1.00  0.00    -0.259 OA
ENDBRANCH   3  16
TORSDOF 6
ENDMDL
MODEL 9
REMARK VINA RESULT:      -8.6      2.399      3.494
REMARK  6 active torsions:
REMARK  status: ('A' for Active; 'I' for Inactive)
REMARK    1  A    between atoms: C14_20  and  O2_2 
REMARK    2  A    between atoms: C7_13  and  O2_2 
REMARK    3  A    between atoms: C4_10  and  N1_6 
REMARK       I    between atoms: C6_12  and  N1_6 
REMARK    4  A    between atoms: C2_8  and  C6_12 
REMARK    5  A    between atoms: C4_10  and  C7_13 
REMARK    6  A    between atoms: C13_19  and  C14_20 
ROOT
HETATM    1  O3  UNK     1      19.538   0.423  31.554  1.00  0.00    -0.267 OA
HETATM    2  N1  UNK     1      18.021   2.179  31.344  1.00  0.00    -0.355 N 
HETATM    3  C6  UNK     1      18.740   1.223  32.037  1.00  0.00     0.257 C 
HETATM    4  H6  UNK     1      17.357   2.773  31.831  1.00  0.00     0.162 HD
ENDROOT
BRANCH   2   5
HETATM    5  C4  UNK     1      18.124   2.360  29.914  1.00  0.00     0.149 C 
BRANCH   5   6
HETATM    6  C7  UNK     1      18.575   3.766  29.561  1.00  0.00     0.198 C 
BRANCH   6   7
HETATM    7  O2  UNK     1      19.239   4.344  30.678  1.00  0.00    -0.316 OA
BRANCH   7   8
HETATM    8  C14 UNK     1      19.589   5.654  30.553  1.00  0.00     0.293 C 
HETATM    9  O5  UNK     1      20.135   6.162  29.587  1.00  0.00    -0.259 OA
BRANCH   8  10
HETATM   10  C13 UNK     1      19.216   6.416  31.772  1.00  0.00     0.039 A 
HETATM   11  C15 UNK     1      17.941   6.936  31.868  1.00  0.00     0.017 A 
HETATM   12  C17 UNK     1      17.591   7.651  33.014  1.00  0.00     0.001 A 
HETATM   13  C19 UNK     1      18.521   7.830  34.037  1.00  0.00     0.000 A 
HETATM   14  C18 UNK     1      19.803   7.293  33.916  1.00  0.00     0.001 A 
HETATM   15  C16 UNK     1      20.154   6.578  32.770  1.00  0.00     0.017 A 
ENDBRANCH   8  10
ENDBRANCH   7   8
ENDBRANCH   6   7
ENDBRANCH   5   6
ENDBRANCH   2   5
BRANCH   3  16
HETATM   16  C2  UNK     1      18.466   1.237  33.479  1.00  0.00     0.108 A 
HETATM   17  C5  UNK     1      18.438   0.045  34.087  1.00  0.00     0.037 A 
HETATM   18  C1  UNK     1      18.173  -0.044  35.514  1.00  0.00    -0.001 A 
HETATM   19  C3  UNK     1      17.952   1.127  36.233  1.00  0.00     0.089 A 
HETATM   20  C8  UNK     1      18.135  -1.267  36.190  1.00  0.00     0.014 A 
HETATM   21  C10 UNK     1      17.693   1.111  37.602  1.00  0.00     0.038 A 
HETATM   22  O1  UNK     1      17.984   2.379  35.587  1.00  0.00    -0.274 OA
HETATM   23  C12 UNK     1      17.655  -0.113  38.267  1.00  0.00     0.003 A 
HETATM   24  C11 UNK     1      17.876  -1.299  37.564  1.00  0.00     0.001 A 
HETATM   25  C9  UNK     1      18.234   2.495  34.223  1.00  0.00     0.304 A 
HETATM   26  O4  UNK     1      18.258   3.589  33.669  1.00  0.00    -0.259 OA
ENDBRANCH   3  16
TORSDOF 6
ENDMDL
MODEL 10
REMARK VINA RESULT:      -8.6      4.937      7.167
REMARK  6 active torsions:
REMARK  status: ('A' for Active; 'I' for Inactive)
REMARK    1  A    between atoms: C14_20  and  O2_2 
REMARK    2  A    between atoms: C7_13  and  O2_2 
REMARK    3  A    between atoms: C4_10  and  N1_6 
REMARK       I    between atoms: C6_12  and  N1_6 
REMARK    4  A    between atoms: C2_8  and  C6_12 
REMARK    5  A    between atoms: C4_10  and  C7_13 
REMARK    6  A    between atoms: C13_19  and  C14_20 
ROOT
HETATM    1  O3  UNK     1      20.355  -4.712  34.434  1.00  0.00    -0.267 OA
HETATM    2  N1  UNK     1      19.926  -3.835  36.550  1.00  0.00    -0.355 N 
HETATM    3  C6  UNK     1      20.031  -4.845  35.612  1.00  0.00     0.257 C 
HETATM    4  H6  UNK     1      19.615  -4.043  37.494  1.00  0.00     0.162 HD
ENDROOT
BRANCH   2   5
HETATM    5  C4  UNK     1      20.195  -2.448  36.247  1.00  0.00     0.149 C 
BRANCH   5   6
HETATM    6  C7  UNK     1      19.101  -1.843  35.386  1.00  0.00     0.198 C 
BRANCH   6   7
HETATM    7  O2  UNK     1      19.640  -1.482  34.122  1.00  0.00    -0.316 OA
BRANCH   7   8
HETATM    8  C14 UNK     1      18.740  -1.105  33.173  1.00  0.00     0.293 C 
HETATM    9  O5  UNK     1      17.556  -0.871  33.359  1.00  0.00    -0.259 OA
BRANCH   8  10
HETATM   10  C13 UNK     1      19.389  -1.009  31.840  1.00  0.00     0.039 A 
HETATM   11  C15 UNK     1      19.457   0.221  31.219  1.00  0.00     0.017 A 
HETATM   12  C17 UNK     1      20.068   0.311  29.968  1.00  0.00     0.001 A 
HETATM   13  C19 UNK     1      20.595  -0.831  29.365  1.00  0.00     0.000 A 
HETATM   14  C18 UNK     1      20.513  -2.062  30.014  1.00  0.00     0.001 A 
HETATM   15  C16 UNK     1      19.903  -2.153  31.266  1.00  0.00     0.017 A 
ENDBRANCH   8  10
ENDBRANCH   7   8
ENDBRANCH   6   7
ENDBRANCH   5   6
ENDBRANCH   2   5
BRANCH   3  16
HETATM   16  C2  UNK     1      19.711  -6.169  36.160  1.00  0.00     0.108 A 
HETATM   17  C5  UNK     1      20.681  -7.088  36.090  1.00  0.00     0.037 A 
HETATM   18  C1  UNK     1      20.459  -8.429  36.606  1.00  0.00    -0.001 A 
HETATM   19  C3  UNK     1      19.224  -8.738  37.171  1.00  0.00     0.089 A 
HETATM   20  C8  UNK     1      21.443  -9.421  36.555  1.00  0.00     0.014 A 
HETATM   21  C10 UNK     1      18.948 -10.004  37.684  1.00  0.00     0.038 A 
HETATM   22  O1  UNK     1      18.208  -7.766  37.243  1.00  0.00    -0.274 OA
HETATM   23  C12 UNK     1      19.934 -10.986  37.627  1.00  0.00     0.003 A 
HETATM   24  C11 UNK     1      21.179 -10.695  37.065  1.00  0.00     0.001 A 
HETATM   25  C9  UNK     1      18.391  -6.474  36.757  1.00  0.00     0.304 A 
HETATM   26  O4  UNK     1      17.499  -5.635  36.821  1.00  0.00    -0.259 OA
ENDBRANCH   3  16
TORSDOF 6
ENDMDL
