MODEL 1
REMARK VINA RESULT:      -8.7      0.000      0.000
REMARK  2 active torsions:
REMARK  status: ('A' for Active; 'I' for Inactive)
REMARK    1  A    between atoms: C6_10  and  O2_3 
REMARK    2  A    between atoms: C3_7  and  C8_12 
ROOT
HETATM    1  O1  UNK     1      13.441   7.644   8.596  1.00  0.00    -0.306 OA
HETATM    2  O3  UNK     1      15.296   4.196   9.725  1.00  0.00    -0.284 OA
HETATM    3  C1  UNK     1      15.382   6.546   9.557  1.00  0.00     0.051 A 
HETATM    4  C2  UNK     1      14.695   7.688   9.148  1.00  0.00     0.091 A 
HETATM    5  C3  UNK     1      12.827   6.410   8.447  1.00  0.00     0.123 A 
HETATM    6  C4  UNK     1      14.740   5.233   9.389  1.00  0.00     0.220 A 
HETATM    7  C5  UNK     1      15.283   8.945   9.293  1.00  0.00     0.045 A 
HETATM    8  C6  UNK     1      13.383   5.234   8.791  1.00  0.00     0.152 A 
HETATM    9  C7  UNK     1      16.557   9.055   9.848  1.00  0.00    -0.059 A 
HETATM   10  C9  UNK     1      16.658   6.652  10.112  1.00  0.00     0.019 A 
HETATM   11  C10 UNK     1      17.244   7.911  10.257  1.00  0.00     0.008 A 
HETATM   12  C13 UNK     1      17.188  10.398  10.004  1.00  0.00     0.048 C 
ENDROOT
BRANCH   5  13
HETATM   13  C8  UNK     1      11.486   6.505   7.841  1.00  0.00     0.001 A 
HETATM   14  C11 UNK     1      10.372   6.742   8.646  1.00  0.00     0.017 A 
HETATM   15  C14 UNK     1       9.104   6.832   8.073  1.00  0.00     0.043 A 
HETATM   16  C16 UNK     1       8.949   6.685   6.695  1.00  0.00     0.116 A 
HETATM   17  C15 UNK     1      10.064   6.448   5.889  1.00  0.00     0.043 A 
HETATM   18  F1  UNK     1       7.731   6.773   6.144  1.00  0.00    -0.206 F 
HETATM   19  C12 UNK     1      11.332   6.358   6.463  1.00  0.00     0.017 A 
ENDBRANCH   5  13
BRANCH   8  20
HETATM   20  O2  UNK     1      12.759   4.021   8.599  1.00  0.00    -0.355 OA
HETATM   21  H11 UNK     1      12.068   4.151   7.925  1.00  0.00     0.218 HD
ENDBRANCH   8  20
TORSDOF 2
ENDMDL
MODEL 2
REMARK VINA RESULT:      -8.7      0.020      1.081
REMARK  2 active torsions:
REMARK  status: ('A' for Active; 'I' for Inactive)
REMARK    1  A    between atoms: C6_10  and  O2_3 
REMARK    2  A    between atoms: C3_7  and  C8_12 
ROOT
HETATM    1  O1  UNK     1      13.442   7.658   8.606  1.00  0.00    -0.306 OA
HETATM    2  O3  UNK     1      15.298   4.207   9.723  1.00  0.00    -0.284 OA
HETATM    3  C1  UNK     1      15.385   6.557   9.559  1.00  0.00     0.051 A 
HETATM    4  C2  UNK     1      14.698   7.700   9.154  1.00  0.00     0.091 A 
HETATM    5  C3  UNK     1      12.827   6.425   8.456  1.00  0.00     0.123 A 
HETATM    6  C4  UNK     1      14.742   5.245   9.391  1.00  0.00     0.220 A 
HETATM    7  C5  UNK     1      15.287   8.956   9.301  1.00  0.00     0.045 A 
HETATM    8  C6  UNK     1      13.383   5.248   8.796  1.00  0.00     0.152 A 
HETATM    9  C7  UNK     1      16.563   9.064   9.852  1.00  0.00    -0.059 A 
HETATM   10  C9  UNK     1      16.663   6.661  10.111  1.00  0.00     0.019 A 
HETATM   11  C10 UNK     1      17.250   7.919  10.257  1.00  0.00     0.008 A 
HETATM   12  C13 UNK     1      17.196  10.406  10.009  1.00  0.00     0.048 C 
ENDROOT
BRANCH   5  13
HETATM   13  C8  UNK     1      11.484   6.522   7.855  1.00  0.00     0.001 A 
HETATM   14  C11 UNK     1      11.324   6.370   6.478  1.00  0.00     0.017 A 
HETATM   15  C14 UNK     1      10.054   6.461   5.910  1.00  0.00     0.043 A 
HETATM   16  C16 UNK     1       8.943   6.706   6.718  1.00  0.00     0.116 A 
HETATM   17  C15 UNK     1       9.104   6.858   8.096  1.00  0.00     0.043 A 
HETATM   18  F1  UNK     1       7.723   6.792   6.172  1.00  0.00    -0.206 F 
HETATM   19  C12 UNK     1      10.374   6.766   8.664  1.00  0.00     0.017 A 
ENDBRANCH   5  13
BRANCH   8  20
HETATM   20  O2  UNK     1      12.757   4.036   8.604  1.00  0.00    -0.355 OA
HETATM   21  H11 UNK     1      11.909   4.213   8.161  1.00  0.00     0.218 HD
ENDBRANCH   8  20
TORSDOF 2
ENDMDL
MODEL 3
REMARK VINA RESULT:      -8.6     24.208     26.194
REMARK  2 active torsions:
REMARK  status: ('A' for Active; 'I' for Inactive)
REMARK    1  A    between atoms: C6_10  and  O2_3 
REMARK    2  A    between atoms: C3_7  and  C8_12 
ROOT
HETATM    1  O1  UNK     1      19.010  -0.011  32.843  1.00  0.00    -0.306 OA
HETATM    2  O3  UNK     1      18.614   2.974  30.098  1.00  0.00    -0.284 OA
HETATM    3  C1  UNK     1      19.320   0.774  30.566  1.00  0.00     0.051 A 
HETATM    4  C2  UNK     1      19.429  -0.205  31.552  1.00  0.00     0.091 A 
HETATM    5  C3  UNK     1      18.444   1.209  33.178  1.00  0.00     0.123 A 
HETATM    6  C4  UNK     1      18.732   2.075  30.919  1.00  0.00     0.220 A 
HETATM    7  C5  UNK     1      19.986  -1.447  31.243  1.00  0.00     0.045 A 
HETATM    8  C6  UNK     1      18.290   2.239  32.326  1.00  0.00     0.152 A 
HETATM    9  C7  UNK     1      20.432  -1.704  29.947  1.00  0.00    -0.059 A 
HETATM   10  C9  UNK     1      19.765   0.519  29.268  1.00  0.00     0.019 A 
HETATM   11  C10 UNK     1      20.321  -0.723  28.961  1.00  0.00     0.008 A 
HETATM   12  C13 UNK     1      21.028  -3.031  29.614  1.00  0.00     0.048 C 
ENDROOT
BRANCH   5  13
HETATM   13  C8  UNK     1      18.039   1.285  34.594  1.00  0.00     0.001 A 
HETATM   14  C11 UNK     1      16.845   0.696  35.010  1.00  0.00     0.017 A 
HETATM   15  C14 UNK     1      16.463   0.767  36.349  1.00  0.00     0.043 A 
HETATM   16  C16 UNK     1      17.273   1.428  37.272  1.00  0.00     0.116 A 
HETATM   17  C15 UNK     1      18.467   2.017  36.855  1.00  0.00     0.043 A 
HETATM   18  F1  UNK     1      16.905   1.495  38.558  1.00  0.00    -0.206 F 
HETATM   19  C12 UNK     1      18.850   1.946  35.517  1.00  0.00     0.017 A 
ENDBRANCH   5  13
BRANCH   8  20
HETATM   20  O2  UNK     1      17.753   3.451  32.700  1.00  0.00    -0.355 OA
HETATM   21  H11 UNK     1      18.459   3.963  33.130  1.00  0.00     0.218 HD
ENDBRANCH   8  20
TORSDOF 2
ENDMDL
MODEL 4
REMARK VINA RESULT:      -8.4     22.001     23.864
REMARK  2 active torsions:
REMARK  status: ('A' for Active; 'I' for Inactive)
REMARK    1  A    between atoms: C6_10  and  O2_3 
REMARK    2  A    between atoms: C3_7  and  C8_12 
ROOT
HETATM    1  O1  UNK     1      19.492   1.441  31.292  1.00  0.00    -0.306 OA
HETATM    2  O3  UNK     1      18.767   0.038  27.537  1.00  0.00    -0.284 OA
HETATM    3  C1  UNK     1      19.574  -0.397  29.708  1.00  0.00     0.051 A 
HETATM    4  C2  UNK     1      19.800   0.144  30.973  1.00  0.00     0.091 A 
HETATM    5  C3  UNK     1      18.924   2.245  30.317  1.00  0.00     0.123 A 
HETATM    6  C4  UNK     1      18.983   0.455  28.666  1.00  0.00     0.220 A 
HETATM    7  C5  UNK     1      20.362  -0.644  31.978  1.00  0.00     0.045 A 
HETATM    8  C6  UNK     1      18.664   1.850  29.058  1.00  0.00     0.152 A 
HETATM    9  C7  UNK     1      20.697  -1.972  31.713  1.00  0.00    -0.059 A 
HETATM   10  C9  UNK     1      19.908  -1.727  29.440  1.00  0.00     0.019 A 
HETATM   11  C10 UNK     1      20.470  -2.512  30.447  1.00  0.00     0.008 A 
HETATM   12  C13 UNK     1      21.299  -2.816  32.787  1.00  0.00     0.048 C 
ENDROOT
BRANCH   5  13
HETATM   13  C8  UNK     1      18.645   3.613  30.792  1.00  0.00     0.001 A 
HETATM   14  C11 UNK     1      19.121   4.711  30.076  1.00  0.00     0.017 A 
HETATM   15  C14 UNK     1      18.856   6.004  30.524  1.00  0.00     0.043 A 
HETATM   16  C16 UNK     1      18.116   6.200  31.690  1.00  0.00     0.116 A 
HETATM   17  C15 UNK     1      17.639   5.102  32.406  1.00  0.00     0.043 A 
HETATM   18  F1  UNK     1      17.861   7.443  32.120  1.00  0.00    -0.206 F 
HETATM   19  C12 UNK     1      17.904   3.809  31.958  1.00  0.00     0.017 A 
ENDBRANCH   5  13
BRANCH   8  20
HETATM   20  O2  UNK     1      18.128   2.685  28.103  1.00  0.00    -0.355 OA
HETATM   21  H11 UNK     1      17.742   3.449  28.565  1.00  0.00     0.218 HD
ENDBRANCH   8  20
TORSDOF 2
ENDMDL
MODEL 5
REMARK VINA RESULT:      -7.9     25.468     27.341
REMARK  2 active torsions:
REMARK  status: ('A' for Active; 'I' for Inactive)
REMARK    1  A    between atoms: C6_10  and  O2_3 
REMARK    2  A    between atoms: C3_7  and  C8_12 
ROOT
HETATM    1  O1  UNK     1      18.722  -0.216  33.144  1.00  0.00    -0.306 OA
HETATM    2  O3  UNK     1      20.768  -3.620  34.049  1.00  0.00    -0.284 OA
HETATM    3  C1  UNK     1      20.123  -2.057  32.408  1.00  0.00     0.051 A 
HETATM    4  C2  UNK     1      19.402  -0.889  32.163  1.00  0.00     0.091 A 
HETATM    5  C3  UNK     1      18.761  -0.714  34.437  1.00  0.00     0.123 A 
HETATM    6  C4  UNK     1      20.157  -2.597  33.775  1.00  0.00     0.220 A 
HETATM    7  C5  UNK     1      19.352  -0.358  30.873  1.00  0.00     0.045 A 
HETATM    8  C6  UNK     1      19.409  -1.834  34.804  1.00  0.00     0.152 A 
HETATM    9  C7  UNK     1      20.024  -0.998  29.833  1.00  0.00    -0.059 A 
HETATM   10  C9  UNK     1      20.797  -2.700  31.368  1.00  0.00     0.019 A 
HETATM   11  C10 UNK     1      20.745  -2.167  30.079  1.00  0.00     0.008 A 
HETATM   12  C13 UNK     1      19.971  -0.433  28.453  1.00  0.00     0.048 C 
ENDROOT
BRANCH   5  13
HETATM   13  C8  UNK     1      17.988   0.103  35.391  1.00  0.00     0.001 A 
HETATM   14  C11 UNK     1      18.626   1.094  36.137  1.00  0.00     0.017 A 
HETATM   15  C14 UNK     1      17.895   1.867  37.038  1.00  0.00     0.043 A 
HETATM   16  C16 UNK     1      16.526   1.649  37.195  1.00  0.00     0.116 A 
HETATM   17  C15 UNK     1      15.888   0.658  36.448  1.00  0.00     0.043 A 
HETATM   18  F1  UNK     1      15.824   2.392  38.060  1.00  0.00    -0.206 F 
HETATM   19  C12 UNK     1      16.619  -0.115  35.546  1.00  0.00     0.017 A 
ENDBRANCH   5  13
BRANCH   8  20
HETATM   20  O2  UNK     1      19.401  -2.320  36.093  1.00  0.00    -0.355 OA
HETATM   21  H11 UNK     1      18.471  -2.444  36.353  1.00  0.00     0.218 HD
ENDBRANCH   8  20
TORSDOF 2
ENDMDL
MODEL 6
REMARK VINA RESULT:      -7.9     11.698     13.464
REMARK  2 active torsions:
REMARK  status: ('A' for Active; 'I' for Inactive)
REMARK    1  A    between atoms: C6_10  and  O2_3 
REMARK    2  A    between atoms: C3_7  and  C8_12 
ROOT
HETATM    1  O1  UNK     1      19.242  -0.841  17.762  1.00  0.00    -0.306 OA
HETATM    2  O3  UNK     1      19.334   2.384  15.273  1.00  0.00    -0.284 OA
HETATM    3  C1  UNK     1      19.349   1.569  17.485  1.00  0.00     0.051 A 
HETATM    4  C2  UNK     1      19.312   0.426  18.282  1.00  0.00     0.091 A 
HETATM    5  C3  UNK     1      19.217  -0.989  16.385  1.00  0.00     0.123 A 
HETATM    6  C4  UNK     1      19.310   1.418  16.023  1.00  0.00     0.220 A 
HETATM    7  C5  UNK     1      19.345   0.544  19.672  1.00  0.00     0.045 A 
HETATM    8  C6  UNK     1      19.237   0.029  15.506  1.00  0.00     0.152 A 
HETATM    9  C7  UNK     1      19.416   1.806  20.260  1.00  0.00    -0.059 A 
HETATM   10  C9  UNK     1      19.420   2.835  18.071  1.00  0.00     0.019 A 
HETATM   11  C10 UNK     1      19.453   2.949  19.461  1.00  0.00     0.008 A 
HETATM   12  C13 UNK     1      19.451   1.934  21.746  1.00  0.00     0.048 C 
ENDROOT
BRANCH   5  13
HETATM   13  C8  UNK     1      19.140  -2.400  15.961  1.00  0.00     0.001 A 
HETATM   14  C11 UNK     1      17.907  -2.965  15.638  1.00  0.00     0.017 A 
HETATM   15  C14 UNK     1      17.835  -4.298  15.236  1.00  0.00     0.043 A 
HETATM   16  C16 UNK     1      18.996  -5.067  15.158  1.00  0.00     0.116 A 
HETATM   17  C15 UNK     1      20.230  -4.501  15.481  1.00  0.00     0.043 A 
HETATM   18  F1  UNK     1      18.927  -6.348  14.771  1.00  0.00    -0.206 F 
HETATM   19  C12 UNK     1      20.302  -3.168  15.883  1.00  0.00     0.017 A 
ENDBRANCH   5  13
BRANCH   8  20
HETATM   20  O2  UNK     1      19.178  -0.152  14.142  1.00  0.00    -0.355 OA
HETATM   21  H11 UNK     1      18.851  -1.054  13.981  1.00  0.00     0.218 HD
ENDBRANCH   8  20
TORSDOF 2
ENDMDL
MODEL 7
REMARK VINA RESULT:      -7.9      1.216      1.820
REMARK  2 active torsions:
REMARK  status: ('A' for Active; 'I' for Inactive)
REMARK    1  A    between atoms: C6_10  and  O2_3 
REMARK    2  A    between atoms: C3_7  and  C8_12 
ROOT
HETATM    1  O1  UNK     1      13.361   8.582   8.351  1.00  0.00    -0.306 OA
HETATM    2  O3  UNK     1      15.327   6.195  11.004  1.00  0.00    -0.284 OA
HETATM    3  C1  UNK     1      15.323   8.172   9.721  1.00  0.00     0.051 A 
HETATM    4  C2  UNK     1      14.601   8.943   8.812  1.00  0.00     0.091 A 
HETATM    5  C3  UNK     1      12.799   7.404   8.818  1.00  0.00     0.123 A 
HETATM    6  C4  UNK     1      14.738   6.915  10.210  1.00  0.00     0.220 A 
HETATM    7  C5  UNK     1      15.136  10.138   8.331  1.00  0.00     0.045 A 
HETATM    8  C6  UNK     1      13.394   6.567   9.687  1.00  0.00     0.152 A 
HETATM    9  C7  UNK     1      16.393  10.558   8.762  1.00  0.00    -0.059 A 
HETATM   10  C9  UNK     1      16.583   8.590  10.155  1.00  0.00     0.019 A 
HETATM   11  C10 UNK     1      17.116   9.786   9.672  1.00  0.00     0.008 A 
HETATM   12  C13 UNK     1      16.968  11.836   8.249  1.00  0.00     0.048 C 
ENDROOT
BRANCH   5  13
HETATM   13  C8  UNK     1      11.468   7.135   8.244  1.00  0.00     0.001 A 
HETATM   14  C11 UNK     1      11.357   6.512   7.001  1.00  0.00     0.017 A 
HETATM   15  C14 UNK     1      10.098   6.257   6.459  1.00  0.00     0.043 A 
HETATM   16  C16 UNK     1       8.949   6.626   7.158  1.00  0.00     0.116 A 
HETATM   17  C15 UNK     1       9.060   7.250   8.402  1.00  0.00     0.043 A 
HETATM   18  F1  UNK     1       7.740   6.380   6.637  1.00  0.00    -0.206 F 
HETATM   19  C12 UNK     1      10.319   7.505   8.944  1.00  0.00     0.017 A 
ENDBRANCH   5  13
BRANCH   8  20
HETATM   20  O2  UNK     1      12.821   5.386  10.106  1.00  0.00    -0.355 OA
HETATM   21  H11 UNK     1      12.325   5.019   9.354  1.00  0.00     0.218 HD
ENDBRANCH   8  20
TORSDOF 2
ENDMDL
MODEL 8
REMARK VINA RESULT:      -7.9     24.276     26.074
REMARK  2 active torsions:
REMARK  status: ('A' for Active; 'I' for Inactive)
REMARK    1  A    between atoms: C6_10  and  O2_3 
REMARK    2  A    between atoms: C3_7  and  C8_12 
ROOT
HETATM    1  O1  UNK     1      17.940   3.375  33.842  1.00  0.00    -0.306 OA
HETATM    2  O3  UNK     1      18.963   2.465  30.004  1.00  0.00    -0.284 OA
HETATM    3  C1  UNK     1      18.482   4.133  31.599  1.00  0.00     0.051 A 
HETATM    4  C2  UNK     1      18.129   4.377  32.925  1.00  0.00     0.091 A 
HETATM    5  C3  UNK     1      18.117   2.063  33.432  1.00  0.00     0.123 A 
HETATM    6  C4  UNK     1      18.658   2.741  31.156  1.00  0.00     0.220 A 
HETATM    7  C5  UNK     1      17.953   5.688  33.369  1.00  0.00     0.045 A 
HETATM    8  C6  UNK     1      18.447   1.691  32.182  1.00  0.00     0.152 A 
HETATM    9  C7  UNK     1      18.131   6.751  32.484  1.00  0.00    -0.059 A 
HETATM   10  C9  UNK     1      18.661   5.194  30.710  1.00  0.00     0.019 A 
HETATM   11  C10 UNK     1      18.485   6.504  31.157  1.00  0.00     0.008 A 
HETATM   12  C13 UNK     1      17.943   8.154  32.956  1.00  0.00     0.048 C 
ENDROOT
BRANCH   5  13
HETATM   13  C8  UNK     1      17.882   1.088  34.513  1.00  0.00     0.001 A 
HETATM   14  C11 UNK     1      16.642   0.460  34.629  1.00  0.00     0.017 A 
HETATM   15  C14 UNK     1      16.421  -0.463  35.650  1.00  0.00     0.043 A 
HETATM   16  C16 UNK     1      17.439  -0.758  36.557  1.00  0.00     0.116 A 
HETATM   17  C15 UNK     1      18.680  -0.130  36.441  1.00  0.00     0.043 A 
HETATM   18  F1  UNK     1      17.226  -1.645  37.537  1.00  0.00    -0.206 F 
HETATM   19  C12 UNK     1      18.901   0.793  35.419  1.00  0.00     0.017 A 
ENDBRANCH   5  13
BRANCH   8  20
HETATM   20  O2  UNK     1      18.583   0.375  31.800  1.00  0.00    -0.355 OA
HETATM   21  H11 UNK     1      18.133  -0.172  32.468  1.00  0.00     0.218 HD
ENDBRANCH   8  20
TORSDOF 2
ENDMDL
MODEL 9
REMARK VINA RESULT:      -7.8     22.926     24.782
REMARK  2 active torsions:
REMARK  status: ('A' for Active; 'I' for Inactive)
REMARK    1  A    between atoms: C6_10  and  O2_3 
REMARK    2  A    between atoms: C3_7  and  C8_12 
ROOT
HETATM    1  O1  UNK     1      16.918   7.412  32.209  1.00  0.00    -0.306 OA
HETATM    2  O3  UNK     1      19.702   9.238  34.558  1.00  0.00    -0.284 OA
HETATM    3  C1  UNK     1      17.514   9.248  33.683  1.00  0.00     0.051 A 
HETATM    4  C2  UNK     1      16.608   8.577  32.863  1.00  0.00     0.091 A 
HETATM    5  C3  UNK     1      18.185   6.876  32.379  1.00  0.00     0.123 A 
HETATM    6  C4  UNK     1      18.863   8.690  33.856  1.00  0.00     0.220 A 
HETATM    7  C5  UNK     1      15.322   9.087  32.680  1.00  0.00     0.045 A 
HETATM    8  C6  UNK     1      19.153   7.428  33.132  1.00  0.00     0.152 A 
HETATM    9  C7  UNK     1      14.947  10.268  33.319  1.00  0.00    -0.059 A 
HETATM   10  C9  UNK     1      17.141  10.432  34.323  1.00  0.00     0.019 A 
HETATM   11  C10 UNK     1      15.855  10.940  34.139  1.00  0.00     0.008 A 
HETATM   12  C13 UNK     1      13.573  10.816  33.125  1.00  0.00     0.048 C 
ENDROOT
BRANCH   5  13
HETATM   13  C8  UNK     1      18.386   5.627  31.621  1.00  0.00     0.001 A 
HETATM   14  C11 UNK     1      18.928   5.670  30.337  1.00  0.00     0.017 A 
HETATM   15  C14 UNK     1      19.119   4.488  29.622  1.00  0.00     0.043 A 
HETATM   16  C16 UNK     1      18.767   3.264  30.189  1.00  0.00     0.116 A 
HETATM   17  C15 UNK     1      18.226   3.221  31.475  1.00  0.00     0.043 A 
HETATM   18  F1  UNK     1      18.952   2.129  29.502  1.00  0.00    -0.206 F 
HETATM   19  C12 UNK     1      18.035   4.403  32.190  1.00  0.00     0.017 A 
ENDBRANCH   5  13
BRANCH   8  20
HETATM   20  O2  UNK     1      20.414   6.886  33.254  1.00  0.00    -0.355 OA
HETATM   21  H11 UNK     1      20.579   6.741  34.202  1.00  0.00     0.218 HD
ENDBRANCH   8  20
TORSDOF 2
ENDMDL
MODEL 10
REMARK VINA RESULT:      -7.8      2.982      6.725
REMARK  2 active torsions:
REMARK  status: ('A' for Active; 'I' for Inactive)
REMARK    1  A    between atoms: C6_10  and  O2_3 
REMARK    2  A    between atoms: C3_7  and  C8_12 
ROOT
HETATM    1  O1  UNK     1      11.744   6.554   9.247  1.00  0.00    -0.306 OA
HETATM    2  O3  UNK     1      11.241   6.332   5.210  1.00  0.00    -0.284 OA
HETATM    3  C1  UNK     1      10.249   6.323   7.348  1.00  0.00     0.051 A 
HETATM    4  C2  UNK     1      10.488   6.402   8.718  1.00  0.00     0.091 A 
HETATM    5  C3  UNK     1      12.820   6.641   8.378  1.00  0.00     0.123 A 
HETATM    6  C4  UNK     1      11.388   6.401   6.422  1.00  0.00     0.220 A 
HETATM    7  C5  UNK     1       9.423   6.327   9.618  1.00  0.00     0.045 A 
HETATM    8  C6  UNK     1      12.728   6.568   7.038  1.00  0.00     0.152 A 
HETATM    9  C7  UNK     1       8.122   6.172   9.141  1.00  0.00    -0.059 A 
HETATM   10  C9  UNK     1       8.946   6.168   6.867  1.00  0.00     0.019 A 
HETATM   11  C10 UNK     1       7.884   6.093   7.769  1.00  0.00     0.008 A 
HETATM   12  C13 UNK     1       6.982   6.092  10.101  1.00  0.00     0.048 C 
ENDROOT
BRANCH   5  13
HETATM   13  C8  UNK     1      14.110   6.801   9.075  1.00  0.00     0.001 A 
HETATM   14  C11 UNK     1      14.923   5.691   9.300  1.00  0.00     0.017 A 
HETATM   15  C14 UNK     1      16.143   5.843   9.959  1.00  0.00     0.043 A 
HETATM   16  C16 UNK     1      16.549   7.104  10.394  1.00  0.00     0.116 A 
HETATM   17  C15 UNK     1      15.735   8.215  10.168  1.00  0.00     0.043 A 
HETATM   18  F1  UNK     1      17.721   7.250  11.025  1.00  0.00    -0.206 F 
HETATM   19  C12 UNK     1      14.516   8.063   9.509  1.00  0.00     0.017 A 
ENDBRANCH   5  13
BRANCH   8  20
HETATM   20  O2  UNK     1      13.822   6.625   6.203  1.00  0.00    -0.355 OA
HETATM   21  H11 UNK     1      14.617   6.522   6.756  1.00  0.00     0.218 HD
ENDBRANCH   8  20
TORSDOF 2
ENDMDL
