MODEL 1
REMARK VINA RESULT:      -8.7      0.000      0.000
REMARK  6 active torsions:
REMARK  status: ('A' for Active; 'I' for Inactive)
REMARK    1  A    between atoms: C17_23  and  O2_3 
REMARK    2  A    between atoms: C22_28  and  O2_3 
REMARK    3  A    between atoms: C5_11  and  N1_5 
REMARK    4  A    between atoms: C6_12  and  N2_6 
REMARK    5  A    between atoms: C5_11  and  C7_13 
REMARK    6  A    between atoms: C6_12  and  C8_14 
ROOT
HETATM    1  C5  UNK     1      18.182   2.828  30.565  1.00  0.00     0.312 C 
ENDROOT
BRANCH   1   2
HETATM    2  N1  UNK     1      18.861   3.770  31.452  1.00  0.00     0.096 N 
HETATM    3  C1  UNK     1      19.327   4.946  30.706  1.00  0.00     0.303 C 
HETATM    4  C3  UNK     1      20.037   5.935  31.635  1.00  0.00     0.303 C 
HETATM    5  N2  UNK     1      19.157   6.343  32.737  1.00  0.00     0.096 N 
HETATM    6  C4  UNK     1      18.692   5.167  33.482  1.00  0.00     0.303 C 
HETATM    7  C2  UNK     1      17.980   4.178  32.553  1.00  0.00     0.303 C 
BRANCH   5   8
HETATM    8  C6  UNK     1      19.838   7.284  33.625  1.00  0.00     0.311 C 
BRANCH   8   9
HETATM    9  C8  UNK     1      19.055   8.557  33.799  1.00  0.00    -0.027 A 
HETATM   10  C12 UNK     1      17.667   8.549  33.657  1.00  0.00     0.051 A 
HETATM   11  C18 UNK     1      16.942   9.729  33.819  1.00  0.00     0.117 A 
HETATM   12  F1  UNK     1      15.610   9.720  33.682  1.00  0.00    -0.206 F 
HETATM   13  C21 UNK     1      17.604  10.918  34.123  1.00  0.00     0.042 A 
HETATM   14  C19 UNK     1      18.992  10.927  34.265  1.00  0.00     0.004 A 
HETATM   15  C13 UNK     1      19.717   9.747  34.104  1.00  0.00     0.009 A 
ENDBRANCH   8   9
ENDBRANCH   5   8
ENDBRANCH   1   2
BRANCH   1  16
HETATM   16  C7  UNK     1      18.878   1.513  30.503  1.00  0.00    -0.011 A 
HETATM   17  C10 UNK     1      19.511   1.115  29.390  1.00  0.00     0.092 A 
HETATM   18  C15 UNK     1      20.211  -0.175  29.281  1.00  0.00     0.288 A 
HETATM   19  O1  UNK     1      20.195  -0.989  30.402  1.00  0.00    -0.275 OA
HETATM   20  O3  UNK     1      20.779  -0.506  28.246  1.00  0.00    -0.260 OA
HETATM   21  C11 UNK     1      19.538  -0.600  31.586  1.00  0.00     0.090 A 
HETATM   22  C9  UNK     1      18.877   0.627  31.675  1.00  0.00     0.009 A 
HETATM   23  C16 UNK     1      19.586  -1.500  32.652  1.00  0.00     0.041 A 
HETATM   24  C14 UNK     1      18.248   0.939  32.887  1.00  0.00     0.051 A 
HETATM   25  C17 UNK     1      18.286   0.048  33.965  1.00  0.00     0.069 A 
HETATM   26  C20 UNK     1      18.955  -1.171  33.848  1.00  0.00     0.039 A 
BRANCH  25  27
HETATM   27  O2  UNK     1      17.667   0.371  35.134  1.00  0.00    -0.351 OA
BRANCH  27  28
HETATM   28  C22 UNK     1      18.103   1.558  35.791  1.00  0.00     0.171 C 
HETATM   29  C23 UNK     1      17.673   1.506  37.242  1.00  0.00     0.034 C 
ENDBRANCH  27  28
ENDBRANCH  25  27
ENDBRANCH   1  16
TORSDOF 6
ENDMDL
MODEL 2
REMARK VINA RESULT:      -8.6     13.428     16.664
REMARK  6 active torsions:
REMARK  status: ('A' for Active; 'I' for Inactive)
REMARK    1  A    between atoms: C17_23  and  O2_3 
REMARK    2  A    between atoms: C22_28  and  O2_3 
REMARK    3  A    between atoms: C5_11  and  N1_5 
REMARK    4  A    between atoms: C6_12  and  N2_6 
REMARK    5  A    between atoms: C5_11  and  C7_13 
REMARK    6  A    between atoms: C6_12  and  C8_14 
ROOT
HETATM    1  C5  UNK     1      25.511  -8.983  37.541  1.00  0.00     0.312 C 
ENDROOT
BRANCH   1   2
HETATM    2  N1  UNK     1      26.908  -9.407  37.484  1.00  0.00     0.096 N 
HETATM    3  C1  UNK     1      27.648  -8.631  36.482  1.00  0.00     0.303 C 
HETATM    4  C3  UNK     1      29.114  -9.074  36.423  1.00  0.00     0.303 C 
HETATM    5  N2  UNK     1      29.752  -8.950  37.739  1.00  0.00     0.096 N 
HETATM    6  C4  UNK     1      29.010  -9.726  38.741  1.00  0.00     0.303 C 
HETATM    7  C2  UNK     1      27.544  -9.282  38.801  1.00  0.00     0.303 C 
BRANCH   5   8
HETATM    8  C6  UNK     1      31.148  -9.377  37.682  1.00  0.00     0.311 C 
BRANCH   8   9
HETATM    9  C8  UNK     1      32.088  -8.207  37.563  1.00  0.00    -0.027 A 
HETATM   10  C12 UNK     1      31.883  -7.065  38.337  1.00  0.00     0.051 A 
HETATM   11  C18 UNK     1      32.753  -5.981  38.226  1.00  0.00     0.117 A 
HETATM   12  F1  UNK     1      32.556  -4.885  38.970  1.00  0.00    -0.206 F 
HETATM   13  C21 UNK     1      33.829  -6.039  37.340  1.00  0.00     0.042 A 
HETATM   14  C19 UNK     1      34.035  -7.180  36.566  1.00  0.00     0.004 A 
HETATM   15  C13 UNK     1      33.164  -8.264  36.677  1.00  0.00     0.009 A 
ENDBRANCH   8   9
ENDBRANCH   5   8
ENDBRANCH   1   2
BRANCH   1  16
HETATM   16  C7  UNK     1      24.611  -9.910  36.800  1.00  0.00    -0.011 A 
HETATM   17  C10 UNK     1      25.053 -11.093  36.351  1.00  0.00     0.092 A 
HETATM   18  C15 UNK     1      24.203 -12.041  35.613  1.00  0.00     0.288 A 
HETATM   19  O1  UNK     1      22.889 -11.658  35.392  1.00  0.00    -0.275 OA
HETATM   20  O3  UNK     1      24.642 -13.115  35.217  1.00  0.00    -0.260 OA
HETATM   21  C11 UNK     1      22.395 -10.421  35.851  1.00  0.00     0.090 A 
HETATM   22  C9  UNK     1      23.214  -9.531  36.549  1.00  0.00     0.009 A 
HETATM   23  C16 UNK     1      21.057 -10.140  35.570  1.00  0.00     0.041 A 
HETATM   24  C14 UNK     1      22.647  -8.322  36.970  1.00  0.00     0.051 A 
HETATM   25  C17 UNK     1      21.307  -8.025  36.696  1.00  0.00     0.069 A 
HETATM   26  C20 UNK     1      20.512  -8.933  35.998  1.00  0.00     0.039 A 
BRANCH  25  27
HETATM   27  O2  UNK     1      20.776  -6.842  37.114  1.00  0.00    -0.351 OA
BRANCH  27  28
HETATM   28  C22 UNK     1      21.091  -6.423  38.440  1.00  0.00     0.171 C 
HETATM   29  C23 UNK     1      20.023  -6.931  39.385  1.00  0.00     0.034 C 
ENDBRANCH  27  28
ENDBRANCH  25  27
ENDBRANCH   1  16
TORSDOF 6
ENDMDL
MODEL 3
REMARK VINA RESULT:      -8.4     15.456     17.266
REMARK  6 active torsions:
REMARK  status: ('A' for Active; 'I' for Inactive)
REMARK    1  A    between atoms: C17_23  and  O2_3 
REMARK    2  A    between atoms: C22_28  and  O2_3 
REMARK    3  A    between atoms: C5_11  and  N1_5 
REMARK    4  A    between atoms: C6_12  and  N2_6 
REMARK    5  A    between atoms: C5_11  and  C7_13 
REMARK    6  A    between atoms: C6_12  and  C8_14 
ROOT
HETATM    1  C5  UNK     1      30.477  -7.356  36.083  1.00  0.00     0.312 C 
ENDROOT
BRANCH   1   2
HETATM    2  N1  UNK     1      29.628  -7.298  34.894  1.00  0.00     0.096 N 
HETATM    3  C1  UNK     1      29.955  -6.124  34.077  1.00  0.00     0.303 C 
HETATM    4  C3  UNK     1      29.068  -6.063  32.829  1.00  0.00     0.303 C 
HETATM    5  N2  UNK     1      29.194  -7.291  32.036  1.00  0.00     0.096 N 
HETATM    6  C4  UNK     1      28.867  -8.465  32.854  1.00  0.00     0.303 C 
HETATM    7  C2  UNK     1      29.756  -8.527  34.101  1.00  0.00     0.303 C 
BRANCH   5   8
HETATM    8  C6  UNK     1      28.344  -7.233  30.849  1.00  0.00     0.311 C 
BRANCH   8   9
HETATM    9  C8  UNK     1      28.811  -8.182  29.777  1.00  0.00    -0.027 A 
HETATM   10  C12 UNK     1      30.095  -8.060  29.248  1.00  0.00     0.051 A 
HETATM   11  C18 UNK     1      30.527  -8.939  28.255  1.00  0.00     0.117 A 
HETATM   12  F1  UNK     1      31.761  -8.822  27.748  1.00  0.00    -0.206 F 
HETATM   13  C21 UNK     1      29.674  -9.941  27.792  1.00  0.00     0.042 A 
HETATM   14  C19 UNK     1      28.389 -10.063  28.321  1.00  0.00     0.004 A 
HETATM   15  C13 UNK     1      27.958  -9.183  29.313  1.00  0.00     0.009 A 
ENDBRANCH   8   9
ENDBRANCH   5   8
ENDBRANCH   1   2
BRANCH   1  16
HETATM   16  C7  UNK     1      29.794  -6.809  37.288  1.00  0.00    -0.011 A 
HETATM   17  C10 UNK     1      30.166  -5.638  37.825  1.00  0.00     0.092 A 
HETATM   18  C15 UNK     1      29.523  -5.059  39.015  1.00  0.00     0.288 A 
HETATM   19  O1  UNK     1      28.487  -5.786  39.579  1.00  0.00    -0.275 OA
HETATM   20  O3  UNK     1      29.891  -3.985  39.478  1.00  0.00    -0.260 OA
HETATM   21  C11 UNK     1      28.073  -7.020  39.039  1.00  0.00     0.090 A 
HETATM   22  C9  UNK     1      28.693  -7.558  37.910  1.00  0.00     0.009 A 
HETATM   23  C16 UNK     1      27.020  -7.665  39.690  1.00  0.00     0.041 A 
HETATM   24  C14 UNK     1      28.223  -8.789  37.436  1.00  0.00     0.051 A 
HETATM   25  C17 UNK     1      27.169  -9.449  38.077  1.00  0.00     0.069 A 
HETATM   26  C20 UNK     1      26.567  -8.888  39.203  1.00  0.00     0.039 A 
BRANCH  25  27
HETATM   27  O2  UNK     1      26.728 -10.646  37.600  1.00  0.00    -0.351 OA
BRANCH  27  28
HETATM   28  C22 UNK     1      25.968 -10.622  36.394  1.00  0.00     0.171 C 
HETATM   29  C23 UNK     1      25.192 -11.918  36.275  1.00  0.00     0.034 C 
ENDBRANCH  27  28
ENDBRANCH  25  27
ENDBRANCH   1  16
TORSDOF 6
ENDMDL
MODEL 4
REMARK VINA RESULT:      -8.3     23.173     25.381
REMARK  6 active torsions:
REMARK  status: ('A' for Active; 'I' for Inactive)
REMARK    1  A    between atoms: C17_23  and  O2_3 
REMARK    2  A    between atoms: C22_28  and  O2_3 
REMARK    3  A    between atoms: C5_11  and  N1_5 
REMARK    4  A    between atoms: C6_12  and  N2_6 
REMARK    5  A    between atoms: C5_11  and  C7_13 
REMARK    6  A    between atoms: C6_12  and  C8_14 
ROOT
HETATM    1  C5  UNK     1      13.142   6.925   7.192  1.00  0.00     0.312 C 
ENDROOT
BRANCH   1   2
HETATM    2  N1  UNK     1      11.865   6.257   7.438  1.00  0.00     0.096 N 
HETATM    3  C1  UNK     1      11.463   6.403   8.842  1.00  0.00     0.303 C 
HETATM    4  C3  UNK     1      10.123   5.706   9.101  1.00  0.00     0.303 C 
HETATM    5  N2  UNK     1       9.079   6.229   8.211  1.00  0.00     0.096 N 
HETATM    6  C4  UNK     1       9.483   6.084   6.807  1.00  0.00     0.303 C 
HETATM    7  C2  UNK     1      10.823   6.783   6.549  1.00  0.00     0.303 C 
BRANCH   5   8
HETATM    8  C6  UNK     1       7.804   5.560   8.456  1.00  0.00     0.311 C 
BRANCH   8   9
HETATM    9  C8  UNK     1       7.214   5.946   9.787  1.00  0.00    -0.027 A 
HETATM   10  C12 UNK     1       6.961   4.967  10.748  1.00  0.00     0.051 A 
HETATM   11  C18 UNK     1       6.415   5.326  11.981  1.00  0.00     0.117 A 
HETATM   12  F1  UNK     1       6.172   4.386  12.904  1.00  0.00    -0.206 F 
HETATM   13  C21 UNK     1       6.122   6.662  12.252  1.00  0.00     0.042 A 
HETATM   14  C19 UNK     1       6.376   7.641  11.290  1.00  0.00     0.004 A 
HETATM   15  C13 UNK     1       6.922   7.282  10.058  1.00  0.00     0.009 A 
ENDBRANCH   8   9
ENDBRANCH   5   8
ENDBRANCH   1   2
BRANCH   1  16
HETATM   16  C7  UNK     1      14.134   6.655   8.270  1.00  0.00    -0.011 A 
HETATM   17  C10 UNK     1      14.544   5.407   8.538  1.00  0.00     0.092 A 
HETATM   18  C15 UNK     1      15.521   5.091   9.593  1.00  0.00     0.288 A 
HETATM   19  O1  UNK     1      16.018   6.159  10.321  1.00  0.00    -0.275 OA
HETATM   20  O3  UNK     1      15.872   3.936   9.810  1.00  0.00    -0.260 OA
HETATM   21  C11 UNK     1      15.606   7.482  10.065  1.00  0.00     0.090 A 
HETATM   22  C9  UNK     1      14.679   7.767   9.061  1.00  0.00     0.009 A 
HETATM   23  C16 UNK     1      16.173   8.479  10.861  1.00  0.00     0.041 A 
HETATM   24  C14 UNK     1      14.321   9.107   8.869  1.00  0.00     0.051 A 
HETATM   25  C17 UNK     1      14.880  10.118   9.659  1.00  0.00     0.069 A 
HETATM   26  C20 UNK     1      15.805   9.804  10.654  1.00  0.00     0.039 A 
BRANCH  25  27
HETATM   27  O2  UNK     1      14.518  11.415   9.457  1.00  0.00    -0.351 OA
BRANCH  27  28
HETATM   28  C22 UNK     1      15.523  12.299   8.965  1.00  0.00     0.171 C 
HETATM   29  C23 UNK     1      15.663  12.105   7.470  1.00  0.00     0.034 C 
ENDBRANCH  27  28
ENDBRANCH  25  27
ENDBRANCH   1  16
TORSDOF 6
ENDMDL
MODEL 5
REMARK VINA RESULT:      -8.3      2.088      4.449
REMARK  6 active torsions:
REMARK  status: ('A' for Active; 'I' for Inactive)
REMARK    1  A    between atoms: C17_23  and  O2_3 
REMARK    2  A    between atoms: C22_28  and  O2_3 
REMARK    3  A    between atoms: C5_11  and  N1_5 
REMARK    4  A    between atoms: C6_12  and  N2_6 
REMARK    5  A    between atoms: C5_11  and  C7_13 
REMARK    6  A    between atoms: C6_12  and  C8_14 
ROOT
HETATM    1  C5  UNK     1      17.741   0.113  34.089  1.00  0.00     0.312 C 
ENDROOT
BRANCH   1   2
HETATM    2  N1  UNK     1      18.357   1.413  33.826  1.00  0.00     0.096 N 
HETATM    3  C1  UNK     1      17.915   1.946  32.532  1.00  0.00     0.303 C 
HETATM    4  C3  UNK     1      18.557   3.309  32.255  1.00  0.00     0.303 C 
HETATM    5  N2  UNK     1      18.252   4.260  33.332  1.00  0.00     0.096 N 
HETATM    6  C4  UNK     1      18.693   3.725  34.626  1.00  0.00     0.303 C 
HETATM    7  C2  UNK     1      18.050   2.362  34.903  1.00  0.00     0.303 C 
BRANCH   5   8
HETATM    8  C6  UNK     1      18.869   5.558  33.069  1.00  0.00     0.311 C 
BRANCH   8   9
HETATM    9  C8  UNK     1      17.842   6.652  32.943  1.00  0.00    -0.027 A 
HETATM   10  C12 UNK     1      16.626   6.398  32.309  1.00  0.00     0.051 A 
HETATM   11  C18 UNK     1      15.675   7.411  32.193  1.00  0.00     0.117 A 
HETATM   12  F1  UNK     1      14.507   7.167  31.584  1.00  0.00    -0.206 F 
HETATM   13  C21 UNK     1      15.940   8.679  32.710  1.00  0.00     0.042 A 
HETATM   14  C19 UNK     1      17.156   8.933  33.345  1.00  0.00     0.004 A 
HETATM   15  C13 UNK     1      18.107   7.919  33.461  1.00  0.00     0.009 A 
ENDBRANCH   8   9
ENDBRANCH   5   8
ENDBRANCH   1   2
BRANCH   1  16
HETATM   16  C7  UNK     1      18.756  -0.954  34.311  1.00  0.00    -0.011 A 
HETATM   17  C10 UNK     1      19.033  -1.403  35.544  1.00  0.00     0.092 A 
HETATM   18  C15 UNK     1      20.028  -2.454  35.812  1.00  0.00     0.288 A 
HETATM   19  O1  UNK     1      20.688  -2.981  34.714  1.00  0.00    -0.275 OA
HETATM   20  O3  UNK     1      20.255  -2.839  36.954  1.00  0.00    -0.260 OA
HETATM   21  C11 UNK     1      20.421  -2.530  33.406  1.00  0.00     0.090 A 
HETATM   22  C9  UNK     1      19.475  -1.532  33.167  1.00  0.00     0.009 A 
HETATM   23  C16 UNK     1      21.147  -3.132  32.377  1.00  0.00     0.041 A 
HETATM   24  C14 UNK     1      19.268  -1.138  31.838  1.00  0.00     0.051 A 
HETATM   25  C17 UNK     1      19.988  -1.732  30.795  1.00  0.00     0.069 A 
HETATM   26  C20 UNK     1      20.927  -2.727  31.064  1.00  0.00     0.039 A 
BRANCH  25  27
HETATM   27  O2  UNK     1      19.772  -1.334  29.511  1.00  0.00    -0.351 OA
BRANCH  27  28
HETATM   28  C22 UNK     1      20.153  -0.003  29.172  1.00  0.00     0.171 C 
HETATM   29  C23 UNK     1      18.918   0.777  28.772  1.00  0.00     0.034 C 
ENDBRANCH  27  28
ENDBRANCH  25  27
ENDBRANCH   1  16
TORSDOF 6
ENDMDL
MODEL 6
REMARK VINA RESULT:      -8.3      2.573      3.964
REMARK  6 active torsions:
REMARK  status: ('A' for Active; 'I' for Inactive)
REMARK    1  A    between atoms: C17_23  and  O2_3 
REMARK    2  A    between atoms: C22_28  and  O2_3 
REMARK    3  A    between atoms: C5_11  and  N1_5 
REMARK    4  A    between atoms: C6_12  and  N2_6 
REMARK    5  A    between atoms: C5_11  and  C7_13 
REMARK    6  A    between atoms: C6_12  and  C8_14 
ROOT
HETATM    1  C5  UNK     1      18.362   5.517  33.338  1.00  0.00     0.312 C 
ENDROOT
BRANCH   1   2
HETATM    2  N1  UNK     1      17.106   6.243  33.157  1.00  0.00     0.096 N 
HETATM    3  C1  UNK     1      16.649   6.817  34.429  1.00  0.00     0.303 C 
HETATM    4  C3  UNK     1      15.333   7.580  34.241  1.00  0.00     0.303 C 
HETATM    5  N2  UNK     1      15.478   8.631  33.226  1.00  0.00     0.096 N 
HETATM    6  C4  UNK     1      15.937   8.057  31.956  1.00  0.00     0.303 C 
HETATM    7  C2  UNK     1      17.253   7.295  32.144  1.00  0.00     0.303 C 
BRANCH   5   8
HETATM    8  C6  UNK     1      14.222   9.355  33.045  1.00  0.00     0.311 C 
BRANCH   8   9
HETATM    9  C8  UNK     1      14.406  10.843  33.187  1.00  0.00    -0.027 A 
HETATM   10  C12 UNK     1      15.468  11.346  33.937  1.00  0.00     0.051 A 
HETATM   11  C18 UNK     1      15.639  12.725  34.068  1.00  0.00     0.117 A 
HETATM   12  F1  UNK     1      16.659  13.207  34.788  1.00  0.00    -0.206 F 
HETATM   13  C21 UNK     1      14.746  13.599  33.448  1.00  0.00     0.042 A 
HETATM   14  C19 UNK     1      13.684  13.096  32.698  1.00  0.00     0.004 A 
HETATM   15  C13 UNK     1      13.513  11.717  32.567  1.00  0.00     0.009 A 
ENDBRANCH   8   9
ENDBRANCH   5   8
ENDBRANCH   1   2
BRANCH   1  16
HETATM   16  C7  UNK     1      18.327   4.168  32.708  1.00  0.00    -0.011 A 
HETATM   17  C10 UNK     1      18.249   4.025  31.378  1.00  0.00     0.092 A 
HETATM   18  C15 UNK     1      18.210   2.713  30.711  1.00  0.00     0.288 A 
HETATM   19  O1  UNK     1      18.259   1.597  31.530  1.00  0.00    -0.275 OA
HETATM   20  O3  UNK     1      18.137   2.622  29.491  1.00  0.00    -0.260 OA
HETATM   21  C11 UNK     1      18.340   1.714  32.932  1.00  0.00     0.090 A 
HETATM   22  C9  UNK     1      18.376   2.965  33.551  1.00  0.00     0.009 A 
HETATM   23  C16 UNK     1      18.383   0.521  33.657  1.00  0.00     0.041 A 
HETATM   24  C14 UNK     1      18.456   2.996  34.949  1.00  0.00     0.051 A 
HETATM   25  C17 UNK     1      18.499   1.809  35.690  1.00  0.00     0.069 A 
HETATM   26  C20 UNK     1      18.463   0.573  35.045  1.00  0.00     0.039 A 
BRANCH  25  27
HETATM   27  O2  UNK     1      18.577   1.862  37.049  1.00  0.00    -0.351 OA
BRANCH  27  28
HETATM   28  C22 UNK     1      17.625   1.094  37.782  1.00  0.00     0.171 C 
HETATM   29  C23 UNK     1      16.232   1.589  37.451  1.00  0.00     0.034 C 
ENDBRANCH  27  28
ENDBRANCH  25  27
ENDBRANCH   1  16
TORSDOF 6
ENDMDL
MODEL 7
REMARK VINA RESULT:      -8.3     15.696     17.620
REMARK  6 active torsions:
REMARK  status: ('A' for Active; 'I' for Inactive)
REMARK    1  A    between atoms: C17_23  and  O2_3 
REMARK    2  A    between atoms: C22_28  and  O2_3 
REMARK    3  A    between atoms: C5_11  and  N1_5 
REMARK    4  A    between atoms: C6_12  and  N2_6 
REMARK    5  A    between atoms: C5_11  and  C7_13 
REMARK    6  A    between atoms: C6_12  and  C8_14 
ROOT
HETATM    1  C5  UNK     1      32.440  -6.741  35.576  1.00  0.00     0.312 C 
ENDROOT
BRANCH   1   2
HETATM    2  N1  UNK     1      32.399  -6.582  34.123  1.00  0.00     0.096 N 
HETATM    3  C1  UNK     1      33.074  -7.703  33.457  1.00  0.00     0.303 C 
HETATM    4  C3  UNK     1      33.029  -7.539  31.935  1.00  0.00     0.303 C 
HETATM    5  N2  UNK     1      31.644  -7.421  31.461  1.00  0.00     0.096 N 
HETATM    6  C4  UNK     1      30.969  -6.302  32.129  1.00  0.00     0.303 C 
HETATM    7  C2  UNK     1      31.013  -6.466  33.652  1.00  0.00     0.303 C 
BRANCH   5   8
HETATM    8  C6  UNK     1      31.603  -7.261  30.009  1.00  0.00     0.311 C 
BRANCH   8   9
HETATM    9  C8  UNK     1      30.644  -8.227  29.365  1.00  0.00    -0.027 A 
HETATM   10  C12 UNK     1      29.321  -8.292  29.802  1.00  0.00     0.051 A 
HETATM   11  C18 UNK     1      28.433  -9.187  29.205  1.00  0.00     0.117 A 
HETATM   12  F1  UNK     1      27.163  -9.250  29.625  1.00  0.00    -0.206 F 
HETATM   13  C21 UNK     1      28.868 -10.016  28.171  1.00  0.00     0.042 A 
HETATM   14  C19 UNK     1      30.191  -9.950  27.734  1.00  0.00     0.004 A 
HETATM   15  C13 UNK     1      31.079  -9.056  28.331  1.00  0.00     0.009 A 
ENDBRANCH   8   9
ENDBRANCH   5   8
ENDBRANCH   1   2
BRANCH   1  16
HETATM   16  C7  UNK     1      31.802  -5.597  36.284  1.00  0.00    -0.011 A 
HETATM   17  C10 UNK     1      32.201  -4.336  36.066  1.00  0.00     0.092 A 
HETATM   18  C15 UNK     1      31.602  -3.174  36.742  1.00  0.00     0.288 A 
HETATM   19  O1  UNK     1      30.579  -3.436  37.640  1.00  0.00    -0.275 OA
HETATM   20  O3  UNK     1      31.994  -2.035  36.517  1.00  0.00    -0.260 OA
HETATM   21  C11 UNK     1      30.138  -4.750  37.892  1.00  0.00     0.090 A 
HETATM   22  C9  UNK     1      30.716  -5.842  37.243  1.00  0.00     0.009 A 
HETATM   23  C16 UNK     1      29.102  -4.894  38.817  1.00  0.00     0.041 A 
HETATM   24  C14 UNK     1      30.221  -7.116  37.550  1.00  0.00     0.051 A 
HETATM   25  C17 UNK     1      29.183  -7.278  38.475  1.00  0.00     0.069 A 
HETATM   26  C20 UNK     1      28.624  -6.168  39.107  1.00  0.00     0.039 A 
BRANCH  25  27
HETATM   27  O2  UNK     1      28.717  -8.525  38.759  1.00  0.00    -0.351 OA
BRANCH  27  28
HETATM   28  C22 UNK     1      27.519  -8.610  39.528  1.00  0.00     0.171 C 
HETATM   29  C23 UNK     1      27.298 -10.050  39.940  1.00  0.00     0.034 C 
ENDBRANCH  27  28
ENDBRANCH  25  27
ENDBRANCH   1  16
TORSDOF 6
ENDMDL
MODEL 8
REMARK VINA RESULT:      -8.2     15.056     17.631
REMARK  6 active torsions:
REMARK  status: ('A' for Active; 'I' for Inactive)
REMARK    1  A    between atoms: C17_23  and  O2_3 
REMARK    2  A    between atoms: C22_28  and  O2_3 
REMARK    3  A    between atoms: C5_11  and  N1_5 
REMARK    4  A    between atoms: C6_12  and  N2_6 
REMARK    5  A    between atoms: C5_11  and  C7_13 
REMARK    6  A    between atoms: C6_12  and  C8_14 
ROOT
HETATM    1  C5  UNK     1      33.359  -8.680  32.969  1.00  0.00     0.312 C 
ENDROOT
BRANCH   1   2
HETATM    2  N1  UNK     1      33.262  -7.702  34.051  1.00  0.00     0.096 N 
HETATM    3  C1  UNK     1      31.861  -7.342  34.304  1.00  0.00     0.303 C 
HETATM    4  C3  UNK     1      31.757  -6.319  35.440  1.00  0.00     0.303 C 
HETATM    5  N2  UNK     1      32.384  -6.831  36.665  1.00  0.00     0.096 N 
HETATM    6  C4  UNK     1      33.784  -7.191  36.411  1.00  0.00     0.303 C 
HETATM    7  C2  UNK     1      33.888  -8.216  35.276  1.00  0.00     0.303 C 
BRANCH   5   8
HETATM    8  C6  UNK     1      32.288  -5.852  37.746  1.00  0.00     0.311 C 
BRANCH   8   9
HETATM    9  C8  UNK     1      30.873  -5.693  38.235  1.00  0.00    -0.027 A 
HETATM   10  C12 UNK     1      30.124  -6.818  38.579  1.00  0.00     0.051 A 
HETATM   11  C18 UNK     1      28.813  -6.671  39.032  1.00  0.00     0.117 A 
HETATM   12  F1  UNK     1      28.094  -7.751  39.363  1.00  0.00    -0.206 F 
HETATM   13  C21 UNK     1      28.251  -5.398  39.141  1.00  0.00     0.042 A 
HETATM   14  C19 UNK     1      29.001  -4.274  38.796  1.00  0.00     0.004 A 
HETATM   15  C13 UNK     1      30.312  -4.421  38.343  1.00  0.00     0.009 A 
ENDBRANCH   8   9
ENDBRANCH   5   8
ENDBRANCH   1   2
BRANCH   1  16
HETATM   16  C7  UNK     1      33.448  -8.030  31.632  1.00  0.00    -0.011 A 
HETATM   17  C10 UNK     1      34.565  -7.401  31.239  1.00  0.00     0.092 A 
HETATM   18  C15 UNK     1      34.699  -6.745  29.929  1.00  0.00     0.288 A 
HETATM   19  O1  UNK     1      33.599  -6.801  29.088  1.00  0.00    -0.275 OA
HETATM   20  O3  UNK     1      35.737  -6.178  29.604  1.00  0.00    -0.260 OA
HETATM   21  C11 UNK     1      32.410  -7.453  29.472  1.00  0.00     0.090 A 
HETATM   22  C9  UNK     1      32.297  -8.072  30.719  1.00  0.00     0.009 A 
HETATM   23  C16 UNK     1      31.366  -7.446  28.546  1.00  0.00     0.041 A 
HETATM   24  C14 UNK     1      31.083  -8.698  31.025  1.00  0.00     0.051 A 
HETATM   25  C17 UNK     1      30.026  -8.700  30.108  1.00  0.00     0.069 A 
HETATM   26  C20 UNK     1      30.167  -8.075  28.869  1.00  0.00     0.039 A 
BRANCH  25  27
HETATM   27  O2  UNK     1      28.853  -9.314  30.426  1.00  0.00    -0.351 OA
BRANCH  27  28
HETATM   28  C22 UNK     1      27.650  -8.640  30.063  1.00  0.00     0.171 C 
HETATM   29  C23 UNK     1      27.386  -7.531  31.060  1.00  0.00     0.034 C 
ENDBRANCH  27  28
ENDBRANCH  25  27
ENDBRANCH   1  16
TORSDOF 6
ENDMDL
MODEL 9
REMARK VINA RESULT:      -8.2     14.928     17.924
REMARK  6 active torsions:
REMARK  status: ('A' for Active; 'I' for Inactive)
REMARK    1  A    between atoms: C17_23  and  O2_3 
REMARK    2  A    between atoms: C22_28  and  O2_3 
REMARK    3  A    between atoms: C5_11  and  N1_5 
REMARK    4  A    between atoms: C6_12  and  N2_6 
REMARK    5  A    between atoms: C5_11  and  C7_13 
REMARK    6  A    between atoms: C6_12  and  C8_14 
ROOT
HETATM    1  C5  UNK     1      29.214  -7.562  36.206  1.00  0.00     0.312 C 
ENDROOT
BRANCH   1   2
HETATM    2  N1  UNK     1      29.250  -7.103  34.818  1.00  0.00     0.096 N 
HETATM    3  C1  UNK     1      29.763  -8.157  33.934  1.00  0.00     0.303 C 
HETATM    4  C3  UNK     1      29.799  -7.678  32.479  1.00  0.00     0.303 C 
HETATM    5  N2  UNK     1      28.469  -7.241  32.038  1.00  0.00     0.096 N 
HETATM    6  C4  UNK     1      27.957  -6.188  32.923  1.00  0.00     0.303 C 
HETATM    7  C2  UNK     1      27.919  -6.668  34.379  1.00  0.00     0.303 C 
BRANCH   5   8
HETATM    8  C6  UNK     1      28.507  -6.781  30.651  1.00  0.00     0.311 C 
BRANCH   8   9
HETATM    9  C8  UNK     1      28.917  -7.879  29.707  1.00  0.00    -0.027 A 
HETATM   10  C12 UNK     1      30.177  -7.849  29.107  1.00  0.00     0.051 A 
HETATM   11  C18 UNK     1      30.557  -8.867  28.232  1.00  0.00     0.117 A 
HETATM   12  F1  UNK     1      31.766  -8.838  27.658  1.00  0.00    -0.206 F 
HETATM   13  C21 UNK     1      29.677  -9.914  27.957  1.00  0.00     0.042 A 
HETATM   14  C19 UNK     1      28.418  -9.944  28.556  1.00  0.00     0.004 A 
HETATM   15  C13 UNK     1      28.038  -8.926  29.431  1.00  0.00     0.009 A 
ENDBRANCH   8   9
ENDBRANCH   5   8
ENDBRANCH   1   2
BRANCH   1  16
HETATM   16  C7  UNK     1      29.745  -6.539  37.150  1.00  0.00    -0.011 A 
HETATM   17  C10 UNK     1      28.920  -5.777  37.882  1.00  0.00     0.092 A 
HETATM   18  C15 UNK     1      29.397  -4.753  38.826  1.00  0.00     0.288 A 
HETATM   19  O1  UNK     1      30.770  -4.601  38.937  1.00  0.00    -0.275 OA
HETATM   20  O3  UNK     1      28.613  -4.074  39.478  1.00  0.00    -0.260 OA
HETATM   21  C11 UNK     1      31.663  -5.386  38.181  1.00  0.00     0.090 A 
HETATM   22  C9  UNK     1      31.195  -6.353  37.289  1.00  0.00     0.009 A 
HETATM   23  C16 UNK     1      33.024  -5.144  38.373  1.00  0.00     0.041 A 
HETATM   24  C14 UNK     1      32.147  -7.091  36.574  1.00  0.00     0.051 A 
HETATM   25  C17 UNK     1      33.516  -6.861  36.755  1.00  0.00     0.069 A 
HETATM   26  C20 UNK     1      33.954  -5.889  37.654  1.00  0.00     0.039 A 
BRANCH  25  27
HETATM   27  O2  UNK     1      34.425  -7.589  36.049  1.00  0.00    -0.351 OA
BRANCH  27  28
HETATM   28  C22 UNK     1      35.463  -6.867  35.391  1.00  0.00     0.171 C 
HETATM   29  C23 UNK     1      34.923  -6.301  34.094  1.00  0.00     0.034 C 
ENDBRANCH  27  28
ENDBRANCH  25  27
ENDBRANCH   1  16
TORSDOF 6
ENDMDL
MODEL 10
REMARK VINA RESULT:      -8.2     14.941     17.458
REMARK  6 active torsions:
REMARK  status: ('A' for Active; 'I' for Inactive)
REMARK    1  A    between atoms: C17_23  and  O2_3 
REMARK    2  A    between atoms: C22_28  and  O2_3 
REMARK    3  A    between atoms: C5_11  and  N1_5 
REMARK    4  A    between atoms: C6_12  and  N2_6 
REMARK    5  A    between atoms: C5_11  and  C7_13 
REMARK    6  A    between atoms: C6_12  and  C8_14 
ROOT
HETATM    1  C5  UNK     1      30.940  -9.560  37.543  1.00  0.00     0.312 C 
ENDROOT
BRANCH   1   2
HETATM    2  N1  UNK     1      30.633  -9.848  36.143  1.00  0.00     0.096 N 
HETATM    3  C1  UNK     1      29.444  -9.106  35.706  1.00  0.00     0.303 C 
HETATM    4  C3  UNK     1      29.123  -9.406  34.238  1.00  0.00     0.303 C 
HETATM    5  N2  UNK     1      30.268  -9.089  33.377  1.00  0.00     0.096 N 
HETATM    6  C4  UNK     1      31.458  -9.830  33.814  1.00  0.00     0.303 C 
HETATM    7  C2  UNK     1      31.779  -9.530  35.282  1.00  0.00     0.303 C 
BRANCH   5   8
HETATM    8  C6  UNK     1      29.962  -9.379  31.977  1.00  0.00     0.311 C 
BRANCH   8   9
HETATM    9  C8  UNK     1      29.123  -8.297  31.351  1.00  0.00    -0.027 A 
HETATM   10  C12 UNK     1      29.612  -6.993  31.273  1.00  0.00     0.051 A 
HETATM   11  C18 UNK     1      28.834  -5.990  30.692  1.00  0.00     0.117 A 
HETATM   12  F1  UNK     1      29.304  -4.739  30.617  1.00  0.00    -0.206 F 
HETATM   13  C21 UNK     1      27.569  -6.293  30.190  1.00  0.00     0.042 A 
HETATM   14  C19 UNK     1      27.080  -7.597  30.268  1.00  0.00     0.004 A 
HETATM   15  C13 UNK     1      27.858  -8.599  30.849  1.00  0.00     0.009 A 
ENDBRANCH   8   9
ENDBRANCH   5   8
ENDBRANCH   1   2
BRANCH   1  16
HETATM   16  C7  UNK     1      29.876  -8.746  38.194  1.00  0.00    -0.011 A 
HETATM   17  C10 UNK     1      28.760  -9.315  38.669  1.00  0.00     0.092 A 
HETATM   18  C15 UNK     1      27.682  -8.552  39.319  1.00  0.00     0.288 A 
HETATM   19  O1  UNK     1      27.866  -7.183  39.428  1.00  0.00    -0.275 OA
HETATM   20  O3  UNK     1      26.674  -9.108  39.741  1.00  0.00    -0.260 OA
HETATM   21  C11 UNK     1      29.028  -6.555  38.938  1.00  0.00     0.090 A 
HETATM   22  C9  UNK     1      30.042  -7.291  38.323  1.00  0.00     0.009 A 
HETATM   23  C16 UNK     1      29.106  -5.170  39.101  1.00  0.00     0.041 A 
HETATM   24  C14 UNK     1      31.165  -6.592  37.863  1.00  0.00     0.051 A 
HETATM   25  C17 UNK     1      31.258  -5.204  38.018  1.00  0.00     0.069 A 
HETATM   26  C20 UNK     1      30.229  -4.494  38.637  1.00  0.00     0.039 A 
BRANCH  25  27
HETATM   27  O2  UNK     1      32.358  -4.543  37.563  1.00  0.00    -0.351 OA
BRANCH  27  28
HETATM   28  C22 UNK     1      32.164  -3.626  36.489  1.00  0.00     0.171 C 
HETATM   29  C23 UNK     1      32.714  -4.233  35.215  1.00  0.00     0.034 C 
ENDBRANCH  27  28
ENDBRANCH  25  27
ENDBRANCH   1  16
TORSDOF 6
ENDMDL
