MODEL 1
REMARK VINA RESULT:      -7.9      0.000      0.000
REMARK  4 active torsions:
REMARK  status: ('A' for Active; 'I' for Inactive)
REMARK    1  A    between atoms: C6_11  and  O2_2 
REMARK    2  A    between atoms: C15_20  and  O4_4 
REMARK    3  A    between atoms: C12_17  and  O5_5 
REMARK    4  A    between atoms: C2_7  and  C5_10 
ROOT
HETATM    1  O1  UNK     1      11.075   8.062   9.802  1.00  0.00    -0.321 OA
HETATM    2  O3  UNK     1      13.709   7.395   6.757  1.00  0.00    -0.286 OA
HETATM    3  C1  UNK     1      11.543   7.089   7.628  1.00  0.00     0.082 A 
HETATM    4  C2  UNK     1      13.320   8.328   8.913  1.00  0.00     0.048 A 
HETATM    5  C3  UNK     1      10.684   7.355   8.693  1.00  0.00     0.094 A 
HETATM    6  C4  UNK     1      12.932   7.583   7.683  1.00  0.00     0.200 A 
HETATM    7  C6  UNK     1      11.089   6.364   6.523  1.00  0.00     0.085 A 
HETATM    8  C7  UNK     1      12.377   8.500   9.851  1.00  0.00     0.159 A 
HETATM    9  C8  UNK     1       9.366   6.899   8.659  1.00  0.00     0.074 A 
HETATM   10  C11 UNK     1       9.770   5.908   6.492  1.00  0.00     0.074 A 
HETATM   11  C12 UNK     1       8.910   6.175   7.558  1.00  0.00     0.071 A 
ENDROOT
BRANCH   4  12
HETATM   12  C5  UNK     1      14.684   8.842   9.113  1.00  0.00    -0.020 A 
HETATM   13  C10 UNK     1      15.056  10.073   8.568  1.00  0.00     0.015 A 
HETATM   14  C14 UNK     1      16.349  10.561   8.759  1.00  0.00     0.037 A 
HETATM   15  C15 UNK     1      17.272   9.819   9.495  1.00  0.00     0.068 A 
HETATM   16  C13 UNK     1      16.904   8.589  10.040  1.00  0.00     0.037 A 
HETATM   17  C9  UNK     1      15.611   8.101   9.850  1.00  0.00     0.015 A 
BRANCH  15  18
HETATM   18  O4  UNK     1      18.534  10.294   9.681  1.00  0.00    -0.356 OA
HETATM   19  C16 UNK     1      18.712  11.708   9.607  1.00  0.00     0.210 C 
ENDBRANCH  15  18
ENDBRANCH   4  12
BRANCH   7  20
HETATM   20  O2  UNK     1      11.885   6.076   5.455  1.00  0.00    -0.360 OA
HETATM   21  H8  UNK     1      11.355   5.989   4.648  1.00  0.00     0.217 HD
ENDBRANCH   7  20
BRANCH  11  22
HETATM   22  O5  UNK     1       7.624   5.727   7.523  1.00  0.00    -0.361 OA
HETATM   23  H9  UNK     1       7.066   6.332   8.040  1.00  0.00     0.217 HD
ENDBRANCH  11  22
TORSDOF 4
ENDMDL
MODEL 2
REMARK VINA RESULT:      -7.8     12.346     14.184
REMARK  4 active torsions:
REMARK  status: ('A' for Active; 'I' for Inactive)
REMARK    1  A    between atoms: C6_11  and  O2_2 
REMARK    2  A    between atoms: C15_20  and  O4_4 
REMARK    3  A    between atoms: C12_17  and  O5_5 
REMARK    4  A    between atoms: C2_7  and  C5_10 
ROOT
HETATM    1  O1  UNK     1      18.989  -1.127  18.552  1.00  0.00    -0.321 OA
HETATM    2  O3  UNK     1      19.196   1.309  15.285  1.00  0.00    -0.286 OA
HETATM    3  C1  UNK     1      19.068   1.116  17.628  1.00  0.00     0.082 A 
HETATM    4  C2  UNK     1      19.071  -0.912  16.134  1.00  0.00     0.048 A 
HETATM    5  C3  UNK     1      19.007   0.236  18.707  1.00  0.00     0.094 A 
HETATM    6  C4  UNK     1      19.114   0.571  16.258  1.00  0.00     0.200 A 
HETATM    7  C6  UNK     1      19.086   2.496  17.846  1.00  0.00     0.085 A 
HETATM    8  C7  UNK     1      19.012  -1.622  17.270  1.00  0.00     0.159 A 
HETATM    9  C8  UNK     1      18.967   0.730  20.011  1.00  0.00     0.074 A 
HETATM   10  C11 UNK     1      19.044   2.988  19.152  1.00  0.00     0.074 A 
HETATM   11  C12 UNK     1      18.984   2.107  20.232  1.00  0.00     0.071 A 
ENDROOT
BRANCH   4  12
HETATM   12  C5  UNK     1      19.072  -1.584  14.825  1.00  0.00    -0.020 A 
HETATM   13  C10 UNK     1      19.447  -0.881  13.678  1.00  0.00     0.015 A 
HETATM   14  C14 UNK     1      19.449  -1.517  12.436  1.00  0.00     0.037 A 
HETATM   15  C15 UNK     1      19.078  -2.857  12.339  1.00  0.00     0.068 A 
HETATM   16  C13 UNK     1      18.703  -3.563  13.483  1.00  0.00     0.037 A 
HETATM   17  C9  UNK     1      18.700  -2.926  14.725  1.00  0.00     0.015 A 
BRANCH  15  18
HETATM   18  O4  UNK     1      19.079  -3.479  11.128  1.00  0.00    -0.356 OA
HETATM   19  C16 UNK     1      19.957  -2.956  10.132  1.00  0.00     0.210 C 
ENDBRANCH  15  18
ENDBRANCH   4  12
BRANCH   7  20
HETATM   20  O2  UNK     1      19.145   3.401  16.829  1.00  0.00    -0.360 OA
HETATM   21  H8  UNK     1      19.442   2.975  16.011  1.00  0.00     0.217 HD
ENDBRANCH   7  20
BRANCH  11  22
HETATM   22  O5  UNK     1      18.941   2.592  21.504  1.00  0.00    -0.361 OA
HETATM   23  H9  UNK     1      18.311   2.063  22.021  1.00  0.00     0.217 HD
ENDBRANCH  11  22
TORSDOF 4
ENDMDL
MODEL 3
REMARK VINA RESULT:      -7.7     22.802     24.918
REMARK  4 active torsions:
REMARK  status: ('A' for Active; 'I' for Inactive)
REMARK    1  A    between atoms: C6_11  and  O2_2 
REMARK    2  A    between atoms: C15_20  and  O4_4 
REMARK    3  A    between atoms: C12_17  and  O5_5 
REMARK    4  A    between atoms: C2_7  and  C5_10 
ROOT
HETATM    1  O1  UNK     1      18.121   9.284  33.802  1.00  0.00    -0.321 OA
HETATM    2  O3  UNK     1      15.235   7.201  31.806  1.00  0.00    -0.286 OA
HETATM    3  C1  UNK     1      15.792   9.044  33.160  1.00  0.00     0.082 A 
HETATM    4  C2  UNK     1      17.523   7.360  32.446  1.00  0.00     0.048 A 
HETATM    5  C3  UNK     1      16.820   9.720  33.816  1.00  0.00     0.094 A 
HETATM    6  C4  UNK     1      16.103   7.808  32.418  1.00  0.00     0.200 A 
HETATM    7  C6  UNK     1      14.485   9.536  33.208  1.00  0.00     0.085 A 
HETATM    8  C7  UNK     1      18.395   8.120  33.124  1.00  0.00     0.159 A 
HETATM    9  C8  UNK     1      16.548  10.893  34.521  1.00  0.00     0.074 A 
HETATM   10  C11 UNK     1      14.216  10.709  33.915  1.00  0.00     0.074 A 
HETATM   11  C12 UNK     1      15.245  11.386  34.570  1.00  0.00     0.071 A 
ENDROOT
BRANCH   4  12
HETATM   12  C5  UNK     1      17.961   6.123  31.779  1.00  0.00    -0.020 A 
HETATM   13  C10 UNK     1      17.699   4.882  32.363  1.00  0.00     0.015 A 
HETATM   14  C14 UNK     1      18.112   3.709  31.729  1.00  0.00     0.037 A 
HETATM   15  C15 UNK     1      18.788   3.775  30.512  1.00  0.00     0.068 A 
HETATM   16  C13 UNK     1      19.051   5.014  29.926  1.00  0.00     0.037 A 
HETATM   17  C9  UNK     1      18.638   6.186  30.559  1.00  0.00     0.015 A 
BRANCH  15  18
HETATM   18  O4  UNK     1      19.192   2.632  29.894  1.00  0.00    -0.356 OA
HETATM   19  C16 UNK     1      18.256   2.002  29.020  1.00  0.00     0.210 C 
ENDBRANCH  15  18
ENDBRANCH   4  12
BRANCH   7  20
HETATM   20  O2  UNK     1      13.443   8.917  32.586  1.00  0.00    -0.360 OA
HETATM   21  H8  UNK     1      12.720   8.756  33.211  1.00  0.00     0.217 HD
ENDBRANCH   7  20
BRANCH  11  22
HETATM   22  O5  UNK     1      14.976  12.529  35.260  1.00  0.00    -0.361 OA
HETATM   23  H9  UNK     1      15.077  13.289  34.662  1.00  0.00     0.217 HD
ENDBRANCH  11  22
TORSDOF 4
ENDMDL
MODEL 4
REMARK VINA RESULT:      -7.5     22.994     25.152
REMARK  4 active torsions:
REMARK  status: ('A' for Active; 'I' for Inactive)
REMARK    1  A    between atoms: C6_11  and  O2_2 
REMARK    2  A    between atoms: C15_20  and  O4_4 
REMARK    3  A    between atoms: C12_17  and  O5_5 
REMARK    4  A    between atoms: C2_7  and  C5_10 
ROOT
HETATM    1  O1  UNK     1      19.126   8.492  33.635  1.00  0.00    -0.321 OA
HETATM    2  O3  UNK     1      15.811   6.820  31.942  1.00  0.00    -0.286 OA
HETATM    3  C1  UNK     1      16.768   8.646  33.077  1.00  0.00     0.082 A 
HETATM    4  C2  UNK     1      18.114   6.594  32.507  1.00  0.00     0.048 A 
HETATM    5  C3  UNK     1      17.934   9.172  33.633  1.00  0.00     0.094 A 
HETATM    6  C4  UNK     1      16.805   7.305  32.465  1.00  0.00     0.200 A 
HETATM    7  C6  UNK     1      15.583   9.385  33.102  1.00  0.00     0.085 A 
HETATM    8  C7  UNK     1      19.143   7.235  33.079  1.00  0.00     0.159 A 
HETATM    9  C8  UNK     1      17.922  10.440  34.214  1.00  0.00     0.074 A 
HETATM   10  C11 UNK     1      15.574  10.653  33.686  1.00  0.00     0.074 A 
HETATM   11  C12 UNK     1      16.740  11.180  34.240  1.00  0.00     0.071 A 
ENDROOT
BRANCH   4  12
HETATM   12  C5  UNK     1      18.278   5.236  31.966  1.00  0.00    -0.020 A 
HETATM   13  C10 UNK     1      18.718   5.053  30.654  1.00  0.00     0.015 A 
HETATM   14  C14 UNK     1      18.876   3.765  30.141  1.00  0.00     0.037 A 
HETATM   15  C15 UNK     1      18.594   2.658  30.940  1.00  0.00     0.068 A 
HETATM   16  C13 UNK     1      18.153   2.837  32.251  1.00  0.00     0.037 A 
HETATM   17  C9  UNK     1      17.996   4.125  32.764  1.00  0.00     0.015 A 
BRANCH  15  18
HETATM   18  O4  UNK     1      18.747   1.401  30.440  1.00  0.00    -0.356 OA
HETATM   19  C16 UNK     1      18.605   1.242  29.029  1.00  0.00     0.210 C 
ENDBRANCH  15  18
ENDBRANCH   4  12
BRANCH   7  20
HETATM   20  O2  UNK     1      14.416   8.921  32.575  1.00  0.00    -0.360 OA
HETATM   21  H8  UNK     1      13.906   9.646  32.184  1.00  0.00     0.217 HD
ENDBRANCH   7  20
BRANCH  11  22
HETATM   22  O5  UNK     1      16.725  12.417  34.810  1.00  0.00    -0.361 OA
HETATM   23  H9  UNK     1      15.941  12.490  35.381  1.00  0.00     0.217 HD
ENDBRANCH  11  22
TORSDOF 4
ENDMDL
MODEL 5
REMARK VINA RESULT:      -7.4     12.377     14.848
REMARK  4 active torsions:
REMARK  status: ('A' for Active; 'I' for Inactive)
REMARK    1  A    between atoms: C6_11  and  O2_2 
REMARK    2  A    between atoms: C15_20  and  O4_4 
REMARK    3  A    between atoms: C12_17  and  O5_5 
REMARK    4  A    between atoms: C2_7  and  C5_10 
ROOT
HETATM    1  O1  UNK     1      19.577   1.252  15.204  1.00  0.00    -0.321 OA
HETATM    2  O3  UNK     1      18.356  -1.662  17.785  1.00  0.00    -0.286 OA
HETATM    3  C1  UNK     1      18.997   0.580  17.463  1.00  0.00     0.082 A 
HETATM    4  C2  UNK     1      18.961  -1.069  15.559  1.00  0.00     0.048 A 
HETATM    5  C3  UNK     1      19.404   1.537  16.534  1.00  0.00     0.094 A 
HETATM    6  C4  UNK     1      18.740  -0.799  17.007  1.00  0.00     0.200 A 
HETATM    7  C6  UNK     1      18.836   0.928  18.806  1.00  0.00     0.085 A 
HETATM    8  C7  UNK     1      19.355  -0.040  14.795  1.00  0.00     0.159 A 
HETATM    9  C8  UNK     1      19.649   2.848  16.944  1.00  0.00     0.074 A 
HETATM   10  C11 UNK     1      19.083   2.240  19.213  1.00  0.00     0.074 A 
HETATM   11  C12 UNK     1      19.488   3.198  18.284  1.00  0.00     0.071 A 
ENDROOT
BRANCH   4  12
HETATM   12  C5  UNK     1      18.778  -2.411  14.982  1.00  0.00    -0.020 A 
HETATM   13  C10 UNK     1      17.915  -3.324  15.592  1.00  0.00     0.015 A 
HETATM   14  C14 UNK     1      17.740  -4.595  15.044  1.00  0.00     0.037 A 
HETATM   15  C15 UNK     1      18.426  -4.955  13.886  1.00  0.00     0.068 A 
HETATM   16  C13 UNK     1      19.289  -4.045  13.274  1.00  0.00     0.037 A 
HETATM   17  C9  UNK     1      19.464  -2.774  13.822  1.00  0.00     0.015 A 
BRANCH  15  18
HETATM   18  O4  UNK     1      18.257  -6.195  13.351  1.00  0.00    -0.356 OA
HETATM   19  C16 UNK     1      17.146  -6.958  13.822  1.00  0.00     0.210 C 
ENDBRANCH  15  18
ENDBRANCH   4  12
BRANCH   7  20
HETATM   20  O2  UNK     1      18.441   0.033  19.755  1.00  0.00    -0.360 OA
HETATM   21  H8  UNK     1      18.289   0.479  20.602  1.00  0.00     0.217 HD
ENDBRANCH   7  20
BRANCH  11  22
HETATM   22  O5  UNK     1      19.730   4.477  18.687  1.00  0.00    -0.361 OA
HETATM   23  H9  UNK     1      19.346   4.605  19.571  1.00  0.00     0.217 HD
ENDBRANCH  11  22
TORSDOF 4
ENDMDL
MODEL 6
REMARK VINA RESULT:      -7.4     22.922     24.850
REMARK  4 active torsions:
REMARK  status: ('A' for Active; 'I' for Inactive)
REMARK    1  A    between atoms: C6_11  and  O2_2 
REMARK    2  A    between atoms: C15_20  and  O4_4 
REMARK    3  A    between atoms: C12_17  and  O5_5 
REMARK    4  A    between atoms: C2_7  and  C5_10 
ROOT
HETATM    1  O1  UNK     1      18.253   3.760  33.573  1.00  0.00    -0.321 OA
HETATM    2  O3  UNK     1      18.624   6.482  30.555  1.00  0.00    -0.286 OA
HETATM    3  C1  UNK     1      18.549   4.221  31.208  1.00  0.00     0.082 A 
HETATM    4  C2  UNK     1      18.380   6.087  32.891  1.00  0.00     0.048 A 
HETATM    5  C3  UNK     1      18.409   3.337  32.277  1.00  0.00     0.094 A 
HETATM    6  C4  UNK     1      18.531   5.673  31.469  1.00  0.00     0.200 A 
HETATM    7  C6  UNK     1      18.704   3.733  29.908  1.00  0.00     0.085 A 
HETATM    8  C7  UNK     1      18.257   5.114  33.805  1.00  0.00     0.159 A 
HETATM    9  C8  UNK     1      18.420   1.960  32.052  1.00  0.00     0.074 A 
HETATM   10  C11 UNK     1      18.716   2.355  29.686  1.00  0.00     0.074 A 
HETATM   11  C12 UNK     1      18.575   1.471  30.755  1.00  0.00     0.071 A 
ENDROOT
BRANCH   4  12
HETATM   12  C5  UNK     1      18.384   7.503  33.293  1.00  0.00    -0.020 A 
HETATM   13  C10 UNK     1      17.236   8.281  33.129  1.00  0.00     0.015 A 
HETATM   14  C14 UNK     1      17.240   9.623  33.512  1.00  0.00     0.037 A 
HETATM   15  C15 UNK     1      18.391  10.189  34.059  1.00  0.00     0.068 A 
HETATM   16  C13 UNK     1      19.539   9.414  34.223  1.00  0.00     0.037 A 
HETATM   17  C9  UNK     1      19.535   8.072  33.841  1.00  0.00     0.015 A 
BRANCH  15  18
HETATM   18  O4  UNK     1      18.395  11.498  34.431  1.00  0.00    -0.356 OA
HETATM   19  C16 UNK     1      17.157  12.202  34.341  1.00  0.00     0.210 C 
ENDBRANCH  15  18
ENDBRANCH   4  12
BRANCH   7  20
HETATM   20  O2  UNK     1      18.846   4.551  28.828  1.00  0.00    -0.360 OA
HETATM   21  H8  UNK     1      18.346   5.371  28.953  1.00  0.00     0.217 HD
ENDBRANCH   7  20
BRANCH  11  22
HETATM   22  O5  UNK     1      18.589   0.127  30.533  1.00  0.00    -0.361 OA
HETATM   23  H9  UNK     1      18.988  -0.044  29.663  1.00  0.00     0.217 HD
ENDBRANCH  11  22
TORSDOF 4
ENDMDL
MODEL 7
REMARK VINA RESULT:      -7.3     22.888     24.802
REMARK  4 active torsions:
REMARK  status: ('A' for Active; 'I' for Inactive)
REMARK    1  A    between atoms: C6_11  and  O2_2 
REMARK    2  A    between atoms: C15_20  and  O4_4 
REMARK    3  A    between atoms: C12_17  and  O5_5 
REMARK    4  A    between atoms: C2_7  and  C5_10 
ROOT
HETATM    1  O1  UNK     1      18.908   3.680  29.482  1.00  0.00    -0.321 OA
HETATM    2  O3  UNK     1      18.124   3.353  33.473  1.00  0.00    -0.286 OA
HETATM    3  C1  UNK     1      18.691   2.282  31.455  1.00  0.00     0.082 A 
HETATM    4  C2  UNK     1      18.275   4.764  31.561  1.00  0.00     0.048 A 
HETATM    5  C3  UNK     1      18.959   2.455  30.097  1.00  0.00     0.094 A 
HETATM    6  C4  UNK     1      18.338   3.457  32.273  1.00  0.00     0.200 A 
HETATM    7  C6  UNK     1      18.760   1.010  32.028  1.00  0.00     0.085 A 
HETATM    8  C7  UNK     1      18.559   4.764  30.250  1.00  0.00     0.159 A 
HETATM    9  C8  UNK     1      19.299   1.357  29.306  1.00  0.00     0.074 A 
HETATM   10  C11 UNK     1      19.098  -0.087  31.234  1.00  0.00     0.074 A 
HETATM   11  C12 UNK     1      19.367   0.086  29.876  1.00  0.00     0.071 A 
ENDROOT
BRANCH   4  12
HETATM   12  C5  UNK     1      17.897   6.008  32.251  1.00  0.00    -0.020 A 
HETATM   13  C10 UNK     1      16.550   6.330  32.427  1.00  0.00     0.015 A 
HETATM   14  C14 UNK     1      16.191   7.508  33.083  1.00  0.00     0.037 A 
HETATM   15  C15 UNK     1      17.179   8.366  33.565  1.00  0.00     0.068 A 
HETATM   16  C13 UNK     1      18.526   8.047  33.391  1.00  0.00     0.037 A 
HETATM   17  C9  UNK     1      18.884   6.869  32.735  1.00  0.00     0.015 A 
BRANCH  15  18
HETATM   18  O4  UNK     1      16.830   9.516  34.204  1.00  0.00    -0.356 OA
HETATM   19  C16 UNK     1      15.522   9.571  34.772  1.00  0.00     0.210 C 
ENDBRANCH  15  18
ENDBRANCH   4  12
BRANCH   7  20
HETATM   20  O2  UNK     1      18.508   0.784  33.348  1.00  0.00    -0.360 OA
HETATM   21  H8  UNK     1      17.647   0.354  33.463  1.00  0.00     0.217 HD
ENDBRANCH   7  20
BRANCH  11  22
HETATM   22  O5  UNK     1      19.695  -0.988  29.105  1.00  0.00    -0.361 OA
HETATM   23  H9  UNK     1      19.082  -1.033  28.352  1.00  0.00     0.217 HD
ENDBRANCH  11  22
TORSDOF 4
ENDMDL
MODEL 8
REMARK VINA RESULT:      -7.3      3.843      8.879
REMARK  4 active torsions:
REMARK  status: ('A' for Active; 'I' for Inactive)
REMARK    1  A    between atoms: C6_11  and  O2_2 
REMARK    2  A    between atoms: C15_20  and  O4_4 
REMARK    3  A    between atoms: C12_17  and  O5_5 
REMARK    4  A    between atoms: C2_7  and  C5_10 
ROOT
HETATM    1  O1  UNK     1       9.034   6.139   7.063  1.00  0.00    -0.321 OA
HETATM    2  O3  UNK     1       9.795   4.595  10.763  1.00  0.00    -0.286 OA
HETATM    3  C1  UNK     1      10.646   5.488   8.758  1.00  0.00     0.082 A 
HETATM    4  C2  UNK     1       8.173   5.171   9.117  1.00  0.00     0.048 A 
HETATM    5  C3  UNK     1      10.326   6.017   7.508  1.00  0.00     0.094 A 
HETATM    6  C4  UNK     1       9.559   5.039   9.647  1.00  0.00     0.200 A 
HETATM    7  C6  UNK     1      11.981   5.389   9.158  1.00  0.00     0.085 A 
HETATM    8  C7  UNK     1       8.031   5.698   7.893  1.00  0.00     0.159 A 
HETATM    9  C8  UNK     1      11.339   6.451   6.652  1.00  0.00     0.074 A 
HETATM   10  C11 UNK     1      12.992   5.824   8.299  1.00  0.00     0.074 A 
HETATM   11  C12 UNK     1      12.672   6.353   7.049  1.00  0.00     0.071 A 
ENDROOT
BRANCH   4  12
HETATM   12  C5  UNK     1       7.001   4.724   9.887  1.00  0.00    -0.020 A 
HETATM   13  C10 UNK     1       6.601   3.387   9.843  1.00  0.00     0.015 A 
HETATM   14  C14 UNK     1       5.491   2.963  10.574  1.00  0.00     0.037 A 
HETATM   15  C15 UNK     1       4.779   3.875  11.351  1.00  0.00     0.068 A 
HETATM   16  C13 UNK     1       5.175   5.212  11.397  1.00  0.00     0.037 A 
HETATM   17  C9  UNK     1       6.285   5.636  10.666  1.00  0.00     0.015 A 
BRANCH  15  18
HETATM   18  O4  UNK     1       3.695   3.463  12.064  1.00  0.00    -0.356 OA
HETATM   19  C16 UNK     1       3.937   2.954  13.375  1.00  0.00     0.210 C 
ENDBRANCH  15  18
ENDBRANCH   4  12
BRANCH   7  20
HETATM   20  O2  UNK     1      12.350   4.882  10.367  1.00  0.00    -0.360 OA
HETATM   21  H8  UNK     1      13.295   5.027  10.524  1.00  0.00     0.217 HD
ENDBRANCH   7  20
BRANCH  11  22
HETATM   22  O5  UNK     1      13.663   6.774   6.215  1.00  0.00    -0.361 OA
HETATM   23  H9  UNK     1      13.768   7.735   6.311  1.00  0.00     0.217 HD
ENDBRANCH  11  22
TORSDOF 4
ENDMDL
MODEL 9
REMARK VINA RESULT:      -7.3     23.753     25.270
REMARK  4 active torsions:
REMARK  status: ('A' for Active; 'I' for Inactive)
REMARK    1  A    between atoms: C6_11  and  O2_2 
REMARK    2  A    between atoms: C15_20  and  O4_4 
REMARK    3  A    between atoms: C12_17  and  O5_5 
REMARK    4  A    between atoms: C2_7  and  C5_10 
ROOT
HETATM    1  O1  UNK     1      18.208   2.375  34.101  1.00  0.00    -0.321 OA
HETATM    2  O3  UNK     1      18.641   4.535  30.667  1.00  0.00    -0.286 OA
HETATM    3  C1  UNK     1      18.682   2.431  31.721  1.00  0.00     0.082 A 
HETATM    4  C2  UNK     1      18.216   4.544  33.010  1.00  0.00     0.048 A 
HETATM    5  C3  UNK     1      18.514   1.743  32.922  1.00  0.00     0.094 A 
HETATM    6  C4  UNK     1      18.528   3.898  31.705  1.00  0.00     0.200 A 
HETATM    7  C6  UNK     1      18.992   1.735  30.550  1.00  0.00     0.085 A 
HETATM    8  C7  UNK     1      18.087   3.743  34.078  1.00  0.00     0.159 A 
HETATM    9  C8  UNK     1      18.651   0.355  32.958  1.00  0.00     0.074 A 
HETATM   10  C11 UNK     1      19.130   0.346  30.590  1.00  0.00     0.074 A 
HETATM   11  C12 UNK     1      18.961  -0.342  31.791  1.00  0.00     0.071 A 
ENDROOT
BRANCH   4  12
HETATM   12  C5  UNK     1      18.075   6.003  33.141  1.00  0.00    -0.020 A 
HETATM   13  C10 UNK     1      19.128   6.766  33.652  1.00  0.00     0.015 A 
HETATM   14  C14 UNK     1      18.995   8.149  33.774  1.00  0.00     0.037 A 
HETATM   15  C15 UNK     1      17.810   8.773  33.385  1.00  0.00     0.068 A 
HETATM   16  C13 UNK     1      16.757   8.014  32.874  1.00  0.00     0.037 A 
HETATM   17  C9  UNK     1      16.890   6.630  32.752  1.00  0.00     0.015 A 
BRANCH  15  18
HETATM   18  O4  UNK     1      17.680  10.122  33.504  1.00  0.00    -0.356 OA
HETATM   19  C16 UNK     1      16.497  10.606  34.140  1.00  0.00     0.210 C 
ENDBRANCH  15  18
ENDBRANCH   4  12
BRANCH   7  20
HETATM   20  O2  UNK     1      19.168   2.356  29.350  1.00  0.00    -0.360 OA
HETATM   21  H8  UNK     1      19.178   1.708  28.629  1.00  0.00     0.217 HD
ENDBRANCH   7  20
BRANCH  11  22
HETATM   22  O5  UNK     1      19.099  -1.697  31.824  1.00  0.00    -0.361 OA
HETATM   23  H9  UNK     1      19.510  -1.991  30.994  1.00  0.00     0.217 HD
ENDBRANCH  11  22
TORSDOF 4
ENDMDL
MODEL 10
REMARK VINA RESULT:      -7.1     34.905     36.763
REMARK  4 active torsions:
REMARK  status: ('A' for Active; 'I' for Inactive)
REMARK    1  A    between atoms: C6_11  and  O2_2 
REMARK    2  A    between atoms: C15_20  and  O4_4 
REMARK    3  A    between atoms: C12_17  and  O5_5 
REMARK    4  A    between atoms: C2_7  and  C5_10 
ROOT
HETATM    1  O1  UNK     1      27.392  -8.895  38.462  1.00  0.00    -0.321 OA
HETATM    2  O3  UNK     1      25.091  -5.533  38.688  1.00  0.00    -0.286 OA
HETATM    3  C1  UNK     1      27.246  -6.478  38.630  1.00  0.00     0.082 A 
HETATM    4  C2  UNK     1      25.175  -7.910  38.573  1.00  0.00     0.048 A 
HETATM    5  C3  UNK     1      27.982  -7.659  38.542  1.00  0.00     0.094 A 
HETATM    6  C4  UNK     1      25.773  -6.547  38.640  1.00  0.00     0.200 A 
HETATM    7  C6  UNK     1      27.901  -5.246  38.707  1.00  0.00     0.085 A 
HETATM    8  C7  UNK     1      26.019  -8.949  38.493  1.00  0.00     0.159 A 
HETATM    9  C8  UNK     1      29.376  -7.615  38.527  1.00  0.00     0.074 A 
HETATM   10  C11 UNK     1      29.296  -5.205  38.693  1.00  0.00     0.074 A 
HETATM   11  C12 UNK     1      30.032  -6.387  38.603  1.00  0.00     0.071 A 
ENDROOT
BRANCH   4  12
HETATM   12  C5  UNK     1      23.719  -8.123  38.614  1.00  0.00    -0.020 A 
HETATM   13  C10 UNK     1      23.035  -8.504  37.458  1.00  0.00     0.015 A 
HETATM   14  C14 UNK     1      21.655  -8.707  37.496  1.00  0.00     0.037 A 
HETATM   15  C15 UNK     1      20.958  -8.531  38.691  1.00  0.00     0.068 A 
HETATM   16  C13 UNK     1      21.638  -8.151  39.847  1.00  0.00     0.037 A 
HETATM   17  C9  UNK     1      23.018  -7.947  39.809  1.00  0.00     0.015 A 
BRANCH  15  18
HETATM   18  O4  UNK     1      19.611  -8.729  38.729  1.00  0.00    -0.356 OA
HETATM   19  C16 UNK     1      19.072  -9.697  37.830  1.00  0.00     0.210 C 
ENDBRANCH  15  18
ENDBRANCH   4  12
BRANCH   7  20
HETATM   20  O2  UNK     1      27.233  -4.062  38.795  1.00  0.00    -0.360 OA
HETATM   21  H8  UNK     1      27.410  -3.632  39.645  1.00  0.00     0.217 HD
ENDBRANCH   7  20
BRANCH  11  22
HETATM   22  O5  UNK     1      31.394  -6.341  38.593  1.00  0.00    -0.361 OA
HETATM   23  H9  UNK     1      31.738  -7.250  38.557  1.00  0.00     0.217 HD
ENDBRANCH  11  22
TORSDOF 4
ENDMDL
