MODEL 1
REMARK VINA RESULT:      -7.6      0.000      0.000
REMARK  9 active torsions:
REMARK  status: ('A' for Active; 'I' for Inactive)
REMARK    1  A    between atoms: C13_18  and  O2_2 
REMARK    2  A    between atoms: C16_21  and  O2_2 
REMARK    3  A    between atoms: C19_24  and  O4_4 
REMARK    4  A    between atoms: C1_6  and  C2_7 
REMARK    5  A    between atoms: C1_6  and  C3_8 
REMARK    6  A    between atoms: C2_7  and  C4_9 
REMARK    7  A    between atoms: C4_9  and  C7_12 
REMARK    8  A    between atoms: C16_21  and  C17_22 
REMARK    9  A    between atoms: C16_21  and  C19_24 
ROOT
HETATM    1  O1  UNK     1      18.056   3.029  33.612  1.00  0.00    -0.274 OA
HETATM    2  O3  UNK     1      18.099   0.847  34.234  1.00  0.00    -0.259 OA
HETATM    3  C3  UNK     1      18.605   1.302  31.952  1.00  0.00     0.024 A 
HETATM    4  C5  UNK     1      18.720   2.230  30.978  1.00  0.00    -0.037 A 
HETATM    5  C6  UNK     1      18.535   3.658  31.310  1.00  0.00     0.005 A 
HETATM    6  C8  UNK     1      18.209   4.008  32.617  1.00  0.00     0.092 A 
HETATM    7  C9  UNK     1      18.241   1.682  33.347  1.00  0.00     0.295 A 
HETATM    8  C10 UNK     1      19.016   1.899  29.536  1.00  0.00     0.050 C 
HETATM    9  C11 UNK     1      18.680   4.704  30.386  1.00  0.00     0.017 A 
HETATM   10  C12 UNK     1      18.017   5.333  33.016  1.00  0.00     0.075 A 
HETATM   11  C13 UNK     1      18.159   6.352  32.083  1.00  0.00     0.072 A 
HETATM   12  C15 UNK     1      18.491   6.038  30.768  1.00  0.00     0.038 A 
ENDROOT
BRANCH  11  13
HETATM   13  O2  UNK     1      17.977   7.649  32.450  1.00  0.00    -0.335 OA
BRANCH  13  14
HETATM   14  C16 UNK     1      16.734   7.981  33.069  1.00  0.00     0.226 C 
BRANCH  14  15
HETATM   15  C17 UNK     1      16.830   9.382  33.674  1.00  0.00     0.039 C 
HETATM   16  C18 UNK     1      18.262   9.863  33.888  1.00  0.00     0.008 C 
ENDBRANCH  14  15
BRANCH  14  17
HETATM   17  C19 UNK     1      15.627   7.861  32.043  1.00  0.00     0.170 C 
HETATM   18  O5  UNK     1      14.657   7.122  32.131  1.00  0.00    -0.648 OA
BRANCH  17  19
HETATM   19  O4  UNK     1      15.865   8.666  30.977  1.00  0.00    -0.774 OA
HETATM   20  H24 UNK     1      16.173   9.555  31.252  1.00  0.00     0.167 HD
ENDBRANCH  17  19
ENDBRANCH  14  17
ENDBRANCH  13  14
ENDBRANCH  11  13
BRANCH   3  21
HETATM   21  C1  UNK     1      18.829  -0.177  31.763  1.00  0.00     0.045 C 
BRANCH  21  22
HETATM   22  C2  UNK     1      20.305  -0.549  31.678  1.00  0.00     0.005 C 
BRANCH  22  23
HETATM   23  C4  UNK     1      20.541  -1.969  31.151  1.00  0.00    -0.000 C 
BRANCH  23  24
HETATM   24  C7  UNK     1      20.279  -2.049  29.646  1.00  0.00    -0.005 C 
HETATM   25  C14 UNK     1      20.912  -0.880  28.907  1.00  0.00     0.005 C 
ENDBRANCH  23  24
ENDBRANCH  22  23
ENDBRANCH  21  22
ENDBRANCH   3  21
TORSDOF 9
ENDMDL
MODEL 2
REMARK VINA RESULT:      -7.4      1.986      2.850
REMARK  9 active torsions:
REMARK  status: ('A' for Active; 'I' for Inactive)
REMARK    1  A    between atoms: C13_18  and  O2_2 
REMARK    2  A    between atoms: C16_21  and  O2_2 
REMARK    3  A    between atoms: C19_24  and  O4_4 
REMARK    4  A    between atoms: C1_6  and  C2_7 
REMARK    5  A    between atoms: C1_6  and  C3_8 
REMARK    6  A    between atoms: C2_7  and  C4_9 
REMARK    7  A    between atoms: C4_9  and  C7_12 
REMARK    8  A    between atoms: C16_21  and  C17_22 
REMARK    9  A    between atoms: C16_21  and  C19_24 
ROOT
HETATM    1  O1  UNK     1      18.529   4.675  29.984  1.00  0.00    -0.274 OA
HETATM    2  O3  UNK     1      18.809   2.866  28.641  1.00  0.00    -0.259 OA
HETATM    3  C3  UNK     1      18.507   2.420  30.961  1.00  0.00     0.024 A 
HETATM    4  C5  UNK     1      18.343   2.926  32.203  1.00  0.00    -0.037 A 
HETATM    5  C6  UNK     1      18.224   4.388  32.381  1.00  0.00     0.005 A 
HETATM    6  C8  UNK     1      18.322   5.212  31.264  1.00  0.00     0.092 A 
HETATM    7  C9  UNK     1      18.625   3.310  29.770  1.00  0.00     0.295 A 
HETATM    8  C10 UNK     1      18.287   2.080  33.450  1.00  0.00     0.050 C 
HETATM    9  C11 UNK     1      18.004   5.012  33.619  1.00  0.00     0.017 A 
HETATM   10  C12 UNK     1      18.220   6.604  31.344  1.00  0.00     0.075 A 
HETATM   11  C13 UNK     1      18.009   7.201  32.580  1.00  0.00     0.072 A 
HETATM   12  C15 UNK     1      17.900   6.405  33.718  1.00  0.00     0.038 A 
ENDROOT
BRANCH  11  13
HETATM   13  O2  UNK     1      17.907   8.553  32.680  1.00  0.00    -0.335 OA
BRANCH  13  14
HETATM   14  C16 UNK     1      17.876   9.107  33.996  1.00  0.00     0.226 C 
BRANCH  14  15
HETATM   15  C17 UNK     1      19.048  10.075  34.163  1.00  0.00     0.039 C 
HETATM   16  C18 UNK     1      20.366   9.392  34.509  1.00  0.00     0.008 C 
ENDBRANCH  14  15
BRANCH  14  17
HETATM   17  C19 UNK     1      16.532   9.769  34.218  1.00  0.00     0.170 C 
HETATM   18  O5  UNK     1      16.060  10.661  33.528  1.00  0.00    -0.648 OA
BRANCH  17  19
HETATM   19  O4  UNK     1      15.918   9.263  35.317  1.00  0.00    -0.774 OA
HETATM   20  H24 UNK     1      14.977   9.534  35.367  1.00  0.00     0.167 HD
ENDBRANCH  17  19
ENDBRANCH  14  17
ENDBRANCH  13  14
ENDBRANCH  11  13
BRANCH   3  21
HETATM   21  C1  UNK     1      18.579   0.951  30.633  1.00  0.00     0.045 C 
BRANCH  21  22
HETATM   22  C2  UNK     1      19.990   0.385  30.741  1.00  0.00     0.005 C 
BRANCH  22  23
HETATM   23  C4  UNK     1      20.510  -0.198  29.422  1.00  0.00    -0.000 C 
BRANCH  23  24
HETATM   24  C7  UNK     1      20.357  -1.720  29.394  1.00  0.00    -0.005 C 
HETATM   25  C14 UNK     1      20.457  -2.316  30.789  1.00  0.00     0.005 C 
ENDBRANCH  23  24
ENDBRANCH  22  23
ENDBRANCH  21  22
ENDBRANCH   3  21
TORSDOF 9
ENDMDL
MODEL 3
REMARK VINA RESULT:      -7.4      1.472      2.132
REMARK  9 active torsions:
REMARK  status: ('A' for Active; 'I' for Inactive)
REMARK    1  A    between atoms: C13_18  and  O2_2 
REMARK    2  A    between atoms: C16_21  and  O2_2 
REMARK    3  A    between atoms: C19_24  and  O4_4 
REMARK    4  A    between atoms: C1_6  and  C2_7 
REMARK    5  A    between atoms: C1_6  and  C3_8 
REMARK    6  A    between atoms: C2_7  and  C4_9 
REMARK    7  A    between atoms: C4_9  and  C7_12 
REMARK    8  A    between atoms: C16_21  and  C17_22 
REMARK    9  A    between atoms: C16_21  and  C19_24 
ROOT
HETATM    1  O1  UNK     1      18.034   3.179  33.494  1.00  0.00    -0.274 OA
HETATM    2  O3  UNK     1      18.162   0.918  33.334  1.00  0.00    -0.259 OA
HETATM    3  C3  UNK     1      18.532   2.139  31.323  1.00  0.00     0.024 A 
HETATM    4  C5  UNK     1      18.572   3.347  30.719  1.00  0.00    -0.037 A 
HETATM    5  C6  UNK     1      18.372   4.569  31.526  1.00  0.00     0.005 A 
HETATM    6  C8  UNK     1      18.109   4.442  32.886  1.00  0.00     0.092 A 
HETATM    7  C9  UNK     1      18.236   2.010  32.779  1.00  0.00     0.295 A 
HETATM    8  C10 UNK     1      18.797   3.535  29.240  1.00  0.00     0.050 C 
HETATM    9  C11 UNK     1      18.441   5.871  31.007  1.00  0.00     0.017 A 
HETATM   10  C12 UNK     1      17.907   5.545  33.720  1.00  0.00     0.075 A 
HETATM   11  C13 UNK     1      17.974   6.825  33.184  1.00  0.00     0.072 A 
HETATM   12  C15 UNK     1      18.241   6.988  31.827  1.00  0.00     0.038 A 
ENDROOT
BRANCH  11  13
HETATM   13  O2  UNK     1      17.781   7.912  33.978  1.00  0.00    -0.335 OA
BRANCH  13  14
HETATM   14  C16 UNK     1      16.690   8.772  33.649  1.00  0.00     0.226 C 
BRANCH  14  15
HETATM   15  C17 UNK     1      15.403   8.207  34.253  1.00  0.00     0.039 C 
HETATM   16  C18 UNK     1      14.393   7.731  33.214  1.00  0.00     0.008 C 
ENDBRANCH  14  15
BRANCH  14  17
HETATM   17  C19 UNK     1      17.002  10.170  34.138  1.00  0.00     0.170 C 
HETATM   18  O5  UNK     1      16.328  10.809  34.933  1.00  0.00    -0.648 OA
BRANCH  17  19
HETATM   19  O4  UNK     1      18.128  10.649  33.551  1.00  0.00    -0.774 OA
HETATM   20  H24 UNK     1      17.926  11.177  32.750  1.00  0.00     0.167 HD
ENDBRANCH  17  19
ENDBRANCH  14  17
ENDBRANCH  13  14
ENDBRANCH  11  13
BRANCH   3  21
HETATM   21  C1  UNK     1      18.781   0.823  30.634  1.00  0.00     0.045 C 
BRANCH  21  22
HETATM   22  C2  UNK     1      20.252   0.420  30.633  1.00  0.00     0.005 C 
BRANCH  22  23
HETATM   23  C4  UNK     1      20.650  -0.410  29.407  1.00  0.00    -0.000 C 
BRANCH  23  24
HETATM   24  C7  UNK     1      20.445  -1.904  29.661  1.00  0.00    -0.005 C 
HETATM   25  C14 UNK     1      20.570  -2.239  31.139  1.00  0.00     0.005 C 
ENDBRANCH  23  24
ENDBRANCH  22  23
ENDBRANCH  21  22
ENDBRANCH   3  21
TORSDOF 9
ENDMDL
MODEL 4
REMARK VINA RESULT:      -7.3     22.386     24.473
REMARK  9 active torsions:
REMARK  status: ('A' for Active; 'I' for Inactive)
REMARK    1  A    between atoms: C13_18  and  O2_2 
REMARK    2  A    between atoms: C16_21  and  O2_2 
REMARK    3  A    between atoms: C19_24  and  O4_4 
REMARK    4  A    between atoms: C1_6  and  C2_7 
REMARK    5  A    between atoms: C1_6  and  C3_8 
REMARK    6  A    between atoms: C2_7  and  C4_9 
REMARK    7  A    between atoms: C4_9  and  C7_12 
REMARK    8  A    between atoms: C16_21  and  C17_22 
REMARK    9  A    between atoms: C16_21  and  C19_24 
ROOT
HETATM    1  O1  UNK     1      12.966   8.219  10.424  1.00  0.00    -0.274 OA
HETATM    2  O3  UNK     1      14.313   9.721  11.463  1.00  0.00    -0.259 OA
HETATM    3  C3  UNK     1      15.393   7.836  10.489  1.00  0.00     0.024 A 
HETATM    4  C5  UNK     1      15.258   6.665   9.830  1.00  0.00    -0.037 A 
HETATM    5  C6  UNK     1      13.915   6.230   9.392  1.00  0.00     0.005 A 
HETATM    6  C8  UNK     1      12.815   7.022   9.706  1.00  0.00     0.092 A 
HETATM    7  C9  UNK     1      14.208   8.673  10.834  1.00  0.00     0.295 A 
HETATM    8  C10 UNK     1      16.410   5.743   9.516  1.00  0.00     0.050 C 
HETATM    9  C11 UNK     1      13.670   5.057   8.660  1.00  0.00     0.017 A 
HETATM   10  C12 UNK     1      11.512   6.684   9.331  1.00  0.00     0.075 A 
HETATM   11  C13 UNK     1      11.292   5.515   8.612  1.00  0.00     0.072 A 
HETATM   12  C15 UNK     1      12.371   4.702   8.276  1.00  0.00     0.038 A 
ENDROOT
BRANCH  11  13
HETATM   13  O2  UNK     1      10.033   5.168   8.236  1.00  0.00    -0.335 OA
BRANCH  13  14
HETATM   14  C16 UNK     1       9.227   6.186   7.642  1.00  0.00     0.226 C 
BRANCH  14  15
HETATM   15  C17 UNK     1       9.326   6.081   6.119  1.00  0.00     0.039 C 
HETATM   16  C18 UNK     1      10.518   6.826   5.527  1.00  0.00     0.008 C 
ENDBRANCH  14  15
BRANCH  14  17
HETATM   17  C19 UNK     1       7.807   6.047   8.148  1.00  0.00     0.170 C 
HETATM   18  O5  UNK     1       7.341   5.052   8.684  1.00  0.00    -0.648 OA
BRANCH  17  19
HETATM   19  O4  UNK     1       7.092   7.173   7.899  1.00  0.00    -0.774 OA
HETATM   20  H24 UNK     1       7.648   7.979   7.953  1.00  0.00     0.167 HD
ENDBRANCH  17  19
ENDBRANCH  14  17
ENDBRANCH  13  14
ENDBRANCH  11  13
BRANCH   3  21
HETATM   21  C1  UNK     1      16.706   8.426  10.935  1.00  0.00     0.045 C 
BRANCH  21  22
HETATM   22  C2  UNK     1      17.440   9.158   9.817  1.00  0.00     0.005 C 
BRANCH  22  23
HETATM   23  C4  UNK     1      17.245  10.678   9.861  1.00  0.00    -0.000 C 
BRANCH  23  24
HETATM   24  C7  UNK     1      16.843  11.222   8.489  1.00  0.00    -0.005 C 
HETATM   25  C14 UNK     1      15.441  10.778   8.103  1.00  0.00     0.005 C 
ENDBRANCH  23  24
ENDBRANCH  22  23
ENDBRANCH  21  22
ENDBRANCH   3  21
TORSDOF 9
ENDMDL
MODEL 5
REMARK VINA RESULT:      -7.3      3.356      7.819
REMARK  9 active torsions:
REMARK  status: ('A' for Active; 'I' for Inactive)
REMARK    1  A    between atoms: C13_18  and  O2_2 
REMARK    2  A    between atoms: C16_21  and  O2_2 
REMARK    3  A    between atoms: C19_24  and  O4_4 
REMARK    4  A    between atoms: C1_6  and  C2_7 
REMARK    5  A    between atoms: C1_6  and  C3_8 
REMARK    6  A    between atoms: C2_7  and  C4_9 
REMARK    7  A    between atoms: C4_9  and  C7_12 
REMARK    8  A    between atoms: C16_21  and  C17_22 
REMARK    9  A    between atoms: C16_21  and  C19_24 
ROOT
HETATM    1  O1  UNK     1      18.554   1.509  31.098  1.00  0.00    -0.274 OA
HETATM    2  O3  UNK     1      18.612   2.779  29.218  1.00  0.00    -0.259 OA
HETATM    3  C3  UNK     1      18.353   3.952  31.274  1.00  0.00     0.024 A 
HETATM    4  C5  UNK     1      18.212   3.875  32.615  1.00  0.00    -0.037 A 
HETATM    5  C6  UNK     1      18.278   2.555  33.277  1.00  0.00     0.005 A 
HETATM    6  C8  UNK     1      18.446   1.417  32.494  1.00  0.00     0.092 A 
HETATM    7  C9  UNK     1      18.518   2.727  30.440  1.00  0.00     0.295 A 
HETATM    8  C10 UNK     1      17.971   5.071  33.502  1.00  0.00     0.050 C 
HETATM    9  C11 UNK     1      18.192   2.369  34.666  1.00  0.00     0.017 A 
HETATM   10  C12 UNK     1      18.518   0.132  33.039  1.00  0.00     0.075 A 
HETATM   11  C13 UNK     1      18.424  -0.029  34.416  1.00  0.00     0.072 A 
HETATM   12  C15 UNK     1      18.262   1.089  35.229  1.00  0.00     0.038 A 
ENDROOT
BRANCH  11  13
HETATM   13  O2  UNK     1      18.492  -1.271  34.967  1.00  0.00    -0.335 OA
BRANCH  13  14
HETATM   14  C16 UNK     1      19.528  -1.502  35.922  1.00  0.00     0.226 C 
BRANCH  14  15
HETATM   15  C17 UNK     1      18.937  -2.199  37.148  1.00  0.00     0.039 C 
HETATM   16  C18 UNK     1      18.030  -1.305  37.987  1.00  0.00     0.008 C 
ENDBRANCH  14  15
BRANCH  14  17
HETATM   17  C19 UNK     1      20.630  -2.306  35.265  1.00  0.00     0.170 C 
HETATM   18  O5  UNK     1      21.787  -1.938  35.124  1.00  0.00    -0.648 OA
BRANCH  17  19
HETATM   19  O4  UNK     1      20.159  -3.496  34.815  1.00  0.00    -0.774 OA
HETATM   20  H24 UNK     1      19.789  -4.042  35.541  1.00  0.00     0.167 HD
ENDBRANCH  17  19
ENDBRANCH  14  17
ENDBRANCH  13  14
ENDBRANCH  11  13
BRANCH   3  21
HETATM   21  C1  UNK     1      18.369   5.234  30.483  1.00  0.00     0.045 C 
BRANCH  21  22
HETATM   22  C2  UNK     1      19.438   6.212  30.955  1.00  0.00     0.005 C 
BRANCH  22  23
HETATM   23  C4  UNK     1      20.859   5.786  30.570  1.00  0.00    -0.000 C 
BRANCH  23  24
HETATM   24  C7  UNK     1      21.792   5.820  31.782  1.00  0.00    -0.005 C 
HETATM   25  C14 UNK     1      21.175   6.589  32.939  1.00  0.00     0.005 C 
ENDBRANCH  23  24
ENDBRANCH  22  23
ENDBRANCH  21  22
ENDBRANCH   3  21
TORSDOF 9
ENDMDL
MODEL 6
REMARK VINA RESULT:      -7.2      1.409      1.938
REMARK  9 active torsions:
REMARK  status: ('A' for Active; 'I' for Inactive)
REMARK    1  A    between atoms: C13_18  and  O2_2 
REMARK    2  A    between atoms: C16_21  and  O2_2 
REMARK    3  A    between atoms: C19_24  and  O4_4 
REMARK    4  A    between atoms: C1_6  and  C2_7 
REMARK    5  A    between atoms: C1_6  and  C3_8 
REMARK    6  A    between atoms: C2_7  and  C4_9 
REMARK    7  A    between atoms: C4_9  and  C7_12 
REMARK    8  A    between atoms: C16_21  and  C17_22 
REMARK    9  A    between atoms: C16_21  and  C19_24 
ROOT
HETATM    1  O1  UNK     1      18.043   2.427  33.107  1.00  0.00    -0.274 OA
HETATM    2  O3  UNK     1      18.013   0.324  33.962  1.00  0.00    -0.259 OA
HETATM    3  C3  UNK     1      18.801   0.540  31.725  1.00  0.00     0.024 A 
HETATM    4  C5  UNK     1      19.036   1.361  30.679  1.00  0.00    -0.037 A 
HETATM    5  C6  UNK     1      18.806   2.813  30.829  1.00  0.00     0.005 A 
HETATM    6  C8  UNK     1      18.317   3.295  32.039  1.00  0.00     0.092 A 
HETATM    7  C9  UNK     1      18.263   1.062  33.015  1.00  0.00     0.295 A 
HETATM    8  C10 UNK     1      19.512   0.882  29.330  1.00  0.00     0.050 C 
HETATM    9  C11 UNK     1      19.063   3.756  29.822  1.00  0.00     0.017 A 
HETATM   10  C12 UNK     1      18.072   4.652  32.265  1.00  0.00     0.075 A 
HETATM   11  C13 UNK     1      18.327   5.568  31.251  1.00  0.00     0.072 A 
HETATM   12  C15 UNK     1      18.824   5.120  30.030  1.00  0.00     0.038 A 
ENDROOT
BRANCH  11  13
HETATM   13  O2  UNK     1      18.097   6.893  31.450  1.00  0.00    -0.335 OA
BRANCH  13  14
HETATM   14  C16 UNK     1      17.124   7.243  32.436  1.00  0.00     0.226 C 
BRANCH  14  15
HETATM   15  C17 UNK     1      17.622   8.454  33.227  1.00  0.00     0.039 C 
HETATM   16  C18 UNK     1      18.961   8.228  33.920  1.00  0.00     0.008 C 
ENDBRANCH  14  15
BRANCH  14  17
HETATM   17  C19 UNK     1      15.799   7.496  31.749  1.00  0.00     0.170 C 
HETATM   18  O5  UNK     1      14.814   6.776  31.824  1.00  0.00    -0.648 OA
BRANCH  17  19
HETATM   19  O4  UNK     1      15.850   8.627  31.000  1.00  0.00    -0.774 OA
HETATM   20  H24 UNK     1      15.986   9.425  31.552  1.00  0.00     0.167 HD
ENDBRANCH  17  19
ENDBRANCH  14  17
ENDBRANCH  13  14
ENDBRANCH  11  13
BRANCH   3  21
HETATM   21  C1  UNK     1      19.052  -0.946  31.728  1.00  0.00     0.045 C 
BRANCH  21  22
HETATM   22  C2  UNK     1      20.528  -1.301  31.873  1.00  0.00     0.005 C 
BRANCH  22  23
HETATM   23  C4  UNK     1      20.783  -2.414  32.895  1.00  0.00    -0.000 C 
BRANCH  23  24
HETATM   24  C7  UNK     1      19.925  -2.221  34.146  1.00  0.00    -0.005 C 
HETATM   25  C14 UNK     1      20.626  -2.750  35.389  1.00  0.00     0.005 C 
ENDBRANCH  23  24
ENDBRANCH  22  23
ENDBRANCH  21  22
ENDBRANCH   3  21
TORSDOF 9
ENDMDL
MODEL 7
REMARK VINA RESULT:      -7.1      6.640      9.905
REMARK  9 active torsions:
REMARK  status: ('A' for Active; 'I' for Inactive)
REMARK    1  A    between atoms: C13_18  and  O2_2 
REMARK    2  A    between atoms: C16_21  and  O2_2 
REMARK    3  A    between atoms: C19_24  and  O4_4 
REMARK    4  A    between atoms: C1_6  and  C2_7 
REMARK    5  A    between atoms: C1_6  and  C3_8 
REMARK    6  A    between atoms: C2_7  and  C4_9 
REMARK    7  A    between atoms: C4_9  and  C7_12 
REMARK    8  A    between atoms: C16_21  and  C17_22 
REMARK    9  A    between atoms: C16_21  and  C19_24 
ROOT
HETATM    1  O1  UNK     1      20.427  -5.320  34.154  1.00  0.00    -0.274 OA
HETATM    2  O3  UNK     1      20.662  -7.454  33.417  1.00  0.00    -0.259 OA
HETATM    3  C3  UNK     1      20.147  -7.189  35.727  1.00  0.00     0.024 A 
HETATM    4  C5  UNK     1      19.930  -6.335  36.751  1.00  0.00    -0.037 A 
HETATM    5  C6  UNK     1      19.916  -4.880  36.492  1.00  0.00     0.005 A 
HETATM    6  C8  UNK     1      20.166  -4.423  35.202  1.00  0.00     0.092 A 
HETATM    7  C9  UNK     1      20.428  -6.692  34.349  1.00  0.00     0.295 A 
HETATM    8  C10 UNK     1      19.710  -6.776  38.176  1.00  0.00     0.050 C 
HETATM    9  C11 UNK     1      19.653  -3.911  37.474  1.00  0.00     0.017 A 
HETATM   10  C12 UNK     1      20.173  -3.066  34.872  1.00  0.00     0.075 A 
HETATM   11  C13 UNK     1      19.916  -2.124  35.861  1.00  0.00     0.072 A 
HETATM   12  C15 UNK     1      19.656  -2.546  37.161  1.00  0.00     0.038 A 
ENDROOT
BRANCH  11  13
HETATM   13  O2  UNK     1      19.917  -0.797  35.561  1.00  0.00    -0.335 OA
BRANCH  13  14
HETATM   14  C16 UNK     1      18.647  -0.153  35.462  1.00  0.00     0.226 C 
BRANCH  14  15
HETATM   15  C17 UNK     1      18.761   1.272  36.008  1.00  0.00     0.039 C 
HETATM   16  C18 UNK     1      17.697   1.620  37.043  1.00  0.00     0.008 C 
ENDBRANCH  14  15
BRANCH  14  17
HETATM   17  C19 UNK     1      18.188  -0.192  34.020  1.00  0.00     0.170 C 
HETATM   18  O5  UNK     1      18.652   0.479  33.110  1.00  0.00    -0.648 OA
BRANCH  17  19
HETATM   19  O4  UNK     1      17.154  -1.058  33.863  1.00  0.00    -0.774 OA
HETATM   20  H24 UNK     1      17.282  -1.642  33.087  1.00  0.00     0.167 HD
ENDBRANCH  17  19
ENDBRANCH  14  17
ENDBRANCH  13  14
ENDBRANCH  11  13
BRANCH   3  21
HETATM   21  C1  UNK     1      20.125  -8.691  35.839  1.00  0.00     0.045 C 
BRANCH  21  22
HETATM   22  C2  UNK     1      21.430  -9.268  36.377  1.00  0.00     0.005 C 
BRANCH  22  23
HETATM   23  C4  UNK     1      21.248 -10.612  37.091  1.00  0.00    -0.000 C 
BRANCH  23  24
HETATM   24  C7  UNK     1      19.769 -10.899  37.357  1.00  0.00    -0.005 C 
HETATM   25  C14 UNK     1      19.389 -10.573  38.793  1.00  0.00     0.005 C 
ENDBRANCH  23  24
ENDBRANCH  22  23
ENDBRANCH  21  22
ENDBRANCH   3  21
TORSDOF 9
ENDMDL
MODEL 8
REMARK VINA RESULT:      -7.0     22.538     23.953
REMARK  9 active torsions:
REMARK  status: ('A' for Active; 'I' for Inactive)
REMARK    1  A    between atoms: C13_18  and  O2_2 
REMARK    2  A    between atoms: C16_21  and  O2_2 
REMARK    3  A    between atoms: C19_24  and  O4_4 
REMARK    4  A    between atoms: C1_6  and  C2_7 
REMARK    5  A    between atoms: C1_6  and  C3_8 
REMARK    6  A    between atoms: C2_7  and  C4_9 
REMARK    7  A    between atoms: C4_9  and  C7_12 
REMARK    8  A    between atoms: C16_21  and  C17_22 
REMARK    9  A    between atoms: C16_21  and  C19_24 
ROOT
HETATM    1  O1  UNK     1      16.385   6.361   9.799  1.00  0.00    -0.274 OA
HETATM    2  O3  UNK     1      15.399   4.317   9.780  1.00  0.00    -0.259 OA
HETATM    3  C3  UNK     1      13.937   6.193   9.657  1.00  0.00     0.024 A 
HETATM    4  C5  UNK     1      13.814   7.538   9.659  1.00  0.00    -0.037 A 
HETATM    5  C6  UNK     1      15.029   8.378   9.696  1.00  0.00     0.005 A 
HETATM    6  C8  UNK     1      16.273   7.759   9.765  1.00  0.00     0.092 A 
HETATM    7  C9  UNK     1      15.273   5.537   9.746  1.00  0.00     0.295 A 
HETATM    8  C10 UNK     1      12.488   8.257   9.642  1.00  0.00     0.050 C 
HETATM    9  C11 UNK     1      15.014   9.781   9.653  1.00  0.00     0.017 A 
HETATM   10  C12 UNK     1      17.471   8.479   9.804  1.00  0.00     0.075 A 
HETATM   11  C13 UNK     1      17.432   9.867   9.767  1.00  0.00     0.072 A 
HETATM   12  C15 UNK     1      16.204  10.519   9.691  1.00  0.00     0.038 A 
ENDROOT
BRANCH  11  13
HETATM   13  O2  UNK     1      18.586  10.586   9.803  1.00  0.00    -0.335 OA
BRANCH  13  14
HETATM   14  C16 UNK     1      18.589  11.843   9.125  1.00  0.00     0.226 C 
BRANCH  14  15
HETATM   15  C17 UNK     1      19.526  12.807   9.855  1.00  0.00     0.039 C 
HETATM   16  C18 UNK     1      20.385  12.139  10.924  1.00  0.00     0.008 C 
ENDBRANCH  14  15
BRANCH  14  17
HETATM   17  C19 UNK     1      18.987  11.620   7.681  1.00  0.00     0.170 C 
HETATM   18  O5  UNK     1      18.344  11.979   6.706  1.00  0.00    -0.648 OA
BRANCH  17  19
HETATM   19  O4  UNK     1      20.154  10.931   7.601  1.00  0.00    -0.774 OA
HETATM   20  H24 UNK     1      20.933  11.525   7.641  1.00  0.00     0.167 HD
ENDBRANCH  17  19
ENDBRANCH  14  17
ENDBRANCH  13  14
ENDBRANCH  11  13
BRANCH   3  21
HETATM   21  C1  UNK     1      12.788   5.223   9.559  1.00  0.00     0.045 C 
BRANCH  21  22
HETATM   22  C2  UNK     1      12.394   4.910   8.120  1.00  0.00     0.005 C 
BRANCH  22  23
HETATM   23  C4  UNK     1      11.076   5.568   7.698  1.00  0.00    -0.000 C 
BRANCH  23  24
HETATM   24  C7  UNK     1      11.199   6.212   6.315  1.00  0.00    -0.005 C 
HETATM   25  C14 UNK     1       9.839   6.381   5.657  1.00  0.00     0.005 C 
ENDBRANCH  23  24
ENDBRANCH  22  23
ENDBRANCH  21  22
ENDBRANCH   3  21
TORSDOF 9
ENDMDL
MODEL 9
REMARK VINA RESULT:      -6.9      7.351     10.722
REMARK  9 active torsions:
REMARK  status: ('A' for Active; 'I' for Inactive)
REMARK    1  A    between atoms: C13_18  and  O2_2 
REMARK    2  A    between atoms: C16_21  and  O2_2 
REMARK    3  A    between atoms: C19_24  and  O4_4 
REMARK    4  A    between atoms: C1_6  and  C2_7 
REMARK    5  A    between atoms: C1_6  and  C3_8 
REMARK    6  A    between atoms: C2_7  and  C4_9 
REMARK    7  A    between atoms: C4_9  and  C7_12 
REMARK    8  A    between atoms: C16_21  and  C17_22 
REMARK    9  A    between atoms: C16_21  and  C19_24 
ROOT
HETATM    1  O1  UNK     1      18.646  -6.465  35.905  1.00  0.00    -0.274 OA
HETATM    2  O3  UNK     1      17.957  -8.623  36.061  1.00  0.00    -0.259 OA
HETATM    3  C3  UNK     1      19.468  -7.875  37.744  1.00  0.00     0.024 A 
HETATM    4  C5  UNK     1      20.234  -6.867  38.215  1.00  0.00    -0.037 A 
HETATM    5  C6  UNK     1      20.202  -5.554  37.538  1.00  0.00     0.005 A 
HETATM    6  C8  UNK     1      19.410  -5.399  36.405  1.00  0.00     0.092 A 
HETATM    7  C9  UNK     1      18.631  -7.706  36.521  1.00  0.00     0.295 A 
HETATM    8  C10 UNK     1      21.152  -7.000  39.404  1.00  0.00     0.050 C 
HETATM    9  C11 UNK     1      20.921  -4.429  37.974  1.00  0.00     0.017 A 
HETATM   10  C12 UNK     1      19.323  -4.193  35.706  1.00  0.00     0.075 A 
HETATM   11  C13 UNK     1      20.048  -3.094  36.151  1.00  0.00     0.072 A 
HETATM   12  C15 UNK     1      20.847  -3.212  37.285  1.00  0.00     0.038 A 
ENDROOT
BRANCH  11  13
HETATM   13  O2  UNK     1      19.978  -1.910  35.486  1.00  0.00    -0.335 OA
BRANCH  13  14
HETATM   14  C16 UNK     1      18.683  -1.331  35.325  1.00  0.00     0.226 C 
BRANCH  14  15
HETATM   15  C17 UNK     1      18.554  -0.122  36.253  1.00  0.00     0.039 C 
HETATM   16  C18 UNK     1      17.878  -0.436  37.583  1.00  0.00     0.008 C 
ENDBRANCH  14  15
BRANCH  14  17
HETATM   17  C19 UNK     1      18.482  -0.975  33.868  1.00  0.00     0.170 C 
HETATM   18  O5  UNK     1      19.326  -0.478  33.137  1.00  0.00    -0.648 OA
BRANCH  17  19
HETATM   19  O4  UNK     1      17.213  -1.252  33.472  1.00  0.00    -0.774 OA
HETATM   20  H24 UNK     1      16.551  -0.948  34.128  1.00  0.00     0.167 HD
ENDBRANCH  17  19
ENDBRANCH  14  17
ENDBRANCH  13  14
ENDBRANCH  11  13
BRANCH   3  21
HETATM   21  C1  UNK     1      19.357  -9.239  38.373  1.00  0.00     0.045 C 
BRANCH  21  22
HETATM   22  C2  UNK     1      20.601 -10.095  38.162  1.00  0.00     0.005 C 
BRANCH  22  23
HETATM   23  C4  UNK     1      20.646 -10.766  36.785  1.00  0.00    -0.000 C 
BRANCH  23  24
HETATM   24  C7  UNK     1      22.013 -10.580  36.125  1.00  0.00    -0.005 C 
HETATM   25  C14 UNK     1      22.677  -9.287  36.572  1.00  0.00     0.005 C 
ENDBRANCH  23  24
ENDBRANCH  22  23
ENDBRANCH  21  22
ENDBRANCH   3  21
TORSDOF 9
ENDMDL
MODEL 10
REMARK VINA RESULT:      -6.9      2.781      3.595
REMARK  9 active torsions:
REMARK  status: ('A' for Active; 'I' for Inactive)
REMARK    1  A    between atoms: C13_18  and  O2_2 
REMARK    2  A    between atoms: C16_21  and  O2_2 
REMARK    3  A    between atoms: C19_24  and  O4_4 
REMARK    4  A    between atoms: C1_6  and  C2_7 
REMARK    5  A    between atoms: C1_6  and  C3_8 
REMARK    6  A    between atoms: C2_7  and  C4_9 
REMARK    7  A    between atoms: C4_9  and  C7_12 
REMARK    8  A    between atoms: C16_21  and  C17_22 
REMARK    9  A    between atoms: C16_21  and  C19_24 
ROOT
HETATM    1  O1  UNK     1      18.247   2.862  35.439  1.00  0.00    -0.274 OA
HETATM    2  O3  UNK     1      18.323   1.482  37.241  1.00  0.00    -0.259 OA
HETATM    3  C3  UNK     1      18.426   0.433  35.105  1.00  0.00     0.024 A 
HETATM    4  C5  UNK     1      18.397   0.584  33.764  1.00  0.00    -0.037 A 
HETATM    5  C6  UNK     1      18.326   1.943  33.187  1.00  0.00     0.005 A 
HETATM    6  C8  UNK     1      18.253   3.035  34.046  1.00  0.00     0.092 A 
HETATM    7  C9  UNK     1      18.333   1.607  36.020  1.00  0.00     0.295 A 
HETATM    8  C10 UNK     1      18.416  -0.569  32.791  1.00  0.00     0.050 C 
HETATM    9  C11 UNK     1      18.339   2.212  31.810  1.00  0.00     0.017 A 
HETATM   10  C12 UNK     1      18.184   4.352  33.585  1.00  0.00     0.075 A 
HETATM   11  C13 UNK     1      18.191   4.596  32.217  1.00  0.00     0.072 A 
HETATM   12  C15 UNK     1      18.270   3.526  31.330  1.00  0.00     0.038 A 
ENDROOT
BRANCH  11  13
HETATM   13  O2  UNK     1      18.125   5.870  31.747  1.00  0.00    -0.335 OA
BRANCH  13  14
HETATM   14  C16 UNK     1      17.381   6.810  32.521  1.00  0.00     0.226 C 
BRANCH  14  15
HETATM   15  C17 UNK     1      18.317   7.920  33.003  1.00  0.00     0.039 C 
HETATM   16  C18 UNK     1      17.651   8.923  33.939  1.00  0.00     0.008 C 
ENDBRANCH  14  15
BRANCH  14  17
HETATM   17  C19 UNK     1      16.232   7.334  31.686  1.00  0.00     0.170 C 
HETATM   18  O5  UNK     1      15.049   7.093  31.877  1.00  0.00    -0.648 OA
BRANCH  17  19
HETATM   19  O4  UNK     1      16.688   8.095  30.658  1.00  0.00    -0.774 OA
HETATM   20  H24 UNK     1      17.237   8.844  30.973  1.00  0.00     0.167 HD
ENDBRANCH  17  19
ENDBRANCH  14  17
ENDBRANCH  13  14
ENDBRANCH  11  13
BRANCH   3  21
HETATM   21  C1  UNK     1      18.559  -0.887  35.821  1.00  0.00     0.045 C 
BRANCH  21  22
HETATM   22  C2  UNK     1      19.984  -1.430  35.807  1.00  0.00     0.005 C 
BRANCH  22  23
HETATM   23  C4  UNK     1      20.049  -2.957  35.923  1.00  0.00    -0.000 C 
BRANCH  23  24
HETATM   24  C7  UNK     1      20.322  -3.390  37.364  1.00  0.00    -0.005 C 
HETATM   25  C14 UNK     1      20.727  -4.854  37.439  1.00  0.00     0.005 C 
ENDBRANCH  23  24
ENDBRANCH  22  23
ENDBRANCH  21  22
ENDBRANCH   3  21
TORSDOF 9
ENDMDL
