MODEL 1
REMARK VINA RESULT:      -9.9      0.000      0.000
REMARK  4 active torsions:
REMARK  status: ('A' for Active; 'I' for Inactive)
REMARK    1  A    between atoms: C1_7  and  N1_4 
REMARK       I    between atoms: C15_21  and  N3_6 
REMARK    2  A    between atoms: C5_11  and  N3_6 
REMARK    3  A    between atoms: C1_7  and  C2_8 
REMARK    4  A    between atoms: C15_21  and  C9_15 
ROOT
HETATM    1  O2  UNK     1      17.975   4.039  32.174  1.00  0.00    -0.267 OA
HETATM    2  N3  UNK     1      18.352   4.025  34.498  1.00  0.00    -0.320 N 
HETATM    3  C15 UNK     1      18.107   4.600  33.260  1.00  0.00     0.262 C 
HETATM    4  H7  UNK     1      18.419   4.621  35.320  1.00  0.00     0.169 HD
ENDROOT
BRANCH   2   5
HETATM    5  C5  UNK     1      18.505   2.662  34.784  1.00  0.00     0.071 A 
HETATM    6  C4  UNK     1      17.954   1.640  34.083  1.00  0.00     0.143 A 
HETATM    7  N1  UNK     1      18.372   0.510  34.723  1.00  0.00    -0.275 N 
HETATM    8  N2  UNK     1      19.156   0.748  35.788  1.00  0.00    -0.183 NA
HETATM    9  C8  UNK     1      19.231   2.081  35.818  1.00  0.00     0.169 A 
BRANCH   7  10
HETATM   10  C1  UNK     1      18.053  -0.848  34.357  1.00  0.00     0.189 C 
BRANCH  10  11
HETATM   11  C2  UNK     1      19.052  -1.402  33.378  1.00  0.00    -0.032 A 
HETATM   12  C3  UNK     1      20.065  -2.250  33.807  1.00  0.00    -0.054 A 
HETATM   13  C11 UNK     1      20.198  -2.639  35.242  1.00  0.00     0.049 C 
HETATM   14  C7  UNK     1      20.981  -2.752  32.881  1.00  0.00     0.007 A 
HETATM   15  C16 UNK     1      20.877  -2.401  31.536  1.00  0.00     0.001 A 
HETATM   16  C12 UNK     1      19.856  -1.548  31.115  1.00  0.00     0.001 A 
HETATM   17  C6  UNK     1      18.940  -1.046  32.039  1.00  0.00     0.009 A 
ENDBRANCH  10  11
ENDBRANCH   7  10
ENDBRANCH   2   5
BRANCH   3  18
HETATM   18  C9  UNK     1      18.005   6.062  33.341  1.00  0.00     0.108 A 
HETATM   19  C13 UNK     1      19.072   6.703  33.830  1.00  0.00     0.037 A 
HETATM   20  C10 UNK     1      19.065   8.153  33.949  1.00  0.00    -0.001 A 
HETATM   21  C14 UNK     1      17.935   8.856  33.547  1.00  0.00     0.089 A 
HETATM   22  C18 UNK     1      20.157   8.864  34.454  1.00  0.00     0.014 A 
HETATM   23  O1  UNK     1      16.814   8.176  33.033  1.00  0.00    -0.274 OA
HETATM   24  C19 UNK     1      17.863  10.245  33.635  1.00  0.00     0.038 A 
HETATM   25  C17 UNK     1      16.791   6.790  32.906  1.00  0.00     0.304 A 
HETATM   26  O3  UNK     1      15.811   6.205  32.459  1.00  0.00    -0.259 OA
HETATM   27  C21 UNK     1      18.956  10.946  34.140  1.00  0.00     0.003 A 
HETATM   28  C20 UNK     1      20.101  10.258  34.548  1.00  0.00     0.001 A 
ENDBRANCH   3  18
TORSDOF 4
ENDMDL
MODEL 2
REMARK VINA RESULT:      -9.9      2.920      9.757
REMARK  4 active torsions:
REMARK  status: ('A' for Active; 'I' for Inactive)
REMARK    1  A    between atoms: C1_7  and  N1_4 
REMARK       I    between atoms: C15_21  and  N3_6 
REMARK    2  A    between atoms: C5_11  and  N3_6 
REMARK    3  A    between atoms: C1_7  and  C2_8 
REMARK    4  A    between atoms: C15_21  and  C9_15 
ROOT
HETATM    1  O2  UNK     1      17.568   3.422  32.723  1.00  0.00    -0.267 OA
HETATM    2  N3  UNK     1      18.502   4.872  31.119  1.00  0.00    -0.320 N 
HETATM    3  C15 UNK     1      18.168   3.645  31.673  1.00  0.00     0.262 C 
HETATM    4  H7  UNK     1      18.987   4.899  30.225  1.00  0.00     0.169 HD
ENDROOT
BRANCH   2   5
HETATM    5  C5  UNK     1      18.225   6.142  31.642  1.00  0.00     0.071 A 
HETATM    6  C4  UNK     1      18.743   6.657  32.784  1.00  0.00     0.143 A 
HETATM    7  N1  UNK     1      18.193   7.901  32.889  1.00  0.00    -0.275 N 
HETATM    8  N2  UNK     1      17.357   8.211  31.883  1.00  0.00    -0.183 NA
HETATM    9  C8  UNK     1      17.383   7.117  31.119  1.00  0.00     0.169 A 
BRANCH   7  10
HETATM   10  C1  UNK     1      18.434   8.857  33.942  1.00  0.00     0.189 C 
BRANCH  10  11
HETATM   11  C2  UNK     1      17.192   9.646  34.261  1.00  0.00    -0.032 A 
HETATM   12  C3  UNK     1      17.203  11.033  34.203  1.00  0.00    -0.054 A 
HETATM   13  C11 UNK     1      18.436  11.786  33.826  1.00  0.00     0.049 C 
HETATM   14  C7  UNK     1      16.041  11.744  34.503  1.00  0.00     0.007 A 
HETATM   15  C16 UNK     1      14.878  11.062  34.859  1.00  0.00     0.001 A 
HETATM   16  C12 UNK     1      14.877   9.668  34.915  1.00  0.00     0.001 A 
HETATM   17  C6  UNK     1      16.039   8.957  34.615  1.00  0.00     0.009 A 
ENDBRANCH  10  11
ENDBRANCH   7  10
ENDBRANCH   2   5
BRANCH   3  18
HETATM   18  C9  UNK     1      18.621   2.522  30.843  1.00  0.00     0.108 A 
HETATM   19  C13 UNK     1      19.070   1.446  31.498  1.00  0.00     0.037 A 
HETATM   20  C10 UNK     1      19.542   0.283  30.760  1.00  0.00    -0.001 A 
HETATM   21  C14 UNK     1      19.516   0.312  29.370  1.00  0.00     0.089 A 
HETATM   22  C18 UNK     1      20.017  -0.863  31.403  1.00  0.00     0.014 A 
HETATM   23  O1  UNK     1      19.043   1.448  28.687  1.00  0.00    -0.274 OA
HETATM   24  C19 UNK     1      19.954  -0.768  28.605  1.00  0.00     0.038 A 
HETATM   25  C17 UNK     1      18.586   2.575  29.363  1.00  0.00     0.304 A 
HETATM   26  O3  UNK     1      18.176   3.561  28.760  1.00  0.00    -0.259 OA
HETATM   27  C21 UNK     1      20.428  -1.906  29.254  1.00  0.00     0.003 A 
HETATM   28  C20 UNK     1      20.460  -1.954  30.649  1.00  0.00     0.001 A 
ENDBRANCH   3  18
TORSDOF 4
ENDMDL
MODEL 3
REMARK VINA RESULT:      -9.8      1.119      1.775
REMARK  4 active torsions:
REMARK  status: ('A' for Active; 'I' for Inactive)
REMARK    1  A    between atoms: C1_7  and  N1_4 
REMARK       I    between atoms: C15_21  and  N3_6 
REMARK    2  A    between atoms: C5_11  and  N3_6 
REMARK    3  A    between atoms: C1_7  and  C2_8 
REMARK    4  A    between atoms: C15_21  and  C9_15 
ROOT
HETATM    1  O2  UNK     1      17.658   4.187  32.429  1.00  0.00    -0.267 OA
HETATM    2  N3  UNK     1      18.560   4.048  34.601  1.00  0.00    -0.320 N 
HETATM    3  C15 UNK     1      18.107   4.690  33.458  1.00  0.00     0.262 C 
HETATM    4  H7  UNK     1      18.888   4.604  35.388  1.00  0.00     0.169 HD
ENDROOT
BRANCH   2   5
HETATM    5  C5  UNK     1      18.607   2.668  34.835  1.00  0.00     0.071 A 
HETATM    6  C4  UNK     1      18.081   1.711  34.030  1.00  0.00     0.143 A 
HETATM    7  N1  UNK     1      18.365   0.532  34.655  1.00  0.00    -0.275 N 
HETATM    8  N2  UNK     1      19.040   0.678  35.808  1.00  0.00    -0.183 NA
HETATM    9  C8  UNK     1      19.183   2.002  35.910  1.00  0.00     0.169 A 
BRANCH   7  10
HETATM   10  C1  UNK     1      18.015  -0.788  34.192  1.00  0.00     0.189 C 
BRANCH  10  11
HETATM   11  C2  UNK     1      19.034  -1.317  33.220  1.00  0.00    -0.032 A 
HETATM   12  C3  UNK     1      20.027  -2.191  33.643  1.00  0.00    -0.054 A 
HETATM   13  C11 UNK     1      20.118  -2.634  35.066  1.00  0.00     0.049 C 
HETATM   14  C7  UNK     1      20.962  -2.669  32.724  1.00  0.00     0.007 A 
HETATM   15  C16 UNK     1      20.897  -2.268  31.390  1.00  0.00     0.001 A 
HETATM   16  C12 UNK     1      19.896  -1.390  30.974  1.00  0.00     0.001 A 
HETATM   17  C6  UNK     1      18.962  -0.912  31.893  1.00  0.00     0.009 A 
ENDBRANCH  10  11
ENDBRANCH   7  10
ENDBRANCH   2   5
BRANCH   3  18
HETATM   18  C9  UNK     1      18.206   6.151  33.569  1.00  0.00     0.108 A 
HETATM   19  C13 UNK     1      17.072   6.801  33.854  1.00  0.00     0.037 A 
HETATM   20  C10 UNK     1      17.071   8.250  33.983  1.00  0.00    -0.001 A 
HETATM   21  C14 UNK     1      18.265   8.943  33.806  1.00  0.00     0.089 A 
HETATM   22  C18 UNK     1      15.912   8.970  34.280  1.00  0.00     0.014 A 
HETATM   23  O1  UNK     1      19.454   8.253  33.506  1.00  0.00    -0.274 OA
HETATM   24  C19 UNK     1      18.331  10.331  33.915  1.00  0.00     0.038 A 
HETATM   25  C17 UNK     1      19.488   6.867  33.376  1.00  0.00     0.304 A 
HETATM   26  O3  UNK     1      20.528   6.274  33.114  1.00  0.00    -0.259 OA
HETATM   27  C21 UNK     1      17.170  11.041  34.211  1.00  0.00     0.003 A 
HETATM   28  C20 UNK     1      15.963  10.363  34.393  1.00  0.00     0.001 A 
ENDBRANCH   3  18
TORSDOF 4
ENDMDL
MODEL 4
REMARK VINA RESULT:      -9.8      5.918      8.583
REMARK  4 active torsions:
REMARK  status: ('A' for Active; 'I' for Inactive)
REMARK    1  A    between atoms: C1_7  and  N1_4 
REMARK       I    between atoms: C15_21  and  N3_6 
REMARK    2  A    between atoms: C5_11  and  N3_6 
REMARK    3  A    between atoms: C1_7  and  C2_8 
REMARK    4  A    between atoms: C15_21  and  C9_15 
ROOT
HETATM    1  O2  UNK     1      18.636  -1.650  36.282  1.00  0.00    -0.267 OA
HETATM    2  N3  UNK     1      19.804  -3.359  35.158  1.00  0.00    -0.320 N 
HETATM    3  C15 UNK     1      19.175  -2.130  35.286  1.00  0.00     0.262 C 
HETATM    4  H7  UNK     1      20.224  -3.613  34.267  1.00  0.00     0.169 HD
ENDROOT
BRANCH   2   5
HETATM    5  C5  UNK     1      19.965  -4.336  36.150  1.00  0.00     0.071 A 
HETATM    6  C4  UNK     1      19.347  -5.542  36.180  1.00  0.00     0.143 A 
HETATM    7  N1  UNK     1      19.804  -6.142  37.316  1.00  0.00    -0.275 N 
HETATM    8  N2  UNK     1      20.676  -5.394  38.012  1.00  0.00    -0.183 NA
HETATM    9  C8  UNK     1      20.768  -4.278  37.284  1.00  0.00     0.169 A 
BRANCH   7  10
HETATM   10  C1  UNK     1      19.442  -7.453  37.797  1.00  0.00     0.189 C 
BRANCH  10  11
HETATM   11  C2  UNK     1      20.190  -8.534  37.064  1.00  0.00    -0.032 A 
HETATM   12  C3  UNK     1      20.238  -9.826  37.568  1.00  0.00    -0.054 A 
HETATM   13  C11 UNK     1      19.555 -10.189  38.845  1.00  0.00     0.049 C 
HETATM   14  C7  UNK     1      20.938 -10.812  36.871  1.00  0.00     0.007 A 
HETATM   15  C16 UNK     1      21.585 -10.496  35.677  1.00  0.00     0.001 A 
HETATM   16  C12 UNK     1      21.531  -9.195  35.178  1.00  0.00     0.001 A 
HETATM   17  C6  UNK     1      20.832  -8.209  35.875  1.00  0.00     0.009 A 
ENDBRANCH  10  11
ENDBRANCH   7  10
ENDBRANCH   2   5
BRANCH   3  18
HETATM   18  C9  UNK     1      19.197  -1.365  34.033  1.00  0.00     0.108 A 
HETATM   19  C13 UNK     1      19.773  -1.964  32.984  1.00  0.00     0.037 A 
HETATM   20  C10 UNK     1      19.843  -1.285  31.700  1.00  0.00    -0.001 A 
HETATM   21  C14 UNK     1      19.304  -0.008  31.583  1.00  0.00     0.089 A 
HETATM   22  C18 UNK     1      20.434  -1.873  30.578  1.00  0.00     0.014 A 
HETATM   23  O1  UNK     1      18.700   0.617  32.690  1.00  0.00    -0.274 OA
HETATM   24  C19 UNK     1      19.339   0.697  30.381  1.00  0.00     0.038 A 
HETATM   25  C17 UNK     1      18.617  -0.007  33.932  1.00  0.00     0.304 A 
HETATM   26  O3  UNK     1      18.090   0.546  34.891  1.00  0.00    -0.259 OA
HETATM   27  C21 UNK     1      19.931   0.104  29.268  1.00  0.00     0.003 A 
HETATM   28  C20 UNK     1      20.477  -1.178  29.366  1.00  0.00     0.001 A 
ENDBRANCH   3  18
TORSDOF 4
ENDMDL
MODEL 5
REMARK VINA RESULT:      -9.7      2.680      9.788
REMARK  4 active torsions:
REMARK  status: ('A' for Active; 'I' for Inactive)
REMARK    1  A    between atoms: C1_7  and  N1_4 
REMARK       I    between atoms: C15_21  and  N3_6 
REMARK    2  A    between atoms: C5_11  and  N3_6 
REMARK    3  A    between atoms: C1_7  and  C2_8 
REMARK    4  A    between atoms: C15_21  and  C9_15 
ROOT
HETATM    1  O2  UNK     1      18.838   4.853  30.197  1.00  0.00    -0.267 OA
HETATM    2  N3  UNK     1      17.575   4.732  32.181  1.00  0.00    -0.320 N 
HETATM    3  C15 UNK     1      18.376   4.244  31.160  1.00  0.00     0.262 C 
HETATM    4  H7  UNK     1      17.283   4.106  32.928  1.00  0.00     0.169 HD
ENDROOT
BRANCH   2   5
HETATM    5  C5  UNK     1      17.110   6.044  32.340  1.00  0.00     0.071 A 
HETATM    6  C4  UNK     1      16.704   6.604  33.506  1.00  0.00     0.143 A 
HETATM    7  N1  UNK     1      16.344   7.878  33.177  1.00  0.00    -0.275 N 
HETATM    8  N2  UNK     1      16.496   8.165  31.873  1.00  0.00    -0.183 NA
HETATM    9  C8  UNK     1      16.970   7.025  31.364  1.00  0.00     0.169 A 
BRANCH   7  10
HETATM   10  C1  UNK     1      15.841   8.885  34.079  1.00  0.00     0.189 C 
BRANCH  10  11
HETATM   11  C2  UNK     1      16.705  10.117  34.063  1.00  0.00    -0.032 A 
HETATM   12  C3  UNK     1      16.133  11.381  34.090  1.00  0.00    -0.054 A 
HETATM   13  C11 UNK     1      14.651  11.564  34.134  1.00  0.00     0.049 C 
HETATM   14  C7  UNK     1      16.954  12.510  34.074  1.00  0.00     0.007 A 
HETATM   15  C16 UNK     1      18.340  12.364  34.031  1.00  0.00     0.001 A 
HETATM   16  C12 UNK     1      18.906  11.089  34.005  1.00  0.00     0.001 A 
HETATM   17  C6  UNK     1      18.086   9.961  34.020  1.00  0.00     0.009 A 
ENDBRANCH  10  11
ENDBRANCH   7  10
ENDBRANCH   2   5
BRANCH   3  18
HETATM   18  C9  UNK     1      18.665   2.813  31.321  1.00  0.00     0.108 A 
HETATM   19  C13 UNK     1      19.164   2.186  30.249  1.00  0.00     0.037 A 
HETATM   20  C10 UNK     1      19.481   0.768  30.312  1.00  0.00    -0.001 A 
HETATM   21  C14 UNK     1      19.258   0.080  31.500  1.00  0.00     0.089 A 
HETATM   22  C18 UNK     1      20.004   0.073  29.218  1.00  0.00     0.014 A 
HETATM   23  O1  UNK     1      18.733   0.745  32.624  1.00  0.00    -0.274 OA
HETATM   24  C19 UNK     1      19.540  -1.279  31.626  1.00  0.00     0.038 A 
HETATM   25  C17 UNK     1      18.419   2.101  32.596  1.00  0.00     0.304 A 
HETATM   26  O3  UNK     1      17.961   2.673  33.579  1.00  0.00    -0.259 OA
HETATM   27  C21 UNK     1      20.060  -1.964  30.530  1.00  0.00     0.003 A 
HETATM   28  C20 UNK     1      20.292  -1.290  29.329  1.00  0.00     0.001 A 
ENDBRANCH   3  18
TORSDOF 4
ENDMDL
MODEL 6
REMARK VINA RESULT:      -9.6      3.340      5.706
REMARK  4 active torsions:
REMARK  status: ('A' for Active; 'I' for Inactive)
REMARK    1  A    between atoms: C1_7  and  N1_4 
REMARK       I    between atoms: C15_21  and  N3_6 
REMARK    2  A    between atoms: C5_11  and  N3_6 
REMARK    3  A    between atoms: C1_7  and  C2_8 
REMARK    4  A    between atoms: C15_21  and  C9_15 
ROOT
HETATM    1  O2  UNK     1      17.052   0.116  35.417  1.00  0.00    -0.267 OA
HETATM    2  N3  UNK     1      19.265  -0.566  34.988  1.00  0.00    -0.320 N 
HETATM    3  C15 UNK     1      18.116   0.189  34.804  1.00  0.00     0.262 C 
HETATM    4  H7  UNK     1      20.082  -0.376  34.411  1.00  0.00     0.169 HD
ENDROOT
BRANCH   2   5
HETATM    5  C5  UNK     1      19.467  -1.588  35.924  1.00  0.00     0.071 A 
HETATM    6  C4  UNK     1      20.339  -2.619  35.793  1.00  0.00     0.143 A 
HETATM    7  N1  UNK     1      20.189  -3.351  36.934  1.00  0.00    -0.275 N 
HETATM    8  N2  UNK     1      19.277  -2.851  37.785  1.00  0.00    -0.183 NA
HETATM    9  C8  UNK     1      18.836  -1.762  37.150  1.00  0.00     0.169 A 
BRANCH   7  10
HETATM   10  C1  UNK     1      20.903  -4.557  37.277  1.00  0.00     0.189 C 
BRANCH  10  11
HETATM   11  C2  UNK     1      20.103  -5.785  36.934  1.00  0.00    -0.032 A 
HETATM   12  C3  UNK     1      19.729  -6.683  37.924  1.00  0.00    -0.054 A 
HETATM   13  C11 UNK     1      20.104  -6.467  39.353  1.00  0.00     0.049 C 
HETATM   14  C7  UNK     1      18.988  -7.815  37.583  1.00  0.00     0.007 A 
HETATM   15  C16 UNK     1      18.628  -8.039  36.254  1.00  0.00     0.001 A 
HETATM   16  C12 UNK     1      19.009  -7.131  35.266  1.00  0.00     0.001 A 
HETATM   17  C6  UNK     1      19.750  -5.999  35.607  1.00  0.00     0.009 A 
ENDBRANCH  10  11
ENDBRANCH   7  10
ENDBRANCH   2   5
BRANCH   3  18
HETATM   18  C9  UNK     1      18.268   1.175  33.727  1.00  0.00     0.108 A 
HETATM   19  C13 UNK     1      18.146   2.459  34.080  1.00  0.00     0.037 A 
HETATM   20  C10 UNK     1      18.280   3.509  33.081  1.00  0.00    -0.001 A 
HETATM   21  C14 UNK     1      18.537   3.154  31.762  1.00  0.00     0.089 A 
HETATM   22  C18 UNK     1      18.161   4.863  33.405  1.00  0.00     0.014 A 
HETATM   23  O1  UNK     1      18.664   1.800  31.397  1.00  0.00    -0.274 OA
HETATM   24  C19 UNK     1      18.675   4.111  30.758  1.00  0.00     0.038 A 
HETATM   25  C17 UNK     1      18.541   0.773  32.328  1.00  0.00     0.304 A 
HETATM   26  O3  UNK     1      18.652  -0.403  32.002  1.00  0.00    -0.259 OA
HETATM   27  C21 UNK     1      18.554   5.458  31.088  1.00  0.00     0.003 A 
HETATM   28  C20 UNK     1      18.298   5.835  32.409  1.00  0.00     0.001 A 
ENDBRANCH   3  18
TORSDOF 4
ENDMDL
MODEL 7
REMARK VINA RESULT:      -9.6      6.094      9.508
REMARK  4 active torsions:
REMARK  status: ('A' for Active; 'I' for Inactive)
REMARK    1  A    between atoms: C1_7  and  N1_4 
REMARK       I    between atoms: C15_21  and  N3_6 
REMARK    2  A    between atoms: C5_11  and  N3_6 
REMARK    3  A    between atoms: C1_7  and  C2_8 
REMARK    4  A    between atoms: C15_21  and  C9_15 
ROOT
HETATM    1  O2  UNK     1      20.132  -4.927  35.419  1.00  0.00    -0.267 OA
HETATM    2  N3  UNK     1      20.822  -4.205  37.553  1.00  0.00    -0.320 N 
HETATM    3  C15 UNK     1      20.250  -4.073  36.296  1.00  0.00     0.262 C 
HETATM    4  H7  UNK     1      20.830  -3.407  38.183  1.00  0.00     0.169 HD
ENDROOT
BRANCH   2   5
HETATM    5  C5  UNK     1      21.400  -5.357  38.103  1.00  0.00     0.071 A 
HETATM    6  C4  UNK     1      20.824  -6.584  38.153  1.00  0.00     0.143 A 
HETATM    7  N1  UNK     1      21.746  -7.378  38.770  1.00  0.00    -0.275 N 
HETATM    8  N2  UNK     1      22.873  -6.734  39.116  1.00  0.00    -0.183 NA
HETATM    9  C8  UNK     1      22.649  -5.485  38.700  1.00  0.00     0.169 A 
BRANCH   7  10
HETATM   10  C1  UNK     1      21.606  -8.785  39.059  1.00  0.00     0.189 C 
BRANCH  10  11
HETATM   11  C2  UNK     1      21.527  -9.600  37.797  1.00  0.00    -0.032 A 
HETATM   12  C3  UNK     1      20.435 -10.423  37.555  1.00  0.00    -0.054 A 
HETATM   13  C11 UNK     1      19.309 -10.528  38.530  1.00  0.00     0.049 C 
HETATM   14  C7  UNK     1      20.383 -11.170  36.378  1.00  0.00     0.007 A 
HETATM   15  C16 UNK     1      21.424 -11.089  35.453  1.00  0.00     0.001 A 
HETATM   16  C12 UNK     1      22.517 -10.259  35.705  1.00  0.00     0.001 A 
HETATM   17  C6  UNK     1      22.569  -9.512  36.882  1.00  0.00     0.009 A 
ENDBRANCH  10  11
ENDBRANCH   7  10
ENDBRANCH   2   5
BRANCH   3  18
HETATM   18  C9  UNK     1      19.744  -2.715  36.061  1.00  0.00     0.108 A 
HETATM   19  C13 UNK     1      19.008  -2.179  37.041  1.00  0.00     0.037 A 
HETATM   20  C10 UNK     1      18.462  -0.838  36.898  1.00  0.00    -0.001 A 
HETATM   21  C14 UNK     1      18.718  -0.128  35.730  1.00  0.00     0.089 A 
HETATM   22  C18 UNK     1      17.691  -0.239  37.897  1.00  0.00     0.014 A 
HETATM   23  O1  UNK     1      19.492  -0.698  34.702  1.00  0.00    -0.274 OA
HETATM   24  C19 UNK     1      18.224   1.160  35.531  1.00  0.00     0.038 A 
HETATM   25  C17 UNK     1      20.028  -1.978  34.808  1.00  0.00     0.304 A 
HETATM   26  O3  UNK     1      20.700  -2.467  33.907  1.00  0.00    -0.259 OA
HETATM   27  C21 UNK     1      17.454   1.750  36.531  1.00  0.00     0.003 A 
HETATM   28  C20 UNK     1      17.188   1.053  37.712  1.00  0.00     0.001 A 
ENDBRANCH   3  18
TORSDOF 4
ENDMDL
MODEL 8
REMARK VINA RESULT:      -9.5      5.766      9.350
REMARK  4 active torsions:
REMARK  status: ('A' for Active; 'I' for Inactive)
REMARK    1  A    between atoms: C1_7  and  N1_4 
REMARK       I    between atoms: C15_21  and  N3_6 
REMARK    2  A    between atoms: C5_11  and  N3_6 
REMARK    3  A    between atoms: C1_7  and  C2_8 
REMARK    4  A    between atoms: C15_21  and  C9_15 
ROOT
HETATM    1  O2  UNK     1      21.084  -3.896  36.996  1.00  0.00    -0.267 OA
HETATM    2  N3  UNK     1      19.822  -4.690  35.173  1.00  0.00    -0.320 N 
HETATM    3  C15 UNK     1      20.265  -3.749  36.091  1.00  0.00     0.262 C 
HETATM    4  H7  UNK     1      19.148  -4.413  34.462  1.00  0.00     0.169 HD
ENDROOT
BRANCH   2   5
HETATM    5  C5  UNK     1      20.217  -6.031  35.076  1.00  0.00     0.071 A 
HETATM    6  C4  UNK     1      20.473  -6.857  36.120  1.00  0.00     0.143 A 
HETATM    7  N1  UNK     1      20.818  -8.047  35.549  1.00  0.00    -0.275 N 
HETATM    8  N2  UNK     1      20.797  -8.030  34.206  1.00  0.00    -0.183 NA
HETATM    9  C8  UNK     1      20.425  -6.779  33.923  1.00  0.00     0.169 A 
BRANCH   7  10
HETATM   10  C1  UNK     1      21.182  -9.257  36.245  1.00  0.00     0.189 C 
BRANCH  10  11
HETATM   11  C2  UNK     1      21.656  -8.965  37.643  1.00  0.00    -0.032 A 
HETATM   12  C3  UNK     1      20.868  -9.293  38.738  1.00  0.00    -0.054 A 
HETATM   13  C11 UNK     1      19.533  -9.941  38.571  1.00  0.00     0.049 C 
HETATM   14  C7  UNK     1      21.328  -9.013  40.026  1.00  0.00     0.007 A 
HETATM   15  C16 UNK     1      22.570  -8.406  40.207  1.00  0.00     0.001 A 
HETATM   16  C12 UNK     1      23.354  -8.080  39.100  1.00  0.00     0.001 A 
HETATM   17  C6  UNK     1      22.895  -8.360  37.813  1.00  0.00     0.009 A 
ENDBRANCH  10  11
ENDBRANCH   7  10
ENDBRANCH   2   5
BRANCH   3  18
HETATM   18  C9  UNK     1      19.631  -2.441  35.891  1.00  0.00     0.108 A 
HETATM   19  C13 UNK     1      19.016  -1.912  36.954  1.00  0.00     0.037 A 
HETATM   20  C10 UNK     1      18.357  -0.619  36.853  1.00  0.00    -0.001 A 
HETATM   21  C14 UNK     1      18.380   0.054  35.636  1.00  0.00     0.089 A 
HETATM   22  C18 UNK     1      17.704  -0.029  37.938  1.00  0.00     0.014 A 
HETATM   23  O1  UNK     1      19.028  -0.507  34.520  1.00  0.00    -0.274 OA
HETATM   24  C19 UNK     1      17.768   1.296  35.472  1.00  0.00     0.038 A 
HETATM   25  C17 UNK     1      19.667  -1.742  34.585  1.00  0.00     0.304 A 
HETATM   26  O3  UNK     1      20.228  -2.225  33.608  1.00  0.00    -0.259 OA
HETATM   27  C21 UNK     1      17.118   1.876  36.559  1.00  0.00     0.003 A 
HETATM   28  C20 UNK     1      17.086   1.217  37.789  1.00  0.00     0.001 A 
ENDBRANCH   3  18
TORSDOF 4
ENDMDL
MODEL 9
REMARK VINA RESULT:      -9.4     12.064     14.555
REMARK  4 active torsions:
REMARK  status: ('A' for Active; 'I' for Inactive)
REMARK    1  A    between atoms: C1_7  and  N1_4 
REMARK       I    between atoms: C15_21  and  N3_6 
REMARK    2  A    between atoms: C5_11  and  N3_6 
REMARK    3  A    between atoms: C1_7  and  C2_8 
REMARK    4  A    between atoms: C15_21  and  C9_15 
ROOT
HETATM    1  O2  UNK     1      26.368  -9.181  38.632  1.00  0.00    -0.267 OA
HETATM    2  N3  UNK     1      24.940  -7.321  38.849  1.00  0.00    -0.320 N 
HETATM    3  C15 UNK     1      26.157  -7.972  38.713  1.00  0.00     0.262 C 
HETATM    4  H7  UNK     1      24.920  -6.304  38.883  1.00  0.00     0.169 HD
ENDROOT
BRANCH   2   5
HETATM    5  C5  UNK     1      23.669  -7.907  38.924  1.00  0.00     0.071 A 
HETATM    6  C4  UNK     1      22.958  -8.391  37.876  1.00  0.00     0.143 A 
HETATM    7  N1  UNK     1      21.798  -8.855  38.425  1.00  0.00    -0.275 N 
HETATM    8  N2  UNK     1      21.727  -8.699  39.757  1.00  0.00    -0.183 NA
HETATM    9  C8  UNK     1      22.888  -8.110  40.056  1.00  0.00     0.169 A 
BRANCH   7  10
HETATM   10  C1  UNK     1      20.704  -9.473  37.716  1.00  0.00     0.189 C 
BRANCH  10  11
HETATM   11  C2  UNK     1      19.814  -8.442  37.076  1.00  0.00    -0.032 A 
HETATM   12  C3  UNK     1      20.004  -8.070  35.752  1.00  0.00    -0.054 A 
HETATM   13  C11 UNK     1      21.090  -8.673  34.922  1.00  0.00     0.049 C 
HETATM   14  C7  UNK     1      19.167  -7.112  35.178  1.00  0.00     0.007 A 
HETATM   15  C16 UNK     1      18.147  -6.535  35.934  1.00  0.00     0.001 A 
HETATM   16  C12 UNK     1      17.964  -6.915  37.263  1.00  0.00     0.001 A 
HETATM   17  C6  UNK     1      18.801  -7.872  37.837  1.00  0.00     0.009 A 
ENDBRANCH  10  11
ENDBRANCH   7  10
ENDBRANCH   2   5
BRANCH   3  18
HETATM   18  C9  UNK     1      27.284  -7.033  38.666  1.00  0.00     0.108 A 
HETATM   19  C13 UNK     1      28.501  -7.575  38.543  1.00  0.00     0.037 A 
HETATM   20  C10 UNK     1      29.680  -6.724  38.490  1.00  0.00    -0.001 A 
HETATM   21  C14 UNK     1      29.519  -5.345  38.568  1.00  0.00     0.089 A 
HETATM   22  C18 UNK     1      30.969  -7.246  38.360  1.00  0.00     0.014 A 
HETATM   23  O1  UNK     1      28.235  -4.781  38.698  1.00  0.00    -0.274 OA
HETATM   24  C19 UNK     1      30.607  -4.475  38.523  1.00  0.00     0.038 A 
HETATM   25  C17 UNK     1      27.089  -5.568  38.752  1.00  0.00     0.304 A 
HETATM   26  O3  UNK     1      25.975  -5.068  38.867  1.00  0.00    -0.259 OA
HETATM   27  C21 UNK     1      31.889  -5.004  38.396  1.00  0.00     0.003 A 
HETATM   28  C20 UNK     1      32.071  -6.386  38.314  1.00  0.00     0.001 A 
ENDBRANCH   3  18
TORSDOF 4
ENDMDL
MODEL 10
REMARK VINA RESULT:      -9.3      2.618      9.216
REMARK  4 active torsions:
REMARK  status: ('A' for Active; 'I' for Inactive)
REMARK    1  A    between atoms: C1_7  and  N1_4 
REMARK       I    between atoms: C15_21  and  N3_6 
REMARK    2  A    between atoms: C5_11  and  N3_6 
REMARK    3  A    between atoms: C1_7  and  C2_8 
REMARK    4  A    between atoms: C15_21  and  C9_15 
ROOT
HETATM    1  O2  UNK     1      17.735   2.518  31.828  1.00  0.00    -0.267 OA
HETATM    2  N3  UNK     1      18.342   3.845  33.677  1.00  0.00    -0.320 N 
HETATM    3  C15 UNK     1      18.075   2.664  33.001  1.00  0.00     0.262 C 
HETATM    4  H7  UNK     1      18.634   3.806  34.651  1.00  0.00     0.169 HD
ENDROOT
BRANCH   2   5
HETATM    5  C5  UNK     1      18.281   5.147  33.164  1.00  0.00     0.071 A 
HETATM    6  C4  UNK     1      17.154   5.791  32.772  1.00  0.00     0.143 A 
HETATM    7  N1  UNK     1      17.580   7.016  32.349  1.00  0.00    -0.275 N 
HETATM    8  N2  UNK     1      18.908   7.193  32.447  1.00  0.00    -0.183 NA
HETATM    9  C8  UNK     1      19.333   6.032  32.951  1.00  0.00     0.169 A 
BRANCH   7  10
HETATM   10  C1  UNK     1      16.751   8.079  31.834  1.00  0.00     0.189 C 
BRANCH  10  11
HETATM   11  C2  UNK     1      16.107   8.861  32.946  1.00  0.00    -0.032 A 
HETATM   12  C3  UNK     1      14.789   8.617  33.308  1.00  0.00    -0.054 A 
HETATM   13  C11 UNK     1      13.970   7.579  32.613  1.00  0.00     0.049 C 
HETATM   14  C7  UNK     1      14.211   9.354  34.343  1.00  0.00     0.007 A 
HETATM   15  C16 UNK     1      14.956  10.329  35.005  1.00  0.00     0.001 A 
HETATM   16  C12 UNK     1      16.279  10.567  34.634  1.00  0.00     0.001 A 
HETATM   17  C6  UNK     1      16.857   9.831  33.600  1.00  0.00     0.009 A 
ENDBRANCH  10  11
ENDBRANCH   7  10
ENDBRANCH   2   5
BRANCH   3  18
HETATM   18  C9  UNK     1      18.242   1.486  33.861  1.00  0.00     0.108 A 
HETATM   19  C13 UNK     1      17.931   1.647  35.152  1.00  0.00     0.037 A 
HETATM   20  C10 UNK     1      18.064   0.536  36.082  1.00  0.00    -0.001 A 
HETATM   21  C14 UNK     1      18.518  -0.690  35.606  1.00  0.00     0.089 A 
HETATM   22  C18 UNK     1      17.750   0.658  37.438  1.00  0.00     0.014 A 
HETATM   23  O1  UNK     1      18.845  -0.853  34.246  1.00  0.00    -0.274 OA
HETATM   24  C19 UNK     1      18.669  -1.793  36.445  1.00  0.00     0.038 A 
HETATM   25  C17 UNK     1      18.728   0.190  33.332  1.00  0.00     0.304 A 
HETATM   26  O3  UNK     1      19.015   0.040  32.150  1.00  0.00    -0.259 OA
HETATM   27  C21 UNK     1      18.355  -1.662  37.795  1.00  0.00     0.003 A 
HETATM   28  C20 UNK     1      17.896  -0.440  38.291  1.00  0.00     0.001 A 
ENDBRANCH   3  18
TORSDOF 4
ENDMDL
