MODEL 1
REMARK VINA RESULT:      -8.5      0.000      0.000
REMARK  7 active torsions:
REMARK  status: ('A' for Active; 'I' for Inactive)
REMARK    1  A    between atoms: C13_21  and  O2_2 
REMARK    2  A    between atoms: C15_23  and  O3_3 
REMARK    3  A    between atoms: C5_13  and  N1_5 
REMARK    4  A    between atoms: C6_14  and  N2_6 
REMARK    5  A    between atoms: C11_19  and  C5_13 
REMARK    6  A    between atoms: C12_20  and  C6_14 
REMARK    7  A    between atoms: C20_28  and  C22_30 
ROOT
HETATM    1  O1  UNK     1      29.673  -6.891  37.616  1.00  0.00    -0.308 OA
HETATM    2  O4  UNK     1      27.353  -3.834  38.983  1.00  0.00    -0.287 OA
HETATM    3  C11 UNK     1      27.896  -8.432  37.823  1.00  0.00     0.039 A 
HETATM    4  C12 UNK     1      25.728  -7.730  38.633  1.00  0.00     0.038 A 
HETATM    5  C13 UNK     1      26.576  -8.733  38.160  1.00  0.00     0.087 A 
HETATM    6  C14 UNK     1      28.367  -7.125  37.962  1.00  0.00     0.103 A 
HETATM    7  C15 UNK     1      26.196  -6.423  38.773  1.00  0.00     0.093 A 
HETATM    8  C16 UNK     1      27.518  -6.126  38.435  1.00  0.00     0.082 A 
HETATM    9  C19 UNK     1      28.040  -4.758  38.572  1.00  0.00     0.190 A 
HETATM   10  C20 UNK     1      30.166  -5.600  37.736  1.00  0.00     0.090 A 
HETATM   11  C21 UNK     1      29.451  -4.556  38.185  1.00  0.00     0.094 A 
ENDROOT
BRANCH   3  12
HETATM   12  C5  UNK     1      28.802  -9.513  37.316  1.00  0.00     0.317 C 
BRANCH  12  13
HETATM   13  N1  UNK     1      29.256  -9.247  35.953  1.00  0.00     0.096 N 
HETATM   14  C1  UNK     1      28.316  -9.802  34.972  1.00  0.00     0.303 C 
HETATM   15  C7  UNK     1      28.792  -9.523  33.541  1.00  0.00     0.302 C 
HETATM   16  N3  UNK     1      30.139 -10.067  33.325  1.00  0.00     0.087 N 
HETATM   17  C17 UNK     1      30.593  -9.799  31.962  1.00  0.00     0.310 C 
HETATM   18  C8  UNK     1      31.080  -9.514  34.306  1.00  0.00     0.302 C 
HETATM   19  C2  UNK     1      30.602  -9.791  35.737  1.00  0.00     0.303 C 
ENDBRANCH  12  13
ENDBRANCH   3  12
BRANCH   5  20
HETATM   20  O2  UNK     1      26.112 -10.011  38.025  1.00  0.00    -0.359 OA
HETATM   21  H27 UNK     1      26.035 -10.257  37.090  1.00  0.00     0.217 HD
ENDBRANCH   5  20
BRANCH   4  22
HETATM   22  C6  UNK     1      24.314  -8.062  38.991  1.00  0.00     0.317 C 
BRANCH  22  23
HETATM   23  N2  UNK     1      23.378  -7.718  37.923  1.00  0.00     0.096 N 
HETATM   24  C3  UNK     1      22.261  -6.922  38.447  1.00  0.00     0.303 C 
HETATM   25  C9  UNK     1      21.278  -6.560  37.327  1.00  0.00     0.302 C 
HETATM   26  N4  UNK     1      20.776  -7.770  36.662  1.00  0.00     0.087 N 
HETATM   27  C10 UNK     1      21.892  -8.568  36.141  1.00  0.00     0.302 C 
HETATM   28  C18 UNK     1      19.840  -7.425  35.594  1.00  0.00     0.310 C 
HETATM   29  C4  UNK     1      22.876  -8.928  37.260  1.00  0.00     0.303 C 
ENDBRANCH  22  23
ENDBRANCH   4  22
BRANCH   7  30
HETATM   30  O3  UNK     1      25.341  -5.468  39.238  1.00  0.00    -0.359 OA
HETATM   31  H29 UNK     1      25.649  -5.113  40.085  1.00  0.00     0.217 HD
ENDBRANCH   7  30
BRANCH  10  32
HETATM   32  C22 UNK     1      31.584  -5.460  37.343  1.00  0.00    -0.002 A 
HETATM   33  C23 UNK     1      31.944  -4.588  36.313  1.00  0.00     0.014 A 
HETATM   34  C25 UNK     1      33.281  -4.456  35.942  1.00  0.00     0.001 A 
HETATM   35  C27 UNK     1      34.264  -5.196  36.600  1.00  0.00     0.000 A 
HETATM   36  C26 UNK     1      33.908  -6.068  37.628  1.00  0.00     0.001 A 
HETATM   37  C24 UNK     1      32.570  -6.200  37.999  1.00  0.00     0.014 A 
ENDBRANCH  10  32
TORSDOF 7
ENDMDL
MODEL 2
REMARK VINA RESULT:      -8.2      1.138      1.386
REMARK  7 active torsions:
REMARK  status: ('A' for Active; 'I' for Inactive)
REMARK    1  A    between atoms: C13_21  and  O2_2 
REMARK    2  A    between atoms: C15_23  and  O3_3 
REMARK    3  A    between atoms: C5_13  and  N1_5 
REMARK    4  A    between atoms: C6_14  and  N2_6 
REMARK    5  A    between atoms: C11_19  and  C5_13 
REMARK    6  A    between atoms: C12_20  and  C6_14 
REMARK    7  A    between atoms: C20_28  and  C22_30 
ROOT
HETATM    1  O1  UNK     1      30.234  -6.635  36.838  1.00  0.00    -0.308 OA
HETATM    2  O4  UNK     1      28.146  -3.965  39.098  1.00  0.00    -0.287 OA
HETATM    3  C11 UNK     1      28.561  -8.281  37.101  1.00  0.00     0.039 A 
HETATM    4  C12 UNK     1      26.568  -7.834  38.397  1.00  0.00     0.038 A 
HETATM    5  C13 UNK     1      27.333  -8.701  37.616  1.00  0.00     0.087 A 
HETATM    6  C14 UNK     1      29.021  -6.991  37.370  1.00  0.00     0.103 A 
HETATM    7  C15 UNK     1      27.025  -6.544  38.668  1.00  0.00     0.093 A 
HETATM    8  C16 UNK     1      28.254  -6.127  38.150  1.00  0.00     0.082 A 
HETATM    9  C19 UNK     1      28.763  -4.774  38.420  1.00  0.00     0.190 A 
HETATM   10  C20 UNK     1      30.712  -5.357  37.082  1.00  0.00     0.090 A 
HETATM   11  C21 UNK     1      30.072  -4.438  37.823  1.00  0.00     0.094 A 
ENDROOT
BRANCH   3  12
HETATM   12  C5  UNK     1      29.378  -9.217  36.263  1.00  0.00     0.317 C 
BRANCH  12  13
HETATM   13  N1  UNK     1      28.883  -9.292  34.891  1.00  0.00     0.096 N 
HETATM   14  C1  UNK     1      29.712 -10.196  34.085  1.00  0.00     0.303 C 
HETATM   15  C7  UNK     1      29.193 -10.275  32.645  1.00  0.00     0.302 C 
HETATM   16  N3  UNK     1      29.146  -8.941  32.033  1.00  0.00     0.087 N 
HETATM   17  C17 UNK     1      28.649  -9.018  30.661  1.00  0.00     0.310 C 
HETATM   18  C8  UNK     1      28.318  -8.036  32.838  1.00  0.00     0.302 C 
HETATM   19  C2  UNK     1      28.836  -7.959  34.279  1.00  0.00     0.303 C 
ENDBRANCH  12  13
ENDBRANCH   3  12
BRANCH   5  20
HETATM   20  O2  UNK     1      26.880  -9.963  37.355  1.00  0.00    -0.359 OA
HETATM   21  H27 UNK     1      26.220  -9.955  36.644  1.00  0.00     0.217 HD
ENDBRANCH   5  20
BRANCH   4  22
HETATM   22  C6  UNK     1      25.254  -8.293  38.945  1.00  0.00     0.317 C 
BRANCH  22  23
HETATM   23  N2  UNK     1      24.124  -7.796  38.161  1.00  0.00     0.096 N 
HETATM   24  C3  UNK     1      23.165  -7.091  39.020  1.00  0.00     0.303 C 
HETATM   25  C9  UNK     1      21.980  -6.570  38.200  1.00  0.00     0.302 C 
HETATM   26  N4  UNK     1      21.316  -7.668  37.485  1.00  0.00     0.087 N 
HETATM   27  C10 UNK     1      22.275  -8.375  36.628  1.00  0.00     0.302 C 
HETATM   28  C18 UNK     1      20.187  -7.170  36.702  1.00  0.00     0.310 C 
HETATM   29  C4  UNK     1      23.461  -8.895  37.448  1.00  0.00     0.303 C 
ENDBRANCH  22  23
ENDBRANCH   4  22
BRANCH   7  30
HETATM   30  O3  UNK     1      26.252  -5.723  39.435  1.00  0.00    -0.359 OA
HETATM   31  H29 UNK     1      25.725  -6.236  40.065  1.00  0.00     0.217 HD
ENDBRANCH   7  30
BRANCH  10  32
HETATM   32  C22 UNK     1      32.028  -5.082  36.468  1.00  0.00    -0.002 A 
HETATM   33  C23 UNK     1      32.341  -3.793  36.030  1.00  0.00     0.014 A 
HETATM   34  C25 UNK     1      33.582  -3.532  35.450  1.00  0.00     0.001 A 
HETATM   35  C27 UNK     1      34.515  -4.560  35.306  1.00  0.00     0.000 A 
HETATM   36  C26 UNK     1      34.204  -5.848  35.742  1.00  0.00     0.001 A 
HETATM   37  C24 UNK     1      32.963  -6.109  36.322  1.00  0.00     0.014 A 
ENDBRANCH  10  32
TORSDOF 7
ENDMDL
MODEL 3
REMARK VINA RESULT:      -8.2      3.305      8.358
REMARK  7 active torsions:
REMARK  status: ('A' for Active; 'I' for Inactive)
REMARK    1  A    between atoms: C13_21  and  O2_2 
REMARK    2  A    between atoms: C15_23  and  O3_3 
REMARK    3  A    between atoms: C5_13  and  N1_5 
REMARK    4  A    between atoms: C6_14  and  N2_6 
REMARK    5  A    between atoms: C11_19  and  C5_13 
REMARK    6  A    between atoms: C12_20  and  C6_14 
REMARK    7  A    between atoms: C20_28  and  C22_30 
ROOT
HETATM    1  O1  UNK     1      27.207  -8.605  36.015  1.00  0.00    -0.308 OA
HETATM    2  O4  UNK     1      29.400  -9.594  39.302  1.00  0.00    -0.287 OA
HETATM    3  C11 UNK     1      28.804  -7.000  35.340  1.00  0.00     0.039 A 
HETATM    4  C12 UNK     1      30.807  -6.615  36.639  1.00  0.00     0.038 A 
HETATM    5  C13 UNK     1      30.008  -6.323  35.533  1.00  0.00     0.087 A 
HETATM    6  C14 UNK     1      28.400  -7.972  36.256  1.00  0.00     0.103 A 
HETATM    7  C15 UNK     1      30.406  -7.586  37.557  1.00  0.00     0.093 A 
HETATM    8  C16 UNK     1      29.200  -8.263  37.360  1.00  0.00     0.082 A 
HETATM    9  C19 UNK     1      28.751  -9.291  38.312  1.00  0.00     0.190 A 
HETATM   10  C20 UNK     1      26.785  -9.580  36.904  1.00  0.00     0.090 A 
HETATM   11  C21 UNK     1      27.462  -9.944  38.006  1.00  0.00     0.094 A 
ENDROOT
BRANCH   3  12
HETATM   12  C5  UNK     1      27.950  -6.681  34.150  1.00  0.00     0.317 C 
BRANCH  12  13
HETATM   13  N1  UNK     1      28.598  -7.063  32.897  1.00  0.00     0.096 N 
HETATM   14  C1  UNK     1      28.021  -6.327  31.766  1.00  0.00     0.303 C 
HETATM   15  C7  UNK     1      28.700  -6.728  30.451  1.00  0.00     0.302 C 
HETATM   16  N3  UNK     1      28.593  -8.176  30.228  1.00  0.00     0.087 N 
HETATM   17  C17 UNK     1      29.242  -8.557  28.976  1.00  0.00     0.310 C 
HETATM   18  C8  UNK     1      29.168  -8.912  31.360  1.00  0.00     0.302 C 
HETATM   19  C2  UNK     1      28.491  -8.510  32.675  1.00  0.00     0.303 C 
ENDBRANCH  12  13
ENDBRANCH   3  12
BRANCH   5  20
HETATM   20  O2  UNK     1      30.406  -5.370  34.637  1.00  0.00    -0.359 OA
HETATM   21  H27 UNK     1      30.029  -4.505  34.859  1.00  0.00     0.217 HD
ENDBRANCH   5  20
BRANCH   4  22
HETATM   22  C6  UNK     1      32.097  -5.883  36.838  1.00  0.00     0.317 C 
BRANCH  22  23
HETATM   23  N2  UNK     1      33.066  -6.175  35.784  1.00  0.00     0.096 N 
HETATM   24  C3  UNK     1      33.602  -7.533  35.932  1.00  0.00     0.303 C 
HETATM   25  C9  UNK     1      34.620  -7.841  34.827  1.00  0.00     0.302 C 
HETATM   26  N4  UNK     1      35.710  -6.857  34.833  1.00  0.00     0.087 N 
HETATM   27  C10 UNK     1      35.175  -5.498  34.688  1.00  0.00     0.302 C 
HETATM   28  C18 UNK     1      36.679  -7.149  33.779  1.00  0.00     0.310 C 
HETATM   29  C4  UNK     1      34.156  -5.192  35.791  1.00  0.00     0.303 C 
ENDBRANCH  22  23
ENDBRANCH   4  22
BRANCH   7  30
HETATM   30  O3  UNK     1      31.211  -7.847  38.627  1.00  0.00    -0.359 OA
HETATM   31  H29 UNK     1      31.678  -7.047  38.910  1.00  0.00     0.217 HD
ENDBRANCH   7  30
BRANCH  10  32
HETATM   32  C22 UNK     1      25.487 -10.192  36.553  1.00  0.00    -0.002 A 
HETATM   33  C23 UNK     1      24.315  -9.434  36.613  1.00  0.00     0.014 A 
HETATM   34  C25 UNK     1      23.090 -10.010  36.281  1.00  0.00     0.001 A 
HETATM   35  C27 UNK     1      23.031 -11.347  35.888  1.00  0.00     0.000 A 
HETATM   36  C26 UNK     1      24.200 -12.107  35.827  1.00  0.00     0.001 A 
HETATM   37  C24 UNK     1      25.425 -11.530  36.159  1.00  0.00     0.014 A 
ENDBRANCH  10  32
TORSDOF 7
ENDMDL
MODEL 4
REMARK VINA RESULT:      -8.2     34.133     36.442
REMARK  7 active torsions:
REMARK  status: ('A' for Active; 'I' for Inactive)
REMARK    1  A    between atoms: C13_21  and  O2_2 
REMARK    2  A    between atoms: C15_23  and  O3_3 
REMARK    3  A    between atoms: C5_13  and  N1_5 
REMARK    4  A    between atoms: C6_14  and  N2_6 
REMARK    5  A    between atoms: C11_19  and  C5_13 
REMARK    6  A    between atoms: C12_20  and  C6_14 
REMARK    7  A    between atoms: C20_28  and  C22_30 
ROOT
HETATM    1  O1  UNK     1      12.631   9.106   9.355  1.00  0.00    -0.308 OA
HETATM    2  O4  UNK     1      12.110   5.927   6.861  1.00  0.00    -0.287 OA
HETATM    3  C11 UNK     1      10.342   9.118   9.940  1.00  0.00     0.039 A 
HETATM    4  C12 UNK     1       8.809   7.504   8.996  1.00  0.00     0.038 A 
HETATM    5  C13 UNK     1       9.054   8.594   9.832  1.00  0.00     0.087 A 
HETATM    6  C14 UNK     1      11.386   8.548   9.209  1.00  0.00     0.103 A 
HETATM    7  C15 UNK     1       9.850   6.933   8.263  1.00  0.00     0.093 A 
HETATM    8  C16 UNK     1      11.139   7.460   8.374  1.00  0.00     0.082 A 
HETATM    9  C19 UNK     1      12.256   6.880   7.614  1.00  0.00     0.190 A 
HETATM   10  C20 UNK     1      13.688   8.556   8.647  1.00  0.00     0.090 A 
HETATM   11  C21 UNK     1      13.576   7.514   7.808  1.00  0.00     0.094 A 
ENDROOT
BRANCH   3  12
HETATM   12  C5  UNK     1      10.600  10.288  10.840  1.00  0.00     0.317 C 
BRANCH  12  13
HETATM   13  N1  UNK     1      10.883  11.505  10.083  1.00  0.00     0.096 N 
HETATM   14  C1  UNK     1      11.922  12.302  10.746  1.00  0.00     0.303 C 
HETATM   15  C7  UNK     1      12.220  13.579   9.952  1.00  0.00     0.302 C 
HETATM   16  N3  UNK     1      11.001  14.377   9.771  1.00  0.00     0.087 N 
HETATM   17  C17 UNK     1      11.285  15.594   9.013  1.00  0.00     0.310 C 
HETATM   18  C8  UNK     1       9.960  13.581   9.110  1.00  0.00     0.302 C 
HETATM   19  C2  UNK     1       9.664  12.303   9.903  1.00  0.00     0.303 C 
ENDBRANCH  12  13
ENDBRANCH   3  12
BRANCH   5  20
HETATM   20  O2  UNK     1       8.030   9.149  10.547  1.00  0.00    -0.359 OA
HETATM   21  H27 UNK     1       8.321   9.951  11.008  1.00  0.00     0.217 HD
ENDBRANCH   5  20
BRANCH   4  22
HETATM   22  C6  UNK     1       7.423   6.950   8.886  1.00  0.00     0.317 C 
BRANCH  22  23
HETATM   23  N2  UNK     1       7.141   5.958   9.922  1.00  0.00     0.096 N 
HETATM   24  C3  UNK     1       7.107   4.606   9.352  1.00  0.00     0.303 C 
HETATM   25  C9  UNK     1       6.811   3.565  10.438  1.00  0.00     0.302 C 
HETATM   26  N4  UNK     1       5.545   3.865  11.118  1.00  0.00     0.087 N 
HETATM   27  C10 UNK     1       5.576   5.218  11.685  1.00  0.00     0.302 C 
HETATM   28  C18 UNK     1       5.263   2.874  12.154  1.00  0.00     0.310 C 
HETATM   29  C4  UNK     1       5.874   6.259  10.600  1.00  0.00     0.303 C 
ENDBRANCH  22  23
ENDBRANCH   4  22
BRANCH   7  30
HETATM   30  O3  UNK     1       9.574   5.869   7.456  1.00  0.00    -0.359 OA
HETATM   31  H29 UNK     1       9.279   6.167   6.582  1.00  0.00     0.217 HD
ENDBRANCH   7  30
BRANCH  10  32
HETATM   32  C22 UNK     1      14.980   9.236   8.873  1.00  0.00    -0.002 A 
HETATM   33  C23 UNK     1      15.939   8.659   9.709  1.00  0.00     0.014 A 
HETATM   34  C25 UNK     1      17.159   9.301   9.923  1.00  0.00     0.001 A 
HETATM   35  C27 UNK     1      17.423  10.522   9.303  1.00  0.00     0.000 A 
HETATM   36  C26 UNK     1      16.467  11.100   8.468  1.00  0.00     0.001 A 
HETATM   37  C24 UNK     1      15.248  10.459   8.254  1.00  0.00     0.014 A 
ENDBRANCH  10  32
TORSDOF 7
ENDMDL
MODEL 5
REMARK VINA RESULT:      -8.0      3.099      8.061
REMARK  7 active torsions:
REMARK  status: ('A' for Active; 'I' for Inactive)
REMARK    1  A    between atoms: C13_21  and  O2_2 
REMARK    2  A    between atoms: C15_23  and  O3_3 
REMARK    3  A    between atoms: C5_13  and  N1_5 
REMARK    4  A    between atoms: C6_14  and  N2_6 
REMARK    5  A    between atoms: C11_19  and  C5_13 
REMARK    6  A    between atoms: C12_20  and  C6_14 
REMARK    7  A    between atoms: C20_28  and  C22_30 
ROOT
HETATM    1  O1  UNK     1      27.658  -9.859  36.089  1.00  0.00    -0.308 OA
HETATM    2  O4  UNK     1      28.023  -7.360  39.286  1.00  0.00    -0.287 OA
HETATM    3  C11 UNK     1      29.930  -9.572  35.509  1.00  0.00     0.039 A 
HETATM    4  C12 UNK     1      31.376  -8.142  36.817  1.00  0.00     0.038 A 
HETATM    5  C13 UNK     1      31.184  -9.005  35.738  1.00  0.00     0.087 A 
HETATM    6  C14 UNK     1      28.867  -9.272  36.364  1.00  0.00     0.103 A 
HETATM    7  C15 UNK     1      30.316  -7.840  37.673  1.00  0.00     0.093 A 
HETATM    8  C16 UNK     1      29.062  -8.410  37.441  1.00  0.00     0.082 A 
HETATM    9  C19 UNK     1      27.925  -8.110  38.325  1.00  0.00     0.190 A 
HETATM   10  C20 UNK     1      26.586  -9.586  36.925  1.00  0.00     0.090 A 
HETATM   11  C21 UNK     1      26.646  -8.768  37.988  1.00  0.00     0.094 A 
ENDROOT
BRANCH   3  12
HETATM   12  C5  UNK     1      29.730 -10.498  34.348  1.00  0.00     0.317 C 
BRANCH  12  13
HETATM   13  N1  UNK     1      29.893  -9.812  33.069  1.00  0.00     0.096 N 
HETATM   14  C1  UNK     1      28.705  -9.011  32.751  1.00  0.00     0.303 C 
HETATM   15  C7  UNK     1      28.875  -8.290  31.409  1.00  0.00     0.302 C 
HETATM   16  N3  UNK     1      29.149  -9.251  30.332  1.00  0.00     0.087 N 
HETATM   17  C17 UNK     1      29.314  -8.563  29.053  1.00  0.00     0.310 C 
HETATM   18  C8  UNK     1      30.336 -10.053  30.650  1.00  0.00     0.302 C 
HETATM   19  C2  UNK     1      30.167 -10.772  31.993  1.00  0.00     0.303 C 
ENDBRANCH  12  13
ENDBRANCH   3  12
BRANCH   5  20
HETATM   20  O2  UNK     1      32.226  -9.296  34.904  1.00  0.00    -0.359 OA
HETATM   21  H27 UNK     1      32.185 -10.217  34.604  1.00  0.00     0.217 HD
ENDBRANCH   5  20
BRANCH   4  22
HETATM   22  C6  UNK     1      32.725  -7.538  37.054  1.00  0.00     0.317 C 
BRANCH  22  23
HETATM   23  N2  UNK     1      33.018  -6.456  36.117  1.00  0.00     0.096 N 
HETATM   24  C3  UNK     1      34.422  -6.503  35.689  1.00  0.00     0.303 C 
HETATM   25  C9  UNK     1      34.730  -5.367  34.707  1.00  0.00     0.302 C 
HETATM   26  N4  UNK     1      34.421  -4.062  35.304  1.00  0.00     0.087 N 
HETATM   27  C10 UNK     1      33.019  -4.014  35.735  1.00  0.00     0.302 C 
HETATM   28  C18 UNK     1      34.714  -2.980  34.367  1.00  0.00     0.310 C 
HETATM   29  C4  UNK     1      32.710  -5.151  36.715  1.00  0.00     0.303 C 
ENDBRANCH  22  23
ENDBRANCH   4  22
BRANCH   7  30
HETATM   30  O3  UNK     1      30.539  -6.992  38.718  1.00  0.00    -0.359 OA
HETATM   31  H29 UNK     1      30.845  -7.479  39.497  1.00  0.00     0.217 HD
ENDBRANCH   7  30
BRANCH  10  32
HETATM   32  C22 UNK     1      25.333 -10.263  36.535  1.00  0.00    -0.002 A 
HETATM   33  C23 UNK     1      25.353 -11.604  36.143  1.00  0.00     0.014 A 
HETATM   34  C25 UNK     1      24.170 -12.244  35.775  1.00  0.00     0.001 A 
HETATM   35  C27 UNK     1      22.963 -11.545  35.796  1.00  0.00     0.000 A 
HETATM   36  C26 UNK     1      22.940 -10.206  36.186  1.00  0.00     0.001 A 
HETATM   37  C24 UNK     1      24.123  -9.566  36.554  1.00  0.00     0.014 A 
ENDBRANCH  10  32
TORSDOF 7
ENDMDL
MODEL 6
REMARK VINA RESULT:      -8.0      4.194      9.583
REMARK  7 active torsions:
REMARK  status: ('A' for Active; 'I' for Inactive)
REMARK    1  A    between atoms: C13_21  and  O2_2 
REMARK    2  A    between atoms: C15_23  and  O3_3 
REMARK    3  A    between atoms: C5_13  and  N1_5 
REMARK    4  A    between atoms: C6_14  and  N2_6 
REMARK    5  A    between atoms: C11_19  and  C5_13 
REMARK    6  A    between atoms: C12_20  and  C6_14 
REMARK    7  A    between atoms: C20_28  and  C22_30 
ROOT
HETATM    1  O1  UNK     1      30.945  -8.699  36.209  1.00  0.00    -0.308 OA
HETATM    2  O4  UNK     1      34.351  -7.091  37.761  1.00  0.00    -0.287 OA
HETATM    3  C11 UNK     1      31.961  -9.005  34.099  1.00  0.00     0.039 A 
HETATM    4  C12 UNK     1      34.260  -8.358  33.720  1.00  0.00     0.038 A 
HETATM    5  C13 UNK     1      33.062  -8.898  33.250  1.00  0.00     0.087 A 
HETATM    6  C14 UNK     1      32.060  -8.569  35.422  1.00  0.00     0.103 A 
HETATM    7  C15 UNK     1      34.362  -7.921  35.041  1.00  0.00     0.093 A 
HETATM    8  C16 UNK     1      33.257  -8.029  35.889  1.00  0.00     0.082 A 
HETATM    9  C19 UNK     1      33.334  -7.576  37.286  1.00  0.00     0.190 A 
HETATM   10  C20 UNK     1      31.016  -8.281  37.530  1.00  0.00     0.090 A 
HETATM   11  C21 UNK     1      32.108  -7.740  38.093  1.00  0.00     0.094 A 
ENDROOT
BRANCH   3  12
HETATM   12  C5  UNK     1      30.677  -9.587  33.588  1.00  0.00     0.317 C 
BRANCH  12  13
HETATM   13  N1  UNK     1      29.955  -8.647  32.735  1.00  0.00     0.096 N 
HETATM   14  C1  UNK     1      28.819  -8.056  33.453  1.00  0.00     0.303 C 
HETATM   15  C7  UNK     1      28.060  -7.069  32.558  1.00  0.00     0.302 C 
HETATM   16  N3  UNK     1      27.603  -7.727  31.327  1.00  0.00     0.087 N 
HETATM   17  C17 UNK     1      26.882  -6.785  30.474  1.00  0.00     0.310 C 
HETATM   18  C8  UNK     1      28.737  -8.319  30.609  1.00  0.00     0.302 C 
HETATM   19  C2  UNK     1      29.498  -9.304  31.505  1.00  0.00     0.303 C 
ENDBRANCH  12  13
ENDBRANCH   3  12
BRANCH   5  20
HETATM   20  O2  UNK     1      32.969  -9.324  31.955  1.00  0.00    -0.359 OA
HETATM   21  H27 UNK     1      32.600 -10.220  31.909  1.00  0.00     0.217 HD
ENDBRANCH   5  20
BRANCH   4  22
HETATM   22  C6  UNK     1      35.435  -8.247  32.801  1.00  0.00     0.317 C 
BRANCH  22  23
HETATM   23  N2  UNK     1      36.086  -9.537  32.579  1.00  0.00     0.096 N 
HETATM   24  C3  UNK     1      37.360  -9.609  33.306  1.00  0.00     0.303 C 
HETATM   25  C9  UNK     1      38.044 -10.961  33.073  1.00  0.00     0.302 C 
HETATM   26  N4  UNK     1      38.259 -11.198  31.640  1.00  0.00     0.087 N 
HETATM   27  C10 UNK     1      36.988 -11.123  30.912  1.00  0.00     0.302 C 
HETATM   28  C18 UNK     1      38.910 -12.488  31.419  1.00  0.00     0.310 C 
HETATM   29  C4  UNK     1      36.302  -9.772  31.146  1.00  0.00     0.303 C 
ENDBRANCH  22  23
ENDBRANCH   4  22
BRANCH   7  30
HETATM   30  O3  UNK     1      35.547  -7.397  35.467  1.00  0.00    -0.359 OA
HETATM   31  H29 UNK     1      35.778  -7.737  36.344  1.00  0.00     0.217 HD
ENDBRANCH   7  30
BRANCH  10  32
HETATM   32  C22 UNK     1      29.759  -8.460  38.285  1.00  0.00    -0.002 A 
HETATM   33  C23 UNK     1      29.346  -9.739  38.666  1.00  0.00     0.014 A 
HETATM   34  C25 UNK     1      28.160  -9.908  39.379  1.00  0.00     0.001 A 
HETATM   35  C27 UNK     1      27.381  -8.800  39.712  1.00  0.00     0.000 A 
HETATM   36  C26 UNK     1      27.791  -7.522  39.332  1.00  0.00     0.001 A 
HETATM   37  C24 UNK     1      28.977  -7.352  38.619  1.00  0.00     0.014 A 
ENDBRANCH  10  32
TORSDOF 7
ENDMDL
MODEL 7
REMARK VINA RESULT:      -7.9      5.782     11.498
REMARK  7 active torsions:
REMARK  status: ('A' for Active; 'I' for Inactive)
REMARK    1  A    between atoms: C13_21  and  O2_2 
REMARK    2  A    between atoms: C15_23  and  O3_3 
REMARK    3  A    between atoms: C5_13  and  N1_5 
REMARK    4  A    between atoms: C6_14  and  N2_6 
REMARK    5  A    between atoms: C11_19  and  C5_13 
REMARK    6  A    between atoms: C12_20  and  C6_14 
REMARK    7  A    between atoms: C20_28  and  C22_30 
ROOT
HETATM    1  O1  UNK     1      31.511  -8.207  31.531  1.00  0.00    -0.308 OA
HETATM    2  O4  UNK     1      33.876  -8.080  28.217  1.00  0.00    -0.287 OA
HETATM    3  C11 UNK     1      33.354  -8.708  32.920  1.00  0.00     0.039 A 
HETATM    4  C12 UNK     1      35.582  -8.920  32.003  1.00  0.00     0.038 A 
HETATM    5  C13 UNK     1      34.717  -8.950  33.097  1.00  0.00     0.087 A 
HETATM    6  C14 UNK     1      32.858  -8.436  31.644  1.00  0.00     0.103 A 
HETATM    7  C15 UNK     1      35.089  -8.648  30.726  1.00  0.00     0.093 A 
HETATM    8  C16 UNK     1      33.724  -8.407  30.552  1.00  0.00     0.082 A 
HETATM    9  C19 UNK     1      33.175  -8.119  29.218  1.00  0.00     0.190 A 
HETATM   10  C20 UNK     1      30.991  -7.927  30.277  1.00  0.00     0.090 A 
HETATM   11  C21 UNK     1      31.720  -7.877  29.150  1.00  0.00     0.094 A 
ENDROOT
BRANCH   3  12
HETATM   12  C5  UNK     1      32.431  -8.742  34.100  1.00  0.00     0.317 C 
BRANCH  12  13
HETATM   13  N1  UNK     1      32.169  -7.404  34.625  1.00  0.00     0.096 N 
HETATM   14  C1  UNK     1      32.984  -7.142  35.817  1.00  0.00     0.303 C 
HETATM   15  C7  UNK     1      32.709  -5.738  36.368  1.00  0.00     0.302 C 
HETATM   16  N3  UNK     1      31.283  -5.567  36.675  1.00  0.00     0.087 N 
HETATM   17  C17 UNK     1      31.022  -4.228  37.198  1.00  0.00     0.310 C 
HETATM   18  C8  UNK     1      30.467  -5.831  35.484  1.00  0.00     0.302 C 
HETATM   19  C2  UNK     1      30.743  -7.233  34.931  1.00  0.00     0.303 C 
ENDBRANCH  12  13
ENDBRANCH   3  12
BRANCH   5  20
HETATM   20  O2  UNK     1      35.206  -9.216  34.345  1.00  0.00    -0.359 OA
HETATM   21  H27 UNK     1      35.588  -8.420  34.747  1.00  0.00     0.217 HD
ENDBRANCH   5  20
BRANCH   4  22
HETATM   22  C6  UNK     1      37.042  -9.180  32.203  1.00  0.00     0.317 C 
BRANCH  22  23
HETATM   23  N2  UNK     1      37.375 -10.596  32.057  1.00  0.00     0.096 N 
HETATM   24  C3  UNK     1      37.796 -11.167  33.342  1.00  0.00     0.303 C 
HETATM   25  C9  UNK     1      38.146 -12.651  33.191  1.00  0.00     0.302 C 
HETATM   26  N4  UNK     1      39.194 -12.840  32.180  1.00  0.00     0.087 N 
HETATM   27  C10 UNK     1      38.776 -12.267  30.895  1.00  0.00     0.302 C 
HETATM   28  C18 UNK     1      39.527 -14.255  32.034  1.00  0.00     0.310 C 
HETATM   29  C4  UNK     1      38.424 -10.783  31.047  1.00  0.00     0.303 C 
ENDBRANCH  22  23
ENDBRANCH   4  22
BRANCH   7  30
HETATM   30  O3  UNK     1      35.962  -8.627  29.678  1.00  0.00    -0.359 OA
HETATM   31  H29 UNK     1      35.710  -7.950  29.033  1.00  0.00     0.217 HD
ENDBRANCH   7  30
BRANCH  10  32
HETATM   32  C22 UNK     1      29.531  -7.703  30.269  1.00  0.00    -0.002 A 
HETATM   33  C23 UNK     1      28.657  -8.777  30.081  1.00  0.00     0.014 A 
HETATM   34  C25 UNK     1      27.279  -8.566  30.073  1.00  0.00     0.001 A 
HETATM   35  C27 UNK     1      26.769  -7.280  30.253  1.00  0.00     0.000 A 
HETATM   36  C26 UNK     1      27.638  -6.205  30.440  1.00  0.00     0.001 A 
HETATM   37  C24 UNK     1      29.017  -6.416  30.448  1.00  0.00     0.014 A 
ENDBRANCH  10  32
TORSDOF 7
ENDMDL
MODEL 8
REMARK VINA RESULT:      -7.8     33.295     35.559
REMARK  7 active torsions:
REMARK  status: ('A' for Active; 'I' for Inactive)
REMARK    1  A    between atoms: C13_21  and  O2_2 
REMARK    2  A    between atoms: C15_23  and  O3_3 
REMARK    3  A    between atoms: C5_13  and  N1_5 
REMARK    4  A    between atoms: C6_14  and  N2_6 
REMARK    5  A    between atoms: C11_19  and  C5_13 
REMARK    6  A    between atoms: C12_20  and  C6_14 
REMARK    7  A    between atoms: C20_28  and  C22_30 
ROOT
HETATM    1  O1  UNK     1      12.708   9.266   9.327  1.00  0.00    -0.308 OA
HETATM    2  O4  UNK     1      12.250   5.655   7.496  1.00  0.00    -0.287 OA
HETATM    3  C11 UNK     1      10.406   9.379   9.845  1.00  0.00     0.039 A 
HETATM    4  C12 UNK     1       8.897   7.602   9.203  1.00  0.00     0.038 A 
HETATM    5  C13 UNK     1       9.121   8.837   9.813  1.00  0.00     0.087 A 
HETATM    6  C14 UNK     1      11.468   8.683   9.265  1.00  0.00     0.103 A 
HETATM    7  C15 UNK     1       9.956   6.904   8.621  1.00  0.00     0.093 A 
HETATM    8  C16 UNK     1      11.241   7.450   8.655  1.00  0.00     0.082 A 
HETATM    9  C19 UNK     1      12.377   6.738   8.049  1.00  0.00     0.190 A 
HETATM   10  C20 UNK     1      13.782   8.593   8.765  1.00  0.00     0.090 A 
HETATM   11  C21 UNK     1      13.691   7.406   8.145  1.00  0.00     0.094 A 
ENDROOT
BRANCH   3  12
HETATM   12  C5  UNK     1      10.641  10.706  10.503  1.00  0.00     0.317 C 
BRANCH  12  13
HETATM   13  N1  UNK     1      10.684  10.591  11.959  1.00  0.00     0.096 N 
HETATM   14  C1  UNK     1      10.009  11.731  12.592  1.00  0.00     0.303 C 
HETATM   15  C7  UNK     1      10.054  11.612  14.120  1.00  0.00     0.302 C 
HETATM   16  N3  UNK     1      11.440  11.508  14.594  1.00  0.00     0.087 N 
HETATM   17  C17 UNK     1      11.481  11.393  16.051  1.00  0.00     0.310 C 
HETATM   18  C8  UNK     1      12.116  10.371  13.961  1.00  0.00     0.302 C 
HETATM   19  C2  UNK     1      12.069  10.488  12.433  1.00  0.00     0.303 C 
ENDBRANCH  12  13
ENDBRANCH   3  12
BRANCH   5  20
HETATM   20  O2  UNK     1       8.080   9.515  10.381  1.00  0.00    -0.359 OA
HETATM   21  H27 UNK     1       7.571   9.997   9.710  1.00  0.00     0.217 HD
ENDBRANCH   5  20
BRANCH   4  22
HETATM   22  C6  UNK     1       7.515   7.029   9.173  1.00  0.00     0.317 C 
BRANCH  22  23
HETATM   23  N2  UNK     1       7.273   6.112  10.284  1.00  0.00     0.096 N 
HETATM   24  C3  UNK     1       6.844   4.798   9.791  1.00  0.00     0.303 C 
HETATM   25  C9  UNK     1       6.589   3.835  10.957  1.00  0.00     0.302 C 
HETATM   26  N4  UNK     1       5.590   4.386  11.880  1.00  0.00     0.087 N 
HETATM   27  C10 UNK     1       6.017   5.701  12.372  1.00  0.00     0.302 C 
HETATM   28  C18 UNK     1       5.349   3.469  12.992  1.00  0.00     0.310 C 
HETATM   29  C4  UNK     1       6.273   6.663  11.207  1.00  0.00     0.303 C 
ENDBRANCH  22  23
ENDBRANCH   4  22
BRANCH   7  30
HETATM   30  O3  UNK     1       9.701   5.701   8.032  1.00  0.00    -0.359 OA
HETATM   31  H29 UNK     1       9.503   5.026   8.699  1.00  0.00     0.217 HD
ENDBRANCH   7  30
BRANCH  10  32
HETATM   32  C22 UNK     1      15.068   9.312   8.882  1.00  0.00    -0.002 A 
HETATM   33  C23 UNK     1      16.092   8.793   9.678  1.00  0.00     0.014 A 
HETATM   34  C25 UNK     1      17.305   9.471   9.789  1.00  0.00     0.001 A 
HETATM   35  C27 UNK     1      17.498  10.672   9.105  1.00  0.00     0.000 A 
HETATM   36  C26 UNK     1      16.478  11.193   8.311  1.00  0.00     0.001 A 
HETATM   37  C24 UNK     1      15.265  10.515   8.199  1.00  0.00     0.014 A 
ENDBRANCH  10  32
TORSDOF 7
ENDMDL
MODEL 9
REMARK VINA RESULT:      -7.7      4.347      9.556
REMARK  7 active torsions:
REMARK  status: ('A' for Active; 'I' for Inactive)
REMARK    1  A    between atoms: C13_21  and  O2_2 
REMARK    2  A    between atoms: C15_23  and  O3_3 
REMARK    3  A    between atoms: C5_13  and  N1_5 
REMARK    4  A    between atoms: C6_14  and  N2_6 
REMARK    5  A    between atoms: C11_19  and  C5_13 
REMARK    6  A    between atoms: C12_20  and  C6_14 
REMARK    7  A    between atoms: C20_28  and  C22_30 
ROOT
HETATM    1  O1  UNK     1      31.095  -6.681  35.201  1.00  0.00    -0.308 OA
HETATM    2  O4  UNK     1      34.610  -4.681  35.685  1.00  0.00    -0.287 OA
HETATM    3  C11 UNK     1      31.923  -7.834  33.313  1.00  0.00     0.039 A 
HETATM    4  C12 UNK     1      34.174  -7.456  32.514  1.00  0.00     0.038 A 
HETATM    5  C13 UNK     1      32.945  -8.107  32.403  1.00  0.00     0.087 A 
HETATM    6  C14 UNK     1      32.135  -6.908  34.336  1.00  0.00     0.103 A 
HETATM    7  C15 UNK     1      34.389  -6.530  33.535  1.00  0.00     0.093 A 
HETATM    8  C16 UNK     1      33.364  -6.260  34.445  1.00  0.00     0.082 A 
HETATM    9  C19 UNK     1      33.560  -5.288  35.531  1.00  0.00     0.190 A 
HETATM   10  C20 UNK     1      31.279  -5.772  36.231  1.00  0.00     0.090 A 
HETATM   11  C21 UNK     1      32.411  -5.081  36.436  1.00  0.00     0.094 A 
ENDROOT
BRANCH   3  12
HETATM   12  C5  UNK     1      30.605  -8.536  33.188  1.00  0.00     0.317 C 
BRANCH  12  13
HETATM   13  N1  UNK     1      29.697  -7.833  32.286  1.00  0.00     0.096 N 
HETATM   14  C1  UNK     1      28.589  -7.223  33.031  1.00  0.00     0.303 C 
HETATM   15  C7  UNK     1      27.635  -6.484  32.084  1.00  0.00     0.302 C 
HETATM   16  N3  UNK     1      27.120  -7.392  31.051  1.00  0.00     0.087 N 
HETATM   17  C17 UNK     1      26.212  -6.687  30.148  1.00  0.00     0.310 C 
HETATM   18  C8  UNK     1      28.226  -8.004  30.307  1.00  0.00     0.302 C 
HETATM   19  C2  UNK     1      29.181  -8.740  31.254  1.00  0.00     0.303 C 
ENDBRANCH  12  13
ENDBRANCH   3  12
BRANCH   5  20
HETATM   20  O2  UNK     1      32.741  -9.012  31.400  1.00  0.00    -0.359 OA
HETATM   21  H27 UNK     1      32.469  -8.569  30.581  1.00  0.00     0.217 HD
ENDBRANCH   5  20
BRANCH   4  22
HETATM   22  C6  UNK     1      35.263  -7.755  31.532  1.00  0.00     0.317 C 
BRANCH  22  23
HETATM   23  N2  UNK     1      35.911  -9.038  31.798  1.00  0.00     0.096 N 
HETATM   24  C3  UNK     1      37.033  -8.871  32.730  1.00  0.00     0.303 C 
HETATM   25  C9  UNK     1      37.713 -10.216  33.009  1.00  0.00     0.302 C 
HETATM   26  N4  UNK     1      38.172 -10.838  31.761  1.00  0.00     0.087 N 
HETATM   27  C10 UNK     1      37.052 -11.003  30.827  1.00  0.00     0.302 C 
HETATM   28  C18 UNK     1      38.819 -12.122  32.027  1.00  0.00     0.310 C 
HETATM   29  C4  UNK     1      36.370  -9.658  30.550  1.00  0.00     0.303 C 
ENDBRANCH  22  23
ENDBRANCH   4  22
BRANCH   7  30
HETATM   30  O3  UNK     1      35.602  -5.913  33.614  1.00  0.00    -0.359 OA
HETATM   31  H29 UNK     1      36.008  -6.059  34.482  1.00  0.00     0.217 HD
ENDBRANCH   7  30
BRANCH  10  32
HETATM   32  C22 UNK     1      30.095  -5.600  37.098  1.00  0.00    -0.002 A 
HETATM   33  C23 UNK     1      29.058  -6.535  37.063  1.00  0.00     0.014 A 
HETATM   34  C25 UNK     1      27.940  -6.373  37.881  1.00  0.00     0.001 A 
HETATM   35  C27 UNK     1      27.855  -5.274  38.736  1.00  0.00     0.000 A 
HETATM   36  C26 UNK     1      28.888  -4.338  38.773  1.00  0.00     0.001 A 
HETATM   37  C24 UNK     1      30.006  -4.501  37.955  1.00  0.00     0.014 A 
ENDBRANCH  10  32
TORSDOF 7
ENDMDL
MODEL 10
REMARK VINA RESULT:      -7.6      4.660      9.919
REMARK  7 active torsions:
REMARK  status: ('A' for Active; 'I' for Inactive)
REMARK    1  A    between atoms: C13_21  and  O2_2 
REMARK    2  A    between atoms: C15_23  and  O3_3 
REMARK    3  A    between atoms: C5_13  and  N1_5 
REMARK    4  A    between atoms: C6_14  and  N2_6 
REMARK    5  A    between atoms: C11_19  and  C5_13 
REMARK    6  A    between atoms: C12_20  and  C6_14 
REMARK    7  A    between atoms: C20_28  and  C22_30 
ROOT
HETATM    1  O1  UNK     1      32.192  -7.564  35.839  1.00  0.00    -0.308 OA
HETATM    2  O4  UNK     1      35.854  -5.791  36.043  1.00  0.00    -0.287 OA
HETATM    3  C11 UNK     1      32.916  -9.037  34.140  1.00  0.00     0.039 A 
HETATM    4  C12 UNK     1      35.183  -8.952  33.303  1.00  0.00     0.038 A 
HETATM    5  C13 UNK     1      33.906  -9.515  33.282  1.00  0.00     0.087 A 
HETATM    6  C14 UNK     1      33.205  -7.992  35.020  1.00  0.00     0.103 A 
HETATM    7  C15 UNK     1      35.476  -7.908  34.181  1.00  0.00     0.093 A 
HETATM    8  C16 UNK     1      34.481  -7.431  35.039  1.00  0.00     0.082 A 
HETATM    9  C19 UNK     1      34.760  -6.331  35.975  1.00  0.00     0.190 A 
HETATM   10  C20 UNK     1      32.453  -6.533  36.729  1.00  0.00     0.090 A 
HETATM   11  C21 UNK     1      33.637  -5.908  36.836  1.00  0.00     0.094 A 
ENDROOT
BRANCH   3  12
HETATM   12  C5  UNK     1      31.547  -9.646  34.113  1.00  0.00     0.317 C 
BRANCH  12  13
HETATM   13  N1  UNK     1      30.706  -9.051  33.077  1.00  0.00     0.096 N 
HETATM   14  C1  UNK     1      29.535  -8.393  33.668  1.00  0.00     0.303 C 
HETATM   15  C7  UNK     1      28.653  -7.769  32.581  1.00  0.00     0.302 C 
HETATM   16  N3  UNK     1      28.233  -8.782  31.604  1.00  0.00     0.087 N 
HETATM   17  C17 UNK     1      27.394  -8.185  30.567  1.00  0.00     0.310 C 
HETATM   18  C8  UNK     1      29.403  -9.441  31.013  1.00  0.00     0.302 C 
HETATM   19  C2  UNK     1      30.287 -10.063  32.101  1.00  0.00     0.303 C 
ENDBRANCH  12  13
ENDBRANCH   3  12
BRANCH   5  20
HETATM   20  O2  UNK     1      33.626 -10.537  32.420  1.00  0.00    -0.359 OA
HETATM   21  H27 UNK     1      32.931 -10.283  31.793  1.00  0.00     0.217 HD
ENDBRANCH   5  20
BRANCH   4  22
HETATM   22  C6  UNK     1      36.239  -9.472  32.379  1.00  0.00     0.317 C 
BRANCH  22  23
HETATM   23  N2  UNK     1      37.251 -10.256  33.082  1.00  0.00     0.096 N 
HETATM   24  C3  UNK     1      38.473 -10.371  32.276  1.00  0.00     0.303 C 
HETATM   25  C9  UNK     1      39.536 -11.194  33.012  1.00  0.00     0.302 C 
HETATM   26  N4  UNK     1      39.022 -12.526  33.354  1.00  0.00     0.087 N 
HETATM   27  C10 UNK     1      37.799 -12.413  34.157  1.00  0.00     0.302 C 
HETATM   28  C18 UNK     1      40.035 -13.310  34.057  1.00  0.00     0.310 C 
HETATM   29  C4  UNK     1      36.736 -11.588  33.422  1.00  0.00     0.303 C 
ENDBRANCH  22  23
ENDBRANCH   4  22
BRANCH   7  30
HETATM   30  O3  UNK     1      36.733  -7.381  34.175  1.00  0.00    -0.359 OA
HETATM   31  H29 UNK     1      37.396  -8.068  34.337  1.00  0.00     0.217 HD
ENDBRANCH   7  30
BRANCH  10  32
HETATM   32  C22 UNK     1      31.292  -6.147  37.557  1.00  0.00    -0.002 A 
HETATM   33  C23 UNK     1      30.356  -7.109  37.945  1.00  0.00     0.014 A 
HETATM   34  C25 UNK     1      29.260  -6.745  38.726  1.00  0.00     0.001 A 
HETATM   35  C27 UNK     1      29.096  -5.417  39.123  1.00  0.00     0.000 A 
HETATM   36  C26 UNK     1      30.029  -4.455  38.738  1.00  0.00     0.001 A 
HETATM   37  C24 UNK     1      31.125  -4.819  37.956  1.00  0.00     0.014 A 
ENDBRANCH  10  32
TORSDOF 7
ENDMDL
