MODEL 1
REMARK VINA RESULT:      -9.2      0.000      0.000
REMARK  3 active torsions:
REMARK  status: ('A' for Active; 'I' for Inactive)
REMARK    1  A    between atoms: C21_27  and  O4_4 
REMARK    2  A    between atoms: C1_7  and  C8_14 
REMARK    3  A    between atoms: C6_12  and  C9_15 
ROOT
HETATM    1  O1  UNK     1      34.303  -6.206  35.788  1.00  0.00    -0.293 OA
HETATM    2  N1  UNK     1      31.287  -8.431  32.754  1.00  0.00    -0.357 N 
HETATM    3  N2  UNK     1      30.724  -5.764  34.019  1.00  0.00    -0.375 N 
HETATM    4  C1  UNK     1      35.005  -8.197  32.873  1.00  0.00     0.031 C 
HETATM    5  C2  UNK     1      33.652  -8.898  32.733  1.00  0.00     0.067 C 
HETATM    6  C3  UNK     1      32.707  -7.192  34.307  1.00  0.00     0.037 C 
HETATM    7  C4  UNK     1      35.233  -7.838  34.335  1.00  0.00     0.093 C 
HETATM    8  C5  UNK     1      32.502  -8.095  33.323  1.00  0.00     0.022 C 
HETATM    9  C6  UNK     1      31.613  -6.399  34.978  1.00  0.00     0.160 C 
HETATM   10  C7  UNK     1      34.095  -6.996  34.865  1.00  0.00     0.160 C 
HETATM   11  C10 UNK     1      30.079  -7.715  32.645  1.00  0.00     0.059 A 
HETATM   12  C11 UNK     1      29.847  -6.438  33.182  1.00  0.00     0.055 A 
HETATM   13  C16 UNK     1      29.055  -8.324  31.881  1.00  0.00     0.032 A 
HETATM   14  C17 UNK     1      28.618  -5.800  32.895  1.00  0.00     0.031 A 
HETATM   15  C22 UNK     1      27.845  -7.682  31.627  1.00  0.00     0.002 A 
HETATM   16  C23 UNK     1      27.629  -6.411  32.127  1.00  0.00     0.002 A 
HETATM   17  H7  UNK     1      31.302  -9.300  32.229  1.00  0.00     0.166 HD
HETATM   18  H8  UNK     1      30.516  -4.784  34.190  1.00  0.00     0.160 HD
ENDROOT
BRANCH   9  19
HETATM   19  C9  UNK     1      30.838  -7.201  35.981  1.00  0.00     0.042 A 
HETATM   20  C14 UNK     1      29.894  -6.490  36.879  1.00  0.00     0.195 A 
HETATM   21  O3  UNK     1      29.731  -5.278  36.824  1.00  0.00    -0.287 OA
HETATM   22  C18 UNK     1      29.157  -7.325  37.846  1.00  0.00     0.048 A 
HETATM   23  C24 UNK     1      29.382  -8.702  37.862  1.00  0.00     0.089 A 
HETATM   24  C25 UNK     1      28.245  -6.751  38.735  1.00  0.00     0.018 A 
HETATM   25  O2  UNK     1      30.265  -9.319  37.013  1.00  0.00    -0.321 OA
HETATM   26  C26 UNK     1      28.696  -9.512  38.769  1.00  0.00     0.038 A 
HETATM   27  C15 UNK     1      30.945  -8.528  36.118  1.00  0.00     0.156 A 
HETATM   28  C28 UNK     1      27.785  -8.940  39.657  1.00  0.00     0.003 A 
HETATM   29  C27 UNK     1      27.560  -7.562  39.640  1.00  0.00     0.001 A 
ENDBRANCH   9  19
BRANCH   4  30
HETATM   30  C8  UNK     1      36.142  -9.023  32.301  1.00  0.00    -0.053 A 
HETATM   31  C12 UNK     1      36.127  -9.390  30.958  1.00  0.00     0.010 A 
HETATM   32  C19 UNK     1      37.172 -10.152  30.434  1.00  0.00     0.037 A 
HETATM   33  C21 UNK     1      38.228 -10.545  31.255  1.00  0.00     0.068 A 
HETATM   34  C20 UNK     1      38.241 -10.176  32.599  1.00  0.00     0.037 A 
HETATM   35  C13 UNK     1      37.197  -9.414  33.124  1.00  0.00     0.010 A 
BRANCH  33  36
HETATM   36  O4  UNK     1      39.248 -11.286  30.741  1.00  0.00    -0.356 OA
HETATM   37  C29 UNK     1      40.537 -11.111  31.327  1.00  0.00     0.210 C 
ENDBRANCH  33  36
ENDBRANCH   4  30
TORSDOF 3
ENDMDL
MODEL 2
REMARK VINA RESULT:      -9.1     33.415     35.885
REMARK  3 active torsions:
REMARK  status: ('A' for Active; 'I' for Inactive)
REMARK    1  A    between atoms: C21_27  and  O4_4 
REMARK    2  A    between atoms: C1_7  and  C8_14 
REMARK    3  A    between atoms: C6_12  and  C9_15 
ROOT
HETATM    1  O1  UNK     1      17.523   7.894  10.106  1.00  0.00    -0.293 OA
HETATM    2  N1  UNK     1      15.090  11.549   8.113  1.00  0.00    -0.357 N 
HETATM    3  N2  UNK     1      18.055  11.152   7.818  1.00  0.00    -0.375 N 
HETATM    4  C1  UNK     1      14.222   7.968   8.675  1.00  0.00     0.031 C 
HETATM    5  C2  UNK     1      13.992   9.481   8.686  1.00  0.00     0.067 C 
HETATM    6  C3  UNK     1      16.454   9.761   9.065  1.00  0.00     0.037 C 
HETATM    7  C4  UNK     1      15.188   7.601   9.793  1.00  0.00     0.093 C 
HETATM    8  C5  UNK     1      15.286  10.280   8.626  1.00  0.00     0.022 C 
HETATM    9  C6  UNK     1      17.764  10.508   9.088  1.00  0.00     0.160 C 
HETATM   10  C7  UNK     1      16.478   8.376   9.664  1.00  0.00     0.160 C 
HETATM   11  C10 UNK     1      15.975  12.447   7.485  1.00  0.00     0.059 A 
HETATM   12  C11 UNK     1      17.349  12.223   7.290  1.00  0.00     0.055 A 
HETATM   13  C16 UNK     1      15.403  13.633   6.965  1.00  0.00     0.032 A 
HETATM   14  C17 UNK     1      18.086  13.171   6.544  1.00  0.00     0.031 A 
HETATM   15  C22 UNK     1      16.155  14.561   6.249  1.00  0.00     0.002 A 
HETATM   16  C23 UNK     1      17.500  14.325   6.028  1.00  0.00     0.002 A 
HETATM   17  H7  UNK     1      14.118  11.840   8.086  1.00  0.00     0.166 HD
HETATM   18  H8  UNK     1      18.995  11.014   7.457  1.00  0.00     0.160 HD
ENDROOT
BRANCH   9  19
HETATM   19  C9  UNK     1      17.861  11.486  10.221  1.00  0.00     0.042 A 
HETATM   20  C14 UNK     1      19.207  11.953  10.641  1.00  0.00     0.195 A 
HETATM   21  O3  UNK     1      20.230  11.566  10.092  1.00  0.00    -0.287 OA
HETATM   22  C18 UNK     1      19.246  12.914  11.759  1.00  0.00     0.048 A 
HETATM   23  C24 UNK     1      18.048  13.321  12.346  1.00  0.00     0.089 A 
HETATM   24  C25 UNK     1      20.464  13.413  12.228  1.00  0.00     0.018 A 
HETATM   25  O2  UNK     1      16.824  12.864  11.926  1.00  0.00    -0.321 OA
HETATM   26  C26 UNK     1      18.061  14.229  13.405  1.00  0.00     0.038 A 
HETATM   27  C15 UNK     1      16.803  11.969  10.884  1.00  0.00     0.156 A 
HETATM   28  C28 UNK     1      19.277  14.729  13.875  1.00  0.00     0.003 A 
HETATM   29  C27 UNK     1      20.475  14.321  13.287  1.00  0.00     0.001 A 
ENDBRANCH   9  19
BRANCH   4  30
HETATM   30  C8  UNK     1      12.922   7.189   8.760  1.00  0.00    -0.053 A 
HETATM   31  C12 UNK     1      12.920   5.895   9.272  1.00  0.00     0.010 A 
HETATM   32  C19 UNK     1      11.725   5.179   9.349  1.00  0.00     0.037 A 
HETATM   33  C21 UNK     1      10.535   5.761   8.912  1.00  0.00     0.068 A 
HETATM   34  C20 UNK     1      10.540   7.057   8.399  1.00  0.00     0.037 A 
HETATM   35  C13 UNK     1      11.735   7.774   8.322  1.00  0.00     0.010 A 
BRANCH  33  36
HETATM   36  O4  UNK     1       9.370   5.062   8.988  1.00  0.00    -0.356 OA
HETATM   37  C29 UNK     1       8.201   5.689   8.460  1.00  0.00     0.210 C 
ENDBRANCH  33  36
ENDBRANCH   4  30
TORSDOF 3
ENDMDL
MODEL 3
REMARK VINA RESULT:      -9.0      4.404      5.366
REMARK  3 active torsions:
REMARK  status: ('A' for Active; 'I' for Inactive)
REMARK    1  A    between atoms: C21_27  and  O4_4 
REMARK    2  A    between atoms: C1_7  and  C8_14 
REMARK    3  A    between atoms: C6_12  and  C9_15 
ROOT
HETATM    1  O1  UNK     1      33.539 -10.282  33.811  1.00  0.00    -0.293 OA
HETATM    2  N1  UNK     1      29.109  -9.818  31.965  1.00  0.00    -0.357 N 
HETATM    3  N2  UNK     1      31.174  -7.634  31.934  1.00  0.00    -0.375 N 
HETATM    4  C1  UNK     1      31.498 -12.678  32.067  1.00  0.00     0.031 C 
HETATM    5  C2  UNK     1      30.142 -11.983  32.210  1.00  0.00     0.067 C 
HETATM    6  C3  UNK     1      31.378  -9.903  32.863  1.00  0.00     0.037 C 
HETATM    7  C4  UNK     1      32.389 -12.278  33.234  1.00  0.00     0.093 C 
HETATM    8  C5  UNK     1      30.260 -10.473  32.363  1.00  0.00     0.022 C 
HETATM    9  C6  UNK     1      31.550  -8.423  33.095  1.00  0.00     0.160 C 
HETATM   10  C7  UNK     1      32.523 -10.775  33.318  1.00  0.00     0.160 C 
HETATM   11  C10 UNK     1      28.894  -8.497  31.524  1.00  0.00     0.059 A 
HETATM   12  C11 UNK     1      29.881  -7.501  31.448  1.00  0.00     0.055 A 
HETATM   13  C16 UNK     1      27.588  -8.191  31.073  1.00  0.00     0.032 A 
HETATM   14  C17 UNK     1      29.536  -6.253  30.881  1.00  0.00     0.031 A 
HETATM   15  C22 UNK     1      27.267  -6.947  30.535  1.00  0.00     0.002 A 
HETATM   16  C23 UNK     1      28.247  -5.976  30.429  1.00  0.00     0.002 A 
HETATM   17  H7  UNK     1      28.300 -10.423  31.869  1.00  0.00     0.166 HD
HETATM   18  H8  UNK     1      31.833  -6.911  31.657  1.00  0.00     0.160 HD
ENDROOT
BRANCH   9  19
HETATM   19  C9  UNK     1      30.844  -7.936  34.326  1.00  0.00     0.042 A 
HETATM   20  C14 UNK     1      31.154  -6.574  34.829  1.00  0.00     0.195 A 
HETATM   21  O3  UNK     1      31.962  -5.843  34.272  1.00  0.00    -0.287 OA
HETATM   22  C18 UNK     1      30.433  -6.145  36.041  1.00  0.00     0.048 A 
HETATM   23  C24 UNK     1      29.522  -7.020  36.634  1.00  0.00     0.089 A 
HETATM   24  C25 UNK     1      30.654  -4.881  36.593  1.00  0.00     0.018 A 
HETATM   25  O2  UNK     1      29.265  -8.272  36.136  1.00  0.00    -0.321 OA
HETATM   26  C26 UNK     1      28.828  -6.636  37.782  1.00  0.00     0.038 A 
HETATM   27  C15 UNK     1      29.945  -8.659  35.006  1.00  0.00     0.156 A 
HETATM   28  C28 UNK     1      29.048  -5.373  38.334  1.00  0.00     0.003 A 
HETATM   29  C27 UNK     1      29.959  -4.498  37.741  1.00  0.00     0.001 A 
ENDBRANCH   9  19
BRANCH   4  30
HETATM   30  C8  UNK     1      31.360 -14.184  31.940  1.00  0.00    -0.053 A 
HETATM   31  C12 UNK     1      31.075 -14.953  33.066  1.00  0.00     0.010 A 
HETATM   32  C19 UNK     1      30.949 -16.337  32.948  1.00  0.00     0.037 A 
HETATM   33  C21 UNK     1      31.110 -16.949  31.705  1.00  0.00     0.068 A 
HETATM   34  C20 UNK     1      31.395 -16.177  30.580  1.00  0.00     0.037 A 
HETATM   35  C13 UNK     1      31.520 -14.792  30.697  1.00  0.00     0.010 A 
BRANCH  33  36
HETATM   36  O4  UNK     1      30.986 -18.299  31.591  1.00  0.00    -0.356 OA
HETATM   37  C29 UNK     1      30.312 -18.795  30.435  1.00  0.00     0.210 C 
ENDBRANCH  33  36
ENDBRANCH   4  30
TORSDOF 3
ENDMDL
MODEL 4
REMARK VINA RESULT:      -8.9      4.243      9.881
REMARK  3 active torsions:
REMARK  status: ('A' for Active; 'I' for Inactive)
REMARK    1  A    between atoms: C21_27  and  O4_4 
REMARK    2  A    between atoms: C1_7  and  C8_14 
REMARK    3  A    between atoms: C6_12  and  C9_15 
ROOT
HETATM    1  O1  UNK     1      28.423  -7.467  39.791  1.00  0.00    -0.293 OA
HETATM    2  N1  UNK     1      28.359  -9.306  35.334  1.00  0.00    -0.357 N 
HETATM    3  N2  UNK     1      30.589  -9.754  37.299  1.00  0.00    -0.375 N 
HETATM    4  C1  UNK     1      25.669  -8.728  37.849  1.00  0.00     0.031 C 
HETATM    5  C2  UNK     1      26.319  -8.693  36.464  1.00  0.00     0.067 C 
HETATM    6  C3  UNK     1      28.534  -8.438  37.610  1.00  0.00     0.037 C 
HETATM    7  C4  UNK     1      26.309  -7.663  38.728  1.00  0.00     0.093 C 
HETATM    8  C5  UNK     1      27.836  -8.813  36.515  1.00  0.00     0.022 C 
HETATM    9  C6  UNK     1      30.037  -8.476  37.716  1.00  0.00     0.160 C 
HETATM   10  C7  UNK     1      27.807  -7.851  38.795  1.00  0.00     0.160 C 
HETATM   11  C10 UNK     1      29.569  -9.972  35.057  1.00  0.00     0.059 A 
HETATM   12  C11 UNK     1      30.577 -10.238  35.999  1.00  0.00     0.055 A 
HETATM   13  C16 UNK     1      29.733 -10.453  33.736  1.00  0.00     0.032 A 
HETATM   14  C17 UNK     1      31.688 -11.013  35.595  1.00  0.00     0.031 A 
HETATM   15  C22 UNK     1      30.846 -11.200  33.357  1.00  0.00     0.002 A 
HETATM   16  C23 UNK     1      31.823 -11.490  34.292  1.00  0.00     0.002 A 
HETATM   17  H7  UNK     1      27.711  -9.282  34.552  1.00  0.00     0.166 HD
HETATM   18  H8  UNK     1      31.278 -10.163  37.923  1.00  0.00     0.160 HD
ENDROOT
BRANCH   9  19
HETATM   19  C9  UNK     1      30.705  -7.342  36.996  1.00  0.00     0.042 A 
HETATM   20  C14 UNK     1      32.186  -7.243  37.048  1.00  0.00     0.195 A 
HETATM   21  O3  UNK     1      32.871  -8.054  37.657  1.00  0.00    -0.287 OA
HETATM   22  C18 UNK     1      32.791  -6.110  36.324  1.00  0.00     0.048 A 
HETATM   23  C24 UNK     1      31.961  -5.217  35.646  1.00  0.00     0.089 A 
HETATM   24  C25 UNK     1      34.176  -5.929  36.312  1.00  0.00     0.018 A 
HETATM   25  O2  UNK     1      30.595  -5.346  35.623  1.00  0.00    -0.321 OA
HETATM   26  C26 UNK     1      32.511  -4.138  34.954  1.00  0.00     0.038 A 
HETATM   27  C15 UNK     1      30.045  -6.405  36.303  1.00  0.00     0.156 A 
HETATM   28  C28 UNK     1      33.895  -3.956  34.941  1.00  0.00     0.003 A 
HETATM   29  C27 UNK     1      34.724  -4.850  35.619  1.00  0.00     0.001 A 
ENDBRANCH   9  19
BRANCH   4  30
HETATM   30  C8  UNK     1      24.160  -8.583  37.778  1.00  0.00    -0.053 A 
HETATM   31  C12 UNK     1      23.452  -9.183  36.740  1.00  0.00     0.010 A 
HETATM   32  C19 UNK     1      22.065  -9.048  36.675  1.00  0.00     0.037 A 
HETATM   33  C21 UNK     1      21.390  -8.312  37.648  1.00  0.00     0.068 A 
HETATM   34  C20 UNK     1      22.101  -7.712  38.686  1.00  0.00     0.037 A 
HETATM   35  C13 UNK     1      23.488  -7.847  38.752  1.00  0.00     0.010 A 
BRANCH  33  36
HETATM   36  O4  UNK     1      20.037  -8.182  37.584  1.00  0.00    -0.356 OA
HETATM   37  C29 UNK     1      19.301  -9.292  37.071  1.00  0.00     0.210 C 
ENDBRANCH  33  36
ENDBRANCH   4  30
TORSDOF 3
ENDMDL
MODEL 5
REMARK VINA RESULT:      -8.6      4.464      5.243
REMARK  3 active torsions:
REMARK  status: ('A' for Active; 'I' for Inactive)
REMARK    1  A    between atoms: C21_27  and  O4_4 
REMARK    2  A    between atoms: C1_7  and  C8_14 
REMARK    3  A    between atoms: C6_12  and  C9_15 
ROOT
HETATM    1  O1  UNK     1      32.640 -10.705  34.858  1.00  0.00    -0.293 OA
HETATM    2  N1  UNK     1      28.886  -9.977  31.921  1.00  0.00    -0.357 N 
HETATM    3  N2  UNK     1      30.753  -7.801  32.821  1.00  0.00    -0.375 N 
HETATM    4  C1  UNK     1      31.303 -12.795  32.252  1.00  0.00     0.031 C 
HETATM    5  C2  UNK     1      29.925 -12.144  32.108  1.00  0.00     0.067 C 
HETATM    6  C3  UNK     1      30.813 -10.191  33.404  1.00  0.00     0.037 C 
HETATM    7  C4  UNK     1      31.809 -12.586  33.672  1.00  0.00     0.093 C 
HETATM    8  C5  UNK     1      29.913 -10.680  32.523  1.00  0.00     0.022 C 
HETATM    9  C6  UNK     1      30.832  -8.768  33.904  1.00  0.00     0.160 C 
HETATM   10  C7  UNK     1      31.832 -11.117  34.024  1.00  0.00     0.160 C 
HETATM   11  C10 UNK     1      28.730  -8.604  31.649  1.00  0.00     0.059 A 
HETATM   12  C11 UNK     1      29.643  -7.600  32.015  1.00  0.00     0.055 A 
HETATM   13  C16 UNK     1      27.588  -8.238  30.898  1.00  0.00     0.032 A 
HETATM   14  C17 UNK     1      29.402  -6.278  31.575  1.00  0.00     0.031 A 
HETATM   15  C22 UNK     1      27.363  -6.924  30.492  1.00  0.00     0.002 A 
HETATM   16  C23 UNK     1      28.278  -5.942  30.823  1.00  0.00     0.002 A 
HETATM   17  H7  UNK     1      28.170 -10.565  31.504  1.00  0.00     0.166 HD
HETATM   18  H8  UNK     1      31.422  -7.038  32.861  1.00  0.00     0.160 HD
ENDROOT
BRANCH   9  19
HETATM   19  C9  UNK     1      29.784  -8.498  34.942  1.00  0.00     0.042 A 
HETATM   20  C14 UNK     1      29.894  -7.260  35.756  1.00  0.00     0.195 A 
HETATM   21  O3  UNK     1      30.808  -6.461  35.603  1.00  0.00    -0.287 OA
HETATM   22  C18 UNK     1      28.839  -7.043  36.761  1.00  0.00     0.048 A 
HETATM   23  C24 UNK     1      27.820  -7.987  36.891  1.00  0.00     0.089 A 
HETATM   24  C25 UNK     1      28.853  -5.908  37.577  1.00  0.00     0.018 A 
HETATM   25  O2  UNK     1      27.755  -9.119  36.118  1.00  0.00    -0.321 OA
HETATM   26  C26 UNK     1      26.810  -7.803  37.837  1.00  0.00     0.038 A 
HETATM   27  C15 UNK     1      28.746  -9.309  35.185  1.00  0.00     0.156 A 
HETATM   28  C28 UNK     1      26.823  -6.670  38.651  1.00  0.00     0.003 A 
HETATM   29  C27 UNK     1      27.842  -5.725  38.521  1.00  0.00     0.001 A 
ENDBRANCH   9  19
BRANCH   4  30
HETATM   30  C8  UNK     1      31.289 -14.260  31.857  1.00  0.00    -0.053 A 
HETATM   31  C12 UNK     1      31.398 -14.619  30.516  1.00  0.00     0.010 A 
HETATM   32  C19 UNK     1      31.384 -15.967  30.154  1.00  0.00     0.037 A 
HETATM   33  C21 UNK     1      31.260 -16.951  31.134  1.00  0.00     0.068 A 
HETATM   34  C20 UNK     1      31.151 -16.589  32.476  1.00  0.00     0.037 A 
HETATM   35  C13 UNK     1      31.166 -15.241  32.839  1.00  0.00     0.010 A 
BRANCH  33  36
HETATM   36  O4  UNK     1      31.247 -18.265  30.779  1.00  0.00    -0.356 OA
HETATM   37  C29 UNK     1      29.974 -18.855  30.518  1.00  0.00     0.210 C 
ENDBRANCH  33  36
ENDBRANCH   4  30
TORSDOF 3
ENDMDL
MODEL 6
REMARK VINA RESULT:      -8.2     33.229     36.747
REMARK  3 active torsions:
REMARK  status: ('A' for Active; 'I' for Inactive)
REMARK    1  A    between atoms: C21_27  and  O4_4 
REMARK    2  A    between atoms: C1_7  and  C8_14 
REMARK    3  A    between atoms: C6_12  and  C9_15 
ROOT
HETATM    1  O1  UNK     1      15.182  13.440   8.643  1.00  0.00    -0.293 OA
HETATM    2  N1  UNK     1      19.496  11.416   9.377  1.00  0.00    -0.357 N 
HETATM    3  N2  UNK     1      18.812  14.235  10.166  1.00  0.00    -0.375 N 
HETATM    4  C1  UNK     1      16.028  10.061   9.543  1.00  0.00     0.031 C 
HETATM    5  C2  UNK     1      17.507  10.073   9.150  1.00  0.00     0.067 C 
HETATM    6  C3  UNK     1      17.369  12.575   9.064  1.00  0.00     0.037 C 
HETATM    7  C4  UNK     1      15.274  11.068   8.686  1.00  0.00     0.093 C 
HETATM    8  C5  UNK     1      18.125  11.463   9.204  1.00  0.00     0.022 C 
HETATM    9  C6  UNK     1      17.914  13.981   9.052  1.00  0.00     0.160 C 
HETATM   10  C7  UNK     1      15.887  12.444   8.811  1.00  0.00     0.160 C 
HETATM   11  C10 UNK     1      20.402  12.361   9.898  1.00  0.00     0.059 A 
HETATM   12  C11 UNK     1      20.061  13.654  10.329  1.00  0.00     0.055 A 
HETATM   13  C16 UNK     1      21.743  11.931  10.044  1.00  0.00     0.032 A 
HETATM   14  C17 UNK     1      21.063  14.449  10.931  1.00  0.00     0.031 A 
HETATM   15  C22 UNK     1      22.717  12.740  10.625  1.00  0.00     0.002 A 
HETATM   16  C23 UNK     1      22.374  14.000  11.079  1.00  0.00     0.002 A 
HETATM   17  H7  UNK     1      19.905  10.504   9.200  1.00  0.00     0.166 HD
HETATM   18  H8  UNK     1      18.650  15.098  10.677  1.00  0.00     0.160 HD
ENDROOT
BRANCH   9  19
HETATM   19  C9  UNK     1      18.559  14.348   7.748  1.00  0.00     0.042 A 
HETATM   20  C14 UNK     1      19.131  15.711   7.600  1.00  0.00     0.195 A 
HETATM   21  O3  UNK     1      19.092  16.535   8.503  1.00  0.00    -0.287 OA
HETATM   22  C18 UNK     1      19.753  16.020   6.299  1.00  0.00     0.048 A 
HETATM   23  C24 UNK     1      19.770  15.041   5.305  1.00  0.00     0.089 A 
HETATM   24  C25 UNK     1      20.319  17.275   6.060  1.00  0.00     0.018 A 
HETATM   25  O2  UNK     1      19.229  13.793   5.485  1.00  0.00    -0.321 OA
HETATM   26  C26 UNK     1      20.353  15.312   4.067  1.00  0.00     0.038 A 
HETATM   27  C15 UNK     1      18.653  13.519   6.701  1.00  0.00     0.156 A 
HETATM   28  C28 UNK     1      20.919  16.564   3.826  1.00  0.00     0.003 A 
HETATM   29  C27 UNK     1      20.902  17.543   4.821  1.00  0.00     0.001 A 
ENDBRANCH   9  19
BRANCH   4  30
HETATM   30  C8  UNK     1      15.424   8.671   9.460  1.00  0.00    -0.053 A 
HETATM   31  C12 UNK     1      16.013   7.615  10.150  1.00  0.00     0.010 A 
HETATM   32  C19 UNK     1      15.458   6.337  10.072  1.00  0.00     0.037 A 
HETATM   33  C21 UNK     1      14.316   6.120   9.302  1.00  0.00     0.068 A 
HETATM   34  C20 UNK     1      13.727   7.179   8.612  1.00  0.00     0.037 A 
HETATM   35  C13 UNK     1      14.282   8.457   8.690  1.00  0.00     0.010 A 
BRANCH  33  36
HETATM   36  O4  UNK     1      13.775   4.873   9.228  1.00  0.00    -0.356 OA
HETATM   37  C29 UNK     1      12.694   4.688   8.314  1.00  0.00     0.210 C 
ENDBRANCH  33  36
ENDBRANCH   4  30
TORSDOF 3
ENDMDL
MODEL 7
REMARK VINA RESULT:      -8.1      5.682      8.319
REMARK  3 active torsions:
REMARK  status: ('A' for Active; 'I' for Inactive)
REMARK    1  A    between atoms: C21_27  and  O4_4 
REMARK    2  A    between atoms: C1_7  and  C8_14 
REMARK    3  A    between atoms: C6_12  and  C9_15 
ROOT
HETATM    1  O1  UNK     1      34.249 -14.113  30.544  1.00  0.00    -0.293 OA
HETATM    2  N1  UNK     1      30.520 -11.921  32.674  1.00  0.00    -0.357 N 
HETATM    3  N2  UNK     1      31.608 -11.139  29.983  1.00  0.00    -0.375 N 
HETATM    4  C1  UNK     1      31.610 -15.484  32.568  1.00  0.00     0.031 C 
HETATM    5  C2  UNK     1      31.116 -14.192  33.222  1.00  0.00     0.067 C 
HETATM    6  C3  UNK     1      32.396 -12.926  31.478  1.00  0.00     0.037 C 
HETATM    7  C4  UNK     1      33.082 -15.333  32.212  1.00  0.00     0.093 C 
HETATM    8  C5  UNK     1      31.389 -12.955  32.377  1.00  0.00     0.022 C 
HETATM    9  C6  UNK     1      32.762 -11.724  30.645  1.00  0.00     0.160 C 
HETATM   10  C7  UNK     1      33.300 -14.127  31.329  1.00  0.00     0.160 C 
HETATM   11  C10 UNK     1      30.102 -10.810  31.916  1.00  0.00     0.059 A 
HETATM   12  C11 UNK     1      30.566 -10.489  30.629  1.00  0.00     0.055 A 
HETATM   13  C16 UNK     1      29.093 -10.001  32.491  1.00  0.00     0.032 A 
HETATM   14  C17 UNK     1      29.971  -9.401  29.950  1.00  0.00     0.031 A 
HETATM   15  C22 UNK     1      28.534  -8.922  31.809  1.00  0.00     0.002 A 
HETATM   16  C23 UNK     1      28.968  -8.627  30.529  1.00  0.00     0.002 A 
HETATM   17  H7  UNK     1      30.012 -12.043  33.545  1.00  0.00     0.166 HD
HETATM   18  H8  UNK     1      31.724 -10.928  28.996  1.00  0.00     0.160 HD
ENDROOT
BRANCH   9  19
HETATM   19  C9  UNK     1      33.523 -10.686  31.416  1.00  0.00     0.042 A 
HETATM   20  C14 UNK     1      33.927  -9.439  30.718  1.00  0.00     0.195 A 
HETATM   21  O3  UNK     1      33.658  -9.236  29.541  1.00  0.00    -0.287 OA
HETATM   22  C18 UNK     1      34.671  -8.452  31.521  1.00  0.00     0.048 A 
HETATM   23  C24 UNK     1      34.948  -8.736  32.859  1.00  0.00     0.089 A 
HETATM   24  C25 UNK     1      35.096  -7.247  30.956  1.00  0.00     0.018 A 
HETATM   25  O2  UNK     1      34.556  -9.902  33.466  1.00  0.00    -0.321 OA
HETATM   26  C26 UNK     1      35.652  -7.817  33.638  1.00  0.00     0.038 A 
HETATM   27  C15 UNK     1      33.863 -10.813  32.705  1.00  0.00     0.156 A 
HETATM   28  C28 UNK     1      36.077  -6.613  33.075  1.00  0.00     0.003 A 
HETATM   29  C27 UNK     1      35.799  -6.330  31.737  1.00  0.00     0.001 A 
ENDBRANCH   9  19
BRANCH   4  30
HETATM   30  C8  UNK     1      31.351 -16.702  33.436  1.00  0.00    -0.053 A 
HETATM   31  C12 UNK     1      30.065 -16.962  33.903  1.00  0.00     0.010 A 
HETATM   32  C19 UNK     1      29.828 -18.081  34.702  1.00  0.00     0.037 A 
HETATM   33  C21 UNK     1      30.879 -18.936  35.033  1.00  0.00     0.068 A 
HETATM   34  C20 UNK     1      32.166 -18.673  34.565  1.00  0.00     0.037 A 
HETATM   35  C13 UNK     1      32.403 -17.554  33.765  1.00  0.00     0.010 A 
BRANCH  33  36
HETATM   36  O4  UNK     1      30.646 -20.027  35.812  1.00  0.00    -0.356 OA
HETATM   37  C29 UNK     1      30.353 -19.792  37.188  1.00  0.00     0.210 C 
ENDBRANCH  33  36
ENDBRANCH   4  30
TORSDOF 3
ENDMDL
MODEL 8
REMARK VINA RESULT:      -8.1      2.896      4.948
REMARK  3 active torsions:
REMARK  status: ('A' for Active; 'I' for Inactive)
REMARK    1  A    between atoms: C21_27  and  O4_4 
REMARK    2  A    between atoms: C1_7  and  C8_14 
REMARK    3  A    between atoms: C6_12  and  C9_15 
ROOT
HETATM    1  O1  UNK     1      33.061 -11.542  33.475  1.00  0.00    -0.293 OA
HETATM    2  N1  UNK     1      34.850  -7.066  33.585  1.00  0.00    -0.357 N 
HETATM    3  N2  UNK     1      32.574  -8.002  35.310  1.00  0.00    -0.375 N 
HETATM    4  C1  UNK     1      36.456 -10.399  33.130  1.00  0.00     0.031 C 
HETATM    5  C2  UNK     1      36.180  -8.926  32.820  1.00  0.00     0.067 C 
HETATM    6  C3  UNK     1      33.837  -9.287  33.634  1.00  0.00     0.037 C 
HETATM    7  C4  UNK     1      35.273 -11.237  32.667  1.00  0.00     0.093 C 
HETATM    8  C5  UNK     1      34.857  -8.435  33.392  1.00  0.00     0.022 C 
HETATM    9  C6  UNK     1      32.482  -8.870  34.148  1.00  0.00     0.160 C 
HETATM   10  C7  UNK     1      33.989 -10.751  33.299  1.00  0.00     0.160 C 
HETATM   11  C10 UNK     1      34.087  -6.250  34.442  1.00  0.00     0.059 A 
HETATM   12  C11 UNK     1      33.069  -6.706  35.297  1.00  0.00     0.055 A 
HETATM   13  C16 UNK     1      34.429  -4.876  34.471  1.00  0.00     0.032 A 
HETATM   14  C17 UNK     1      32.466  -5.782  36.180  1.00  0.00     0.031 A 
HETATM   15  C22 UNK     1      33.807  -3.980  35.338  1.00  0.00     0.002 A 
HETATM   16  C23 UNK     1      32.828  -4.436  36.203  1.00  0.00     0.002 A 
HETATM   17  H7  UNK     1      35.600  -6.576  33.106  1.00  0.00     0.166 HD
HETATM   18  H8  UNK     1      31.971  -8.243  36.091  1.00  0.00     0.160 HD
ENDROOT
BRANCH   9  19
HETATM   19  C9  UNK     1      31.616  -8.257  33.087  1.00  0.00     0.042 A 
HETATM   20  C14 UNK     1      30.195  -7.972  33.409  1.00  0.00     0.195 A 
HETATM   21  O3  UNK     1      29.714  -8.221  34.507  1.00  0.00    -0.287 OA
HETATM   22  C18 UNK     1      29.389  -7.369  32.332  1.00  0.00     0.048 A 
HETATM   23  C24 UNK     1      29.990  -7.106  31.101  1.00  0.00     0.089 A 
HETATM   24  C25 UNK     1      28.041  -7.063  32.536  1.00  0.00     0.018 A 
HETATM   25  O2  UNK     1      31.309  -7.385  30.845  1.00  0.00    -0.321 OA
HETATM   26  C26 UNK     1      29.246  -6.536  30.067  1.00  0.00     0.038 A 
HETATM   27  C15 UNK     1      32.048  -7.947  31.858  1.00  0.00     0.156 A 
HETATM   28  C28 UNK     1      27.900  -6.230  30.269  1.00  0.00     0.003 A 
HETATM   29  C27 UNK     1      27.299  -6.493  31.501  1.00  0.00     0.001 A 
ENDBRANCH   9  19
BRANCH   4  30
HETATM   30  C8  UNK     1      37.766 -10.875  32.531  1.00  0.00    -0.053 A 
HETATM   31  C12 UNK     1      38.059 -10.607  31.197  1.00  0.00     0.010 A 
HETATM   32  C19 UNK     1      39.264 -11.046  30.647  1.00  0.00     0.037 A 
HETATM   33  C21 UNK     1      40.171 -11.754  31.433  1.00  0.00     0.068 A 
HETATM   34  C20 UNK     1      39.877 -12.022  32.770  1.00  0.00     0.037 A 
HETATM   35  C13 UNK     1      38.672 -11.582  33.320  1.00  0.00     0.010 A 
BRANCH  33  36
HETATM   36  O4  UNK     1      41.347 -12.181  30.896  1.00  0.00    -0.356 OA
HETATM   37  C29 UNK     1      42.294 -12.766  31.789  1.00  0.00     0.210 C 
ENDBRANCH  33  36
ENDBRANCH   4  30
TORSDOF 3
ENDMDL
MODEL 9
REMARK VINA RESULT:      -8.0      2.764      5.471
REMARK  3 active torsions:
REMARK  status: ('A' for Active; 'I' for Inactive)
REMARK    1  A    between atoms: C21_27  and  O4_4 
REMARK    2  A    between atoms: C1_7  and  C8_14 
REMARK    3  A    between atoms: C6_12  and  C9_15 
ROOT
HETATM    1  O1  UNK     1      33.236 -12.508  31.190  1.00  0.00    -0.293 OA
HETATM    2  N1  UNK     1      33.905  -9.094  34.527  1.00  0.00    -0.357 N 
HETATM    3  N2  UNK     1      31.488 -10.878  34.418  1.00  0.00    -0.375 N 
HETATM    4  C1  UNK     1      36.255 -11.434  32.825  1.00  0.00     0.031 C 
HETATM    5  C2  UNK     1      35.768 -10.086  33.362  1.00  0.00     0.067 C 
HETATM    6  C3  UNK     1      33.426 -10.851  32.902  1.00  0.00     0.037 C 
HETATM    7  C4  UNK     1      35.465 -11.788  31.573  1.00  0.00     0.093 C 
HETATM    8  C5  UNK     1      34.263 -10.044  33.589  1.00  0.00     0.022 C 
HETATM    9  C6  UNK     1      31.923 -10.831  33.032  1.00  0.00     0.160 C 
HETATM   10  C7  UNK     1      33.981 -11.789  31.857  1.00  0.00     0.160 C 
HETATM   11  C10 UNK     1      32.770  -8.982  35.354  1.00  0.00     0.059 A 
HETATM   12  C11 UNK     1      31.674  -9.861  35.343  1.00  0.00     0.055 A 
HETATM   13  C16 UNK     1      32.783  -7.930  36.300  1.00  0.00     0.032 A 
HETATM   14  C17 UNK     1      30.657  -9.682  36.309  1.00  0.00     0.031 A 
HETATM   15  C22 UNK     1      31.760  -7.762  37.231  1.00  0.00     0.002 A 
HETATM   16  C23 UNK     1      30.697  -8.648  37.242  1.00  0.00     0.002 A 
HETATM   17  H7  UNK     1      34.636  -8.420  34.735  1.00  0.00     0.166 HD
HETATM   18  H8  UNK     1      30.753 -11.546  34.629  1.00  0.00     0.160 HD
ENDROOT
BRANCH   9  19
HETATM   19  C9  UNK     1      31.288  -9.682  32.307  1.00  0.00     0.042 A 
HETATM   20  C14 UNK     1      29.805  -9.599  32.272  1.00  0.00     0.195 A 
HETATM   21  O3  UNK     1      29.094 -10.435  32.813  1.00  0.00    -0.287 OA
HETATM   22  C18 UNK     1      29.232  -8.451  31.547  1.00  0.00     0.048 A 
HETATM   23  C24 UNK     1      30.091  -7.527  30.951  1.00  0.00     0.089 A 
HETATM   24  C25 UNK     1      27.848  -8.283  31.457  1.00  0.00     0.018 A 
HETATM   25  O2  UNK     1      31.457  -7.642  31.008  1.00  0.00    -0.321 OA
HETATM   26  C26 UNK     1      29.570  -6.433  30.259  1.00  0.00     0.038 A 
HETATM   27  C15 UNK     1      31.977  -8.717  31.686  1.00  0.00     0.156 A 
HETATM   28  C28 UNK     1      28.188  -6.264  30.168  1.00  0.00     0.003 A 
HETATM   29  C27 UNK     1      27.330  -7.188  30.766  1.00  0.00     0.001 A 
ENDBRANCH   9  19
BRANCH   4  30
HETATM   30  C8  UNK     1      37.753 -11.447  32.582  1.00  0.00    -0.053 A 
HETATM   31  C12 UNK     1      38.606 -12.007  33.530  1.00  0.00     0.010 A 
HETATM   32  C19 UNK     1      39.983 -12.017  33.306  1.00  0.00     0.037 A 
HETATM   33  C21 UNK     1      40.503 -11.466  32.135  1.00  0.00     0.068 A 
HETATM   34  C20 UNK     1      39.647 -10.907  31.187  1.00  0.00     0.037 A 
HETATM   35  C13 UNK     1      38.269 -10.896  31.411  1.00  0.00     0.010 A 
BRANCH  33  36
HETATM   36  O4  UNK     1      41.846 -11.478  31.917  1.00  0.00    -0.356 OA
HETATM   37  C29 UNK     1      42.660 -10.754  32.839  1.00  0.00     0.210 C 
ENDBRANCH  33  36
ENDBRANCH   4  30
TORSDOF 3
ENDMDL
MODEL 10
REMARK VINA RESULT:      -8.0     34.238     36.669
REMARK  3 active torsions:
REMARK  status: ('A' for Active; 'I' for Inactive)
REMARK    1  A    between atoms: C21_27  and  O4_4 
REMARK    2  A    between atoms: C1_7  and  C8_14 
REMARK    3  A    between atoms: C6_12  and  C9_15 
ROOT
HETATM    1  O1  UNK     1      18.215   9.922   9.006  1.00  0.00    -0.293 OA
HETATM    2  N1  UNK     1      14.062  12.345   9.366  1.00  0.00    -0.357 N 
HETATM    3  N2  UNK     1      15.005  10.328  11.386  1.00  0.00    -0.375 N 
HETATM    4  C1  UNK     1      17.434  13.319   8.112  1.00  0.00     0.031 C 
HETATM    5  C2  UNK     1      15.908  13.211   8.080  1.00  0.00     0.067 C 
HETATM    6  C3  UNK     1      16.126  11.041   9.315  1.00  0.00     0.037 C 
HETATM    7  C4  UNK     1      18.038  11.958   7.797  1.00  0.00     0.093 C 
HETATM    8  C5  UNK     1      15.370  12.111   8.984  1.00  0.00     0.022 C 
HETATM    9  C6  UNK     1      15.647   9.886  10.159  1.00  0.00     0.160 C 
HETATM   10  C7  UNK     1      17.519  10.906   8.750  1.00  0.00     0.160 C 
HETATM   11  C10 UNK     1      13.320  11.890  10.473  1.00  0.00     0.059 A 
HETATM   12  C11 UNK     1      13.792  10.999  11.451  1.00  0.00     0.055 A 
HETATM   13  C16 UNK     1      12.020  12.431  10.624  1.00  0.00     0.032 A 
HETATM   14  C17 UNK     1      12.967  10.720  12.565  1.00  0.00     0.031 A 
HETATM   15  C22 UNK     1      11.218  12.127  11.721  1.00  0.00     0.002 A 
HETATM   16  C23 UNK     1      11.696  11.276  12.701  1.00  0.00     0.002 A 
HETATM   17  H7  UNK     1      13.589  13.054   8.814  1.00  0.00     0.166 HD
HETATM   18  H8  UNK     1      15.302   9.856  12.235  1.00  0.00     0.160 HD
ENDROOT
BRANCH   9  19
HETATM   19  C9  UNK     1      14.766   8.935   9.404  1.00  0.00     0.042 A 
HETATM   20  C14 UNK     1      14.321   7.691  10.083  1.00  0.00     0.195 A 
HETATM   21  O3  UNK     1      14.649   7.424  11.232  1.00  0.00    -0.287 OA
HETATM   22  C18 UNK     1      13.457   6.791   9.298  1.00  0.00     0.048 A 
HETATM   23  C24 UNK     1      13.114   7.148   7.994  1.00  0.00     0.089 A 
HETATM   24  C25 UNK     1      12.986   5.596   9.847  1.00  0.00     0.018 A 
HETATM   25  O2  UNK     1      13.547   8.308   7.404  1.00  0.00    -0.321 OA
HETATM   26  C26 UNK     1      12.297   6.311   7.231  1.00  0.00     0.038 A 
HETATM   27  C15 UNK     1      14.352   9.137   8.147  1.00  0.00     0.156 A 
HETATM   28  C28 UNK     1      11.826   5.117   7.779  1.00  0.00     0.003 A 
HETATM   29  C27 UNK     1      12.169   4.761   9.084  1.00  0.00     0.001 A 
ENDBRANCH   9  19
BRANCH   4  30
HETATM   30  C8  UNK     1      17.952  14.405   7.187  1.00  0.00    -0.053 A 
HETATM   31  C12 UNK     1      17.110  14.959   6.226  1.00  0.00     0.010 A 
HETATM   32  C19 UNK     1      17.588  15.956   5.375  1.00  0.00     0.037 A 
HETATM   33  C21 UNK     1      18.906  16.395   5.487  1.00  0.00     0.068 A 
HETATM   34  C20 UNK     1      19.748  15.839   6.450  1.00  0.00     0.037 A 
HETATM   35  C13 UNK     1      19.271  14.842   7.302  1.00  0.00     0.010 A 
BRANCH  33  36
HETATM   36  O4  UNK     1      19.370  17.369   4.657  1.00  0.00    -0.356 OA
HETATM   37  C29 UNK     1      20.727  17.263   4.227  1.00  0.00     0.210 C 
ENDBRANCH  33  36
ENDBRANCH   4  30
TORSDOF 3
ENDMDL
