MODEL 1
REMARK VINA RESULT:      -8.2      0.000      0.000
REMARK  4 active torsions:
REMARK  status: ('A' for Active; 'I' for Inactive)
REMARK    1  A    between atoms: C7_15  and  O3_3 
REMARK    2  A    between atoms: C8_16  and  O4_4 
REMARK    3  A    between atoms: C13_21  and  O5_5 
REMARK    4  A    between atoms: C14_22  and  O6_6 
ROOT
HETATM    1  O1  UNK     1      18.378   0.963  32.479  1.00  0.00    -0.271 OA
HETATM    2  O2  UNK     1      20.583  -3.342  33.893  1.00  0.00    -0.271 OA
HETATM    3  O7  UNK     1      17.369   1.725  34.391  1.00  0.00    -0.259 OA
HETATM    4  O8  UNK     1      21.589  -4.106  31.980  1.00  0.00    -0.259 OA
HETATM    5  C1  UNK     1      19.633  -1.114  32.490  1.00  0.00     0.031 A 
HETATM    6  C2  UNK     1      19.328  -1.266  33.882  1.00  0.00     0.031 A 
HETATM    7  C3  UNK     1      18.560  -0.318  34.559  1.00  0.00     0.056 A 
HETATM    8  C4  UNK     1      20.400  -2.060  31.813  1.00  0.00     0.056 A 
HETATM    9  C5  UNK     1      19.157  -0.004  31.802  1.00  0.00     0.127 A 
HETATM   10  C6  UNK     1      19.804  -2.376  34.570  1.00  0.00     0.127 A 
HETATM   11  C7  UNK     1      19.427   0.188  30.451  1.00  0.00     0.134 A 
HETATM   12  C8  UNK     1      19.534  -2.568  35.921  1.00  0.00     0.134 A 
HETATM   13  C9  UNK     1      18.278  -0.493  35.919  1.00  0.00     0.058 A 
HETATM   14  C10 UNK     1      20.684  -1.886  30.453  1.00  0.00     0.058 A 
HETATM   15  C11 UNK     1      18.047   0.870  33.834  1.00  0.00     0.299 A 
HETATM   16  C12 UNK     1      20.914  -3.250  32.537  1.00  0.00     0.299 A 
HETATM   17  C13 UNK     1      20.195  -0.761  29.778  1.00  0.00     0.102 A 
HETATM   18  C14 UNK     1      18.766  -1.618  36.595  1.00  0.00     0.102 A 
ENDROOT
BRANCH  11  19
HETATM   19  O3  UNK     1      18.951   1.282  29.797  1.00  0.00    -0.356 OA
HETATM   20  H3  UNK     1      18.502   0.984  28.987  1.00  0.00     0.218 HD
ENDBRANCH  11  19
BRANCH  17  21
HETATM   21  O5  UNK     1      20.478  -0.606  28.454  1.00  0.00    -0.358 OA
HETATM   22  H5  UNK     1      20.107   0.240  28.147  1.00  0.00     0.217 HD
ENDBRANCH  17  21
BRANCH  12  23
HETATM   23  O4  UNK     1      20.010  -3.662  36.575  1.00  0.00    -0.356 OA
HETATM   24  H4  UNK     1      20.981  -3.656  36.558  1.00  0.00     0.218 HD
ENDBRANCH  12  23
BRANCH  18  25
HETATM   25  O6  UNK     1      18.483  -1.774  37.918  1.00  0.00    -0.358 OA
HETATM   26  H6  UNK     1      19.309  -1.841  38.424  1.00  0.00     0.217 HD
ENDBRANCH  18  25
TORSDOF 4
ENDMDL
MODEL 2
REMARK VINA RESULT:      -8.2      0.008      6.255
REMARK  4 active torsions:
REMARK  status: ('A' for Active; 'I' for Inactive)
REMARK    1  A    between atoms: C7_15  and  O3_3 
REMARK    2  A    between atoms: C8_16  and  O4_4 
REMARK    3  A    between atoms: C13_21  and  O5_5 
REMARK    4  A    between atoms: C14_22  and  O6_6 
ROOT
HETATM    1  O1  UNK     1      20.577  -3.340  33.890  1.00  0.00    -0.271 OA
HETATM    2  O2  UNK     1      18.383   0.971  32.476  1.00  0.00    -0.271 OA
HETATM    3  O7  UNK     1      21.585  -4.103  31.978  1.00  0.00    -0.259 OA
HETATM    4  O8  UNK     1      17.372   1.733  34.387  1.00  0.00    -0.259 OA
HETATM    5  C1  UNK     1      19.326  -1.261  33.879  1.00  0.00     0.031 A 
HETATM    6  C2  UNK     1      19.633  -1.108  32.487  1.00  0.00     0.031 A 
HETATM    7  C3  UNK     1      20.400  -2.057  31.811  1.00  0.00     0.056 A 
HETATM    8  C4  UNK     1      18.560  -0.313  34.556  1.00  0.00     0.056 A 
HETATM    9  C5  UNK     1      19.799  -2.372  34.566  1.00  0.00     0.127 A 
HETATM   10  C6  UNK     1      19.160   0.003  31.800  1.00  0.00     0.127 A 
HETATM   11  C7  UNK     1      19.527  -2.565  35.918  1.00  0.00     0.134 A 
HETATM   12  C8  UNK     1      19.432   0.195  30.449  1.00  0.00     0.134 A 
HETATM   13  C9  UNK     1      20.684  -1.882  30.451  1.00  0.00     0.058 A 
HETATM   14  C10 UNK     1      18.276  -0.487  35.915  1.00  0.00     0.058 A 
HETATM   15  C11 UNK     1      20.910  -3.247  32.535  1.00  0.00     0.299 A 
HETATM   16  C12 UNK     1      18.050   0.878  33.832  1.00  0.00     0.299 A 
HETATM   17  C13 UNK     1      18.762  -1.613  36.591  1.00  0.00     0.102 A 
HETATM   18  C14 UNK     1      20.199  -0.756  29.776  1.00  0.00     0.102 A 
ENDROOT
BRANCH  11  19
HETATM   19  O3  UNK     1      20.001  -3.660  36.571  1.00  0.00    -0.356 OA
HETATM   20  H3  UNK     1      20.600  -4.139  35.973  1.00  0.00     0.218 HD
ENDBRANCH  11  19
BRANCH  17  21
HETATM   21  O5  UNK     1      18.475  -1.770  37.914  1.00  0.00    -0.358 OA
HETATM   22  H5  UNK     1      18.588  -0.916  38.367  1.00  0.00     0.217 HD
ENDBRANCH  17  21
BRANCH  12  23
HETATM   23  O4  UNK     1      18.959   1.291  29.795  1.00  0.00    -0.356 OA
HETATM   24  H4  UNK     1      19.675   1.935  29.675  1.00  0.00     0.218 HD
ENDBRANCH  12  23
BRANCH  18  25
HETATM   25  O6  UNK     1      20.484  -0.600  28.453  1.00  0.00    -0.358 OA
HETATM   26  H6  UNK     1      21.040  -1.335  28.149  1.00  0.00     0.217 HD
ENDBRANCH  18  25
TORSDOF 4
ENDMDL
MODEL 3
REMARK VINA RESULT:      -8.2     24.685     26.368
REMARK  4 active torsions:
REMARK  status: ('A' for Active; 'I' for Inactive)
REMARK    1  A    between atoms: C7_15  and  O3_3 
REMARK    2  A    between atoms: C8_16  and  O4_4 
REMARK    3  A    between atoms: C13_21  and  O5_5 
REMARK    4  A    between atoms: C14_22  and  O6_6 
ROOT
HETATM    1  O1  UNK     1      14.061   5.019   8.933  1.00  0.00    -0.271 OA
HETATM    2  O2  UNK     1      12.695   9.722  10.121  1.00  0.00    -0.271 OA
HETATM    3  O7  UNK     1      12.115   4.038   8.222  1.00  0.00    -0.259 OA
HETATM    4  O8  UNK     1      14.640  10.702  10.835  1.00  0.00    -0.259 OA
HETATM    5  C1  UNK     1      14.081   7.333   9.661  1.00  0.00     0.031 A 
HETATM    6  C2  UNK     1      12.675   7.407   9.392  1.00  0.00     0.031 A 
HETATM    7  C3  UNK     1      11.976   6.305   8.902  1.00  0.00     0.056 A 
HETATM    8  C4  UNK     1      14.780   8.435  10.152  1.00  0.00     0.056 A 
HETATM    9  C5  UNK     1      14.760   6.143   9.430  1.00  0.00     0.127 A 
HETATM   10  C6  UNK     1      11.996   8.598   9.624  1.00  0.00     0.127 A 
HETATM   11  C7  UNK     1      16.124   6.021   9.675  1.00  0.00     0.134 A 
HETATM   12  C8  UNK     1      10.632   8.719   9.379  1.00  0.00     0.134 A 
HETATM   13  C9  UNK     1      10.603   6.407   8.649  1.00  0.00     0.058 A 
HETATM   14  C10 UNK     1      16.153   8.334  10.404  1.00  0.00     0.058 A 
HETATM   15  C11 UNK     1      12.692   5.029   8.651  1.00  0.00     0.299 A 
HETATM   16  C12 UNK     1      14.065   9.711  10.403  1.00  0.00     0.299 A 
HETATM   17  C13 UNK     1      16.820   7.127  10.165  1.00  0.00     0.102 A 
HETATM   18  C14 UNK     1       9.937   7.614   8.888  1.00  0.00     0.102 A 
ENDROOT
BRANCH  11  19
HETATM   19  O3  UNK     1      16.769   4.847   9.441  1.00  0.00    -0.356 OA
HETATM   20  H3  UNK     1      17.579   5.037   8.937  1.00  0.00     0.218 HD
ENDBRANCH  11  19
BRANCH  17  21
HETATM   21  O5  UNK     1      18.156   7.043  10.418  1.00  0.00    -0.358 OA
HETATM   22  H5  UNK     1      18.568   7.908  10.242  1.00  0.00     0.217 HD
ENDBRANCH  17  21
BRANCH  12  23
HETATM   23  O4  UNK     1       9.987   9.894   9.613  1.00  0.00    -0.356 OA
HETATM   24  H4  UNK     1      10.430  10.373  10.332  1.00  0.00     0.218 HD
ENDBRANCH  12  23
BRANCH  18  25
HETATM   25  O6  UNK     1       8.600   7.697   8.636  1.00  0.00    -0.358 OA
HETATM   26  H6  UNK     1       8.122   7.868   9.464  1.00  0.00     0.217 HD
ENDBRANCH  18  25
TORSDOF 4
ENDMDL
MODEL 4
REMARK VINA RESULT:      -8.2     24.685     26.160
REMARK  4 active torsions:
REMARK  status: ('A' for Active; 'I' for Inactive)
REMARK    1  A    between atoms: C7_15  and  O3_3 
REMARK    2  A    between atoms: C8_16  and  O4_4 
REMARK    3  A    between atoms: C13_21  and  O5_5 
REMARK    4  A    between atoms: C14_22  and  O6_6 
ROOT
HETATM    1  O1  UNK     1      12.693   9.721  10.125  1.00  0.00    -0.271 OA
HETATM    2  O2  UNK     1      14.066   5.022   8.930  1.00  0.00    -0.271 OA
HETATM    3  O7  UNK     1      14.637  10.703  10.839  1.00  0.00    -0.259 OA
HETATM    4  O8  UNK     1      12.122   4.040   8.218  1.00  0.00    -0.259 OA
HETATM    5  C1  UNK     1      12.677   7.408   9.393  1.00  0.00     0.031 A 
HETATM    6  C2  UNK     1      14.083   7.336   9.662  1.00  0.00     0.031 A 
HETATM    7  C3  UNK     1      14.780   8.438  10.154  1.00  0.00     0.056 A 
HETATM    8  C4  UNK     1      11.980   6.306   8.900  1.00  0.00     0.056 A 
HETATM    9  C5  UNK     1      11.996   8.597   9.626  1.00  0.00     0.127 A 
HETATM   10  C6  UNK     1      14.763   6.147   9.429  1.00  0.00     0.127 A 
HETATM   11  C7  UNK     1      10.632   8.717   9.380  1.00  0.00     0.134 A 
HETATM   12  C8  UNK     1      16.128   6.026   9.674  1.00  0.00     0.134 A 
HETATM   13  C9  UNK     1      16.153   8.338  10.408  1.00  0.00     0.058 A 
HETATM   14  C10 UNK     1      10.607   6.406   8.645  1.00  0.00     0.058 A 
HETATM   15  C11 UNK     1      14.063   9.713  10.407  1.00  0.00     0.299 A 
HETATM   16  C12 UNK     1      12.696   5.031   8.648  1.00  0.00     0.299 A 
HETATM   17  C13 UNK     1       9.938   7.612   8.887  1.00  0.00     0.102 A 
HETATM   18  C14 UNK     1      16.821   7.132  10.167  1.00  0.00     0.102 A 
ENDROOT
BRANCH  11  19
HETATM   19  O3  UNK     1       9.985   9.891   9.615  1.00  0.00    -0.356 OA
HETATM   20  H3  UNK     1       9.654   9.880  10.530  1.00  0.00     0.218 HD
ENDBRANCH  11  19
BRANCH  17  21
HETATM   21  O5  UNK     1       8.602   7.694   8.636  1.00  0.00    -0.358 OA
HETATM   22  H5  UNK     1       8.276   8.564   8.925  1.00  0.00     0.217 HD
ENDBRANCH  17  21
BRANCH  12  23
HETATM   23  O4  UNK     1      16.774   4.853   9.439  1.00  0.00    -0.356 OA
HETATM   24  H4  UNK     1      16.255   4.311   8.822  1.00  0.00     0.218 HD
ENDBRANCH  12  23
BRANCH  18  25
HETATM   25  O6  UNK     1      18.158   7.050  10.419  1.00  0.00    -0.358 OA
HETATM   26  H6  UNK     1      18.303   6.615  11.275  1.00  0.00     0.217 HD
ENDBRANCH  18  25
TORSDOF 4
ENDMDL
MODEL 5
REMARK VINA RESULT:      -8.1      1.570      2.985
REMARK  4 active torsions:
REMARK  status: ('A' for Active; 'I' for Inactive)
REMARK    1  A    between atoms: C7_15  and  O3_3 
REMARK    2  A    between atoms: C8_16  and  O4_4 
REMARK    3  A    between atoms: C13_21  and  O5_5 
REMARK    4  A    between atoms: C14_22  and  O6_6 
ROOT
HETATM    1  O1  UNK     1      17.836   1.715  33.186  1.00  0.00    -0.271 OA
HETATM    2  O2  UNK     1      20.667  -1.708  30.806  1.00  0.00    -0.271 OA
HETATM    3  O7  UNK     1      17.599   0.866  35.301  1.00  0.00    -0.259 OA
HETATM    4  O8  UNK     1      20.901  -0.860  28.689  1.00  0.00    -0.259 OA
HETATM    5  C1  UNK     1      19.119   0.516  31.512  1.00  0.00     0.031 A 
HETATM    6  C2  UNK     1      19.384  -0.508  32.479  1.00  0.00     0.031 A 
HETATM    7  C3  UNK     1      18.882  -0.420  33.778  1.00  0.00     0.056 A 
HETATM    8  C4  UNK     1      19.620   0.428  30.214  1.00  0.00     0.056 A 
HETATM    9  C5  UNK     1      18.350   1.615  31.872  1.00  0.00     0.127 A 
HETATM   10  C6  UNK     1      20.153  -1.608  32.119  1.00  0.00     0.127 A 
HETATM   11  C7  UNK     1      18.065   2.635  30.969  1.00  0.00     0.134 A 
HETATM   12  C8  UNK     1      20.437  -2.627  33.022  1.00  0.00     0.134 A 
HETATM   13  C9  UNK     1      19.156  -1.435  34.701  1.00  0.00     0.058 A 
HETATM   14  C10 UNK     1      19.347   1.443  29.290  1.00  0.00     0.058 A 
HETATM   15  C11 UNK     1      18.059   0.751  34.173  1.00  0.00     0.299 A 
HETATM   16  C12 UNK     1      20.443  -0.742  29.818  1.00  0.00     0.299 A 
HETATM   17  C13 UNK     1      18.570   2.543  29.672  1.00  0.00     0.102 A 
HETATM   18  C14 UNK     1      19.933  -2.535  34.320  1.00  0.00     0.102 A 
ENDROOT
BRANCH  11  19
HETATM   19  O3  UNK     1      17.310   3.703  31.343  1.00  0.00    -0.356 OA
HETATM   20  H3  UNK     1      16.407   3.390  31.524  1.00  0.00     0.218 HD
ENDBRANCH  11  19
BRANCH  17  21
HETATM   21  O5  UNK     1      18.311   3.522  28.761  1.00  0.00    -0.358 OA
HETATM   22  H5  UNK     1      19.112   3.684  28.231  1.00  0.00     0.217 HD
ENDBRANCH  17  21
BRANCH  12  23
HETATM   23  O4  UNK     1      21.192  -3.695  32.648  1.00  0.00    -0.356 OA
HETATM   24  H4  UNK     1      21.357  -4.265  33.417  1.00  0.00     0.218 HD
ENDBRANCH  12  23
BRANCH  18  25
HETATM   25  O6  UNK     1      20.192  -3.515  35.231  1.00  0.00    -0.358 OA
HETATM   26  H6  UNK     1      20.249  -4.373  34.780  1.00  0.00     0.217 HD
ENDBRANCH  18  25
TORSDOF 4
ENDMDL
MODEL 6
REMARK VINA RESULT:      -8.1      1.575      5.994
REMARK  4 active torsions:
REMARK  status: ('A' for Active; 'I' for Inactive)
REMARK    1  A    between atoms: C7_15  and  O3_3 
REMARK    2  A    between atoms: C8_16  and  O4_4 
REMARK    3  A    between atoms: C13_21  and  O5_5 
REMARK    4  A    between atoms: C14_22  and  O6_6 
ROOT
HETATM    1  O1  UNK     1      20.648  -1.663  30.680  1.00  0.00    -0.271 OA
HETATM    2  O2  UNK     1      17.874   1.727  33.171  1.00  0.00    -0.271 OA
HETATM    3  O7  UNK     1      20.843  -0.781  28.573  1.00  0.00    -0.259 OA
HETATM    4  O8  UNK     1      17.676   0.844  35.277  1.00  0.00    -0.259 OA
HETATM    5  C1  UNK     1      19.401  -0.488  32.398  1.00  0.00     0.031 A 
HETATM    6  C2  UNK     1      19.120   0.552  31.453  1.00  0.00     0.031 A 
HETATM    7  C3  UNK     1      19.596   0.484  30.143  1.00  0.00     0.056 A 
HETATM    8  C4  UNK     1      18.926  -0.420  33.707  1.00  0.00     0.056 A 
HETATM    9  C5  UNK     1      20.160  -1.583  32.004  1.00  0.00     0.127 A 
HETATM   10  C6  UNK     1      18.361   1.648  31.846  1.00  0.00     0.127 A 
HETATM   11  C7  UNK     1      20.460  -2.618  32.885  1.00  0.00     0.134 A 
HETATM   12  C8  UNK     1      18.062   2.682  30.965  1.00  0.00     0.134 A 
HETATM   13  C9  UNK     1      19.306   1.514  29.242  1.00  0.00     0.058 A 
HETATM   14  C10 UNK     1      19.217  -1.450  34.609  1.00  0.00     0.058 A 
HETATM   15  C11 UNK     1      20.408  -0.682  29.713  1.00  0.00     0.299 A 
HETATM   16  C12 UNK     1      18.114   0.746  34.138  1.00  0.00     0.299 A 
HETATM   17  C13 UNK     1      19.983  -2.545  34.194  1.00  0.00     0.102 A 
HETATM   18  C14 UNK     1      18.539   2.610  29.657  1.00  0.00     0.102 A 
ENDROOT
BRANCH  11  19
HETATM   19  O3  UNK     1      21.205  -3.681  32.479  1.00  0.00    -0.356 OA
HETATM   20  H3  UNK     1      21.843  -3.371  31.813  1.00  0.00     0.218 HD
ENDBRANCH  11  19
BRANCH  17  21
HETATM   21  O5  UNK     1      20.256  -3.540  35.083  1.00  0.00    -0.358 OA
HETATM   22  H5  UNK     1      19.842  -4.366  34.774  1.00  0.00     0.217 HD
ENDBRANCH  17  21
BRANCH  12  23
HETATM   23  O4  UNK     1      17.317   3.746  31.372  1.00  0.00    -0.356 OA
HETATM   24  H4  UNK     1      17.568   4.535  30.864  1.00  0.00     0.218 HD
ENDBRANCH  12  23
BRANCH  18  25
HETATM   25  O6  UNK     1      18.265   3.605  28.767  1.00  0.00    -0.358 OA
HETATM   26  H6  UNK     1      18.851   3.525  27.997  1.00  0.00     0.217 HD
ENDBRANCH  18  25
TORSDOF 4
ENDMDL
MODEL 7
REMARK VINA RESULT:      -8.1     17.152     18.636
REMARK  4 active torsions:
REMARK  status: ('A' for Active; 'I' for Inactive)
REMARK    1  A    between atoms: C7_15  and  O3_3 
REMARK    2  A    between atoms: C8_16  and  O4_4 
REMARK    3  A    between atoms: C13_21  and  O5_5 
REMARK    4  A    between atoms: C14_22  and  O6_6 
ROOT
HETATM    1  O1  UNK     1      17.657  -1.868  15.674  1.00  0.00    -0.271 OA
HETATM    2  O2  UNK     1      18.942  -6.536  14.276  1.00  0.00    -0.271 OA
HETATM    3  O7  UNK     1      15.891  -2.182  17.101  1.00  0.00    -0.259 OA
HETATM    4  O8  UNK     1      20.707  -6.222  12.847  1.00  0.00    -0.259 OA
HETATM    5  C1  UNK     1      18.754  -3.765  14.634  1.00  0.00     0.031 A 
HETATM    6  C2  UNK     1      17.845  -4.638  15.317  1.00  0.00     0.031 A 
HETATM    7  C3  UNK     1      16.860  -4.132  16.164  1.00  0.00     0.056 A 
HETATM    8  C4  UNK     1      19.740  -4.271  13.787  1.00  0.00     0.056 A 
HETATM    9  C5  UNK     1      18.653  -2.392  14.818  1.00  0.00     0.127 A 
HETATM   10  C6  UNK     1      17.947  -6.012  15.132  1.00  0.00     0.127 A 
HETATM   11  C7  UNK     1      19.512  -1.504  14.178  1.00  0.00     0.134 A 
HETATM   12  C8  UNK     1      17.088  -6.900  15.773  1.00  0.00     0.134 A 
HETATM   13  C9  UNK     1      15.986  -5.008  16.817  1.00  0.00     0.058 A 
HETATM   14  C10 UNK     1      20.615  -3.395  13.134  1.00  0.00     0.058 A 
HETATM   15  C11 UNK     1      16.743  -2.667  16.367  1.00  0.00     0.299 A 
HETATM   16  C12 UNK     1      19.857  -5.736  13.583  1.00  0.00     0.299 A 
HETATM   17  C13 UNK     1      20.497  -2.014  13.332  1.00  0.00     0.102 A 
HETATM   18  C14 UNK     1      16.103  -6.389  16.619  1.00  0.00     0.102 A 
ENDROOT
BRANCH  11  19
HETATM   19  O3  UNK     1      19.395  -0.163  14.372  1.00  0.00    -0.356 OA
HETATM   20  H3  UNK     1      19.020   0.232  13.566  1.00  0.00     0.218 HD
ENDBRANCH  11  19
BRANCH  17  21
HETATM   21  O5  UNK     1      21.355  -1.175  12.688  1.00  0.00    -0.358 OA
HETATM   22  H5  UNK     1      21.996  -1.703  12.181  1.00  0.00     0.217 HD
ENDBRANCH  17  21
BRANCH  12  23
HETATM   23  O4  UNK     1      17.205  -8.241  15.578  1.00  0.00    -0.356 OA
HETATM   24  H4  UNK     1      17.782  -8.412  14.816  1.00  0.00     0.218 HD
ENDBRANCH  12  23
BRANCH  18  25
HETATM   25  O6  UNK     1      15.245  -7.229  17.263  1.00  0.00    -0.358 OA
HETATM   26  H6  UNK     1      14.531  -6.715  17.674  1.00  0.00     0.217 HD
ENDBRANCH  18  25
TORSDOF 4
ENDMDL
MODEL 8
REMARK VINA RESULT:      -8.1     17.150     19.404
REMARK  4 active torsions:
REMARK  status: ('A' for Active; 'I' for Inactive)
REMARK    1  A    between atoms: C7_15  and  O3_3 
REMARK    2  A    between atoms: C8_16  and  O4_4 
REMARK    3  A    between atoms: C13_21  and  O5_5 
REMARK    4  A    between atoms: C14_22  and  O6_6 
ROOT
HETATM    1  O1  UNK     1      18.946  -6.518  14.243  1.00  0.00    -0.271 OA
HETATM    2  O2  UNK     1      17.669  -1.857  15.672  1.00  0.00    -0.271 OA
HETATM    3  O7  UNK     1      20.704  -6.196  12.809  1.00  0.00    -0.259 OA
HETATM    4  O8  UNK     1      15.908  -2.178  17.105  1.00  0.00    -0.259 OA
HETATM    5  C1  UNK     1      17.854  -4.626  15.299  1.00  0.00     0.031 A 
HETATM    6  C2  UNK     1      18.760  -3.749  14.617  1.00  0.00     0.031 A 
HETATM    7  C3  UNK     1      19.742  -4.251  13.762  1.00  0.00     0.056 A 
HETATM    8  C4  UNK     1      16.873  -4.124  16.153  1.00  0.00     0.056 A 
HETATM    9  C5  UNK     1      17.955  -5.998  15.107  1.00  0.00     0.127 A 
HETATM   10  C6  UNK     1      18.660  -2.377  14.809  1.00  0.00     0.127 A 
HETATM   11  C7  UNK     1      17.098  -6.889  15.747  1.00  0.00     0.134 A 
HETATM   12  C8  UNK     1      19.516  -1.486  14.169  1.00  0.00     0.134 A 
HETATM   13  C9  UNK     1      20.613  -3.371  13.109  1.00  0.00     0.058 A 
HETATM   14  C10 UNK     1      16.002  -5.004  16.807  1.00  0.00     0.058 A 
HETATM   15  C11 UNK     1      19.858  -5.716  13.551  1.00  0.00     0.299 A 
HETATM   16  C12 UNK     1      16.756  -2.660  16.366  1.00  0.00     0.299 A 
HETATM   17  C13 UNK     1      16.119  -6.383  16.601  1.00  0.00     0.102 A 
HETATM   18  C14 UNK     1      20.496  -1.992  13.315  1.00  0.00     0.102 A 
ENDROOT
BRANCH  11  19
HETATM   19  O3  UNK     1      17.214  -8.229  15.545  1.00  0.00    -0.356 OA
HETATM   20  H3  UNK     1      17.864  -8.377  14.835  1.00  0.00     0.218 HD
ENDBRANCH  11  19
BRANCH  17  21
HETATM   21  O5  UNK     1      15.263  -7.226  17.243  1.00  0.00    -0.358 OA
HETATM   22  H5  UNK     1      15.592  -7.388  18.145  1.00  0.00     0.217 HD
ENDBRANCH  17  21
BRANCH  12  23
HETATM   23  O4  UNK     1      19.400  -0.146  14.371  1.00  0.00    -0.356 OA
HETATM   24  H4  UNK     1      20.277   0.238  14.535  1.00  0.00     0.218 HD
ENDBRANCH  12  23
BRANCH  18  25
HETATM   25  O6  UNK     1      21.352  -1.149  12.672  1.00  0.00    -0.358 OA
HETATM   26  H6  UNK     1      21.880  -1.647  12.027  1.00  0.00     0.217 HD
ENDBRANCH  18  25
TORSDOF 4
ENDMDL
MODEL 9
REMARK VINA RESULT:      -7.9      1.331      5.167
REMARK  4 active torsions:
REMARK  status: ('A' for Active; 'I' for Inactive)
REMARK    1  A    between atoms: C7_15  and  O3_3 
REMARK    2  A    between atoms: C8_16  and  O4_4 
REMARK    3  A    between atoms: C13_21  and  O5_5 
REMARK    4  A    between atoms: C14_22  and  O6_6 
ROOT
HETATM    1  O1  UNK     1      17.947   2.056  33.261  1.00  0.00    -0.271 OA
HETATM    2  O2  UNK     1      20.211  -2.403  32.639  1.00  0.00    -0.271 OA
HETATM    3  O7  UNK     1      17.854   2.932  31.144  1.00  0.00    -0.259 OA
HETATM    4  O8  UNK     1      20.306  -3.278  34.756  1.00  0.00    -0.259 OA
HETATM    5  C1  UNK     1      18.943  -0.121  33.652  1.00  0.00     0.031 A 
HETATM    6  C2  UNK     1      19.214  -0.226  32.248  1.00  0.00     0.031 A 
HETATM    7  C3  UNK     1      18.856   0.795  31.367  1.00  0.00     0.056 A 
HETATM    8  C4  UNK     1      19.301  -1.141  34.532  1.00  0.00     0.056 A 
HETATM    9  C5  UNK     1      18.314   1.015  34.144  1.00  0.00     0.127 A 
HETATM   10  C6  UNK     1      19.844  -1.363  31.756  1.00  0.00     0.127 A 
HETATM   11  C7  UNK     1      18.030   1.163  35.499  1.00  0.00     0.134 A 
HETATM   12  C8  UNK     1      20.128  -1.511  30.401  1.00  0.00     0.134 A 
HETATM   13  C9  UNK     1      19.134   0.665  30.002  1.00  0.00     0.058 A 
HETATM   14  C10 UNK     1      19.023  -1.013  35.898  1.00  0.00     0.058 A 
HETATM   15  C11 UNK     1      18.184   2.013  31.883  1.00  0.00     0.299 A 
HETATM   16  C12 UNK     1      19.973  -2.360  34.018  1.00  0.00     0.299 A 
HETATM   17  C13 UNK     1      18.388   0.140  36.376  1.00  0.00     0.102 A 
HETATM   18  C14 UNK     1      19.768  -0.488  29.524  1.00  0.00     0.102 A 
ENDROOT
BRANCH  11  19
HETATM   19  O3  UNK     1      17.413   2.285  35.959  1.00  0.00    -0.356 OA
HETATM   20  H3  UNK     1      16.490   2.276  35.650  1.00  0.00     0.218 HD
ENDBRANCH  11  19
BRANCH  17  21
HETATM   21  O5  UNK     1      18.126   0.251  37.708  1.00  0.00    -0.358 OA
HETATM   22  H5  UNK     1      17.823   1.157  37.898  1.00  0.00     0.217 HD
ENDBRANCH  17  21
BRANCH  12  23
HETATM   23  O4  UNK     1      20.745  -2.632  29.941  1.00  0.00    -0.356 OA
HETATM   24  H4  UNK     1      21.547  -2.387  29.451  1.00  0.00     0.218 HD
ENDBRANCH  12  23
BRANCH  18  25
HETATM   25  O6  UNK     1      20.031  -0.599  28.192  1.00  0.00    -0.358 OA
HETATM   26  H6  UNK     1      19.277  -0.263  27.681  1.00  0.00     0.217 HD
ENDBRANCH  18  25
TORSDOF 4
ENDMDL
MODEL 10
REMARK VINA RESULT:      -7.9      1.328      3.861
REMARK  4 active torsions:
REMARK  status: ('A' for Active; 'I' for Inactive)
REMARK    1  A    between atoms: C7_15  and  O3_3 
REMARK    2  A    between atoms: C8_16  and  O4_4 
REMARK    3  A    between atoms: C13_21  and  O5_5 
REMARK    4  A    between atoms: C14_22  and  O6_6 
ROOT
HETATM    1  O1  UNK     1      20.194  -2.423  32.644  1.00  0.00    -0.271 OA
HETATM    2  O2  UNK     1      17.943   2.043  33.263  1.00  0.00    -0.271 OA
HETATM    3  O7  UNK     1      20.284  -3.298  34.761  1.00  0.00    -0.259 OA
HETATM    4  O8  UNK     1      17.856   2.919  31.147  1.00  0.00    -0.259 OA
HETATM    5  C1  UNK     1      19.205  -0.243  32.252  1.00  0.00     0.031 A 
HETATM    6  C2  UNK     1      18.933  -0.137  33.655  1.00  0.00     0.031 A 
HETATM    7  C3  UNK     1      19.287  -1.159  34.536  1.00  0.00     0.056 A 
HETATM    8  C4  UNK     1      18.851   0.778  31.371  1.00  0.00     0.056 A 
HETATM    9  C5  UNK     1      19.831  -1.381  31.760  1.00  0.00     0.127 A 
HETATM   10  C6  UNK     1      18.307   1.002  34.147  1.00  0.00     0.127 A 
HETATM   11  C7  UNK     1      20.116  -1.530  30.406  1.00  0.00     0.134 A 
HETATM   12  C8  UNK     1      18.022   1.151  35.501  1.00  0.00     0.134 A 
HETATM   13  C9  UNK     1      19.009  -1.028  35.902  1.00  0.00     0.058 A 
HETATM   14  C10 UNK     1      19.127   0.648  30.005  1.00  0.00     0.058 A 
HETATM   15  C11 UNK     1      19.956  -2.379  34.021  1.00  0.00     0.299 A 
HETATM   16  C12 UNK     1      18.181   1.999  31.885  1.00  0.00     0.299 A 
HETATM   17  C13 UNK     1      19.759  -0.507  29.528  1.00  0.00     0.102 A 
HETATM   18  C14 UNK     1      18.378   0.127  36.379  1.00  0.00     0.102 A 
ENDROOT
BRANCH  11  19
HETATM   19  O3  UNK     1      20.730  -2.653  29.946  1.00  0.00    -0.356 OA
HETATM   20  H3  UNK     1      20.095  -3.390  29.990  1.00  0.00     0.218 HD
ENDBRANCH  11  19
BRANCH  17  21
HETATM   21  O5  UNK     1      20.023  -0.618  28.196  1.00  0.00    -0.358 OA
HETATM   22  H5  UNK     1      19.452  -0.001  27.705  1.00  0.00     0.217 HD
ENDBRANCH  17  21
BRANCH  12  23
HETATM   23  O4  UNK     1      17.408   2.274  35.961  1.00  0.00    -0.356 OA
HETATM   24  H4  UNK     1      18.069   2.876  36.342  1.00  0.00     0.218 HD
ENDBRANCH  12  23
BRANCH  18  25
HETATM   25  O6  UNK     1      18.114   0.239  37.711  1.00  0.00    -0.358 OA
HETATM   26  H6  UNK     1      18.648   0.955  38.091  1.00  0.00     0.217 HD
ENDBRANCH  18  25
TORSDOF 4
ENDMDL
