MODEL 1
REMARK VINA RESULT:      -7.0      0.000      0.000
REMARK  1 active torsions:
REMARK  status: ('A' for Active; 'I' for Inactive)
REMARK    1  A    between atoms: C2_8  and  S1_2 
ROOT
HETATM    1  O1  UNK     1      19.317   0.399  14.587  1.00  0.00    -0.275 OA
HETATM    2  O4  UNK     1      19.274  -1.164  12.914  1.00  0.00    -0.260 OA
HETATM    3  C1  UNK     1      18.966  -0.318  16.887  1.00  0.00    -0.001 A 
HETATM    4  C2  UNK     1      19.014   1.343  18.645  1.00  0.00     0.075 A 
HETATM    5  C3  UNK     1      19.210   0.693  15.962  1.00  0.00     0.089 A 
HETATM    6  C4  UNK     1      18.867   0.013  18.240  1.00  0.00     0.038 A 
HETATM    7  C5  UNK     1      19.258   2.345  17.704  1.00  0.00     0.027 A 
HETATM    8  C6  UNK     1      19.358   2.023  16.352  1.00  0.00     0.040 A 
HETATM    9  C7  UNK     1      18.822  -1.684  16.410  1.00  0.00     0.020 A 
HETATM   10  C8  UNK     1      18.925  -1.954  15.106  1.00  0.00     0.083 A 
HETATM   11  C9  UNK     1      19.184  -0.900  14.108  1.00  0.00     0.288 A 
ENDROOT
BRANCH   4  12
HETATM   12  S1  UNK     1      18.889   1.754  20.339  1.00  0.00     0.262 S 
HETATM   13 Cl1  UNK     1      19.671   0.096  21.250  1.00  0.00     0.024 Cl
HETATM   14  O2  UNK     1      17.488   1.797  20.715  1.00  0.00    -0.206 OA
HETATM   15  O3  UNK     1      19.807   2.830  20.661  1.00  0.00    -0.206 OA
ENDBRANCH   4  12
TORSDOF 1
ENDMDL
MODEL 2
REMARK VINA RESULT:      -6.8     12.355     14.140
REMARK  1 active torsions:
REMARK  status: ('A' for Active; 'I' for Inactive)
REMARK    1  A    between atoms: C2_8  and  S1_2 
ROOT
HETATM    1  O1  UNK     1      18.921   0.575  28.547  1.00  0.00    -0.275 OA
HETATM    2  O4  UNK     1      17.816   2.458  27.856  1.00  0.00    -0.260 OA
HETATM    3  C1  UNK     1      19.402   0.288  30.916  1.00  0.00    -0.001 A 
HETATM    4  C2  UNK     1      20.570  -1.705  31.634  1.00  0.00     0.075 A 
HETATM    5  C3  UNK     1      19.471  -0.177  29.606  1.00  0.00     0.089 A 
HETATM    6  C4  UNK     1      19.957  -0.486  31.937  1.00  0.00     0.038 A 
HETATM    7  C5  UNK     1      20.631  -2.156  30.314  1.00  0.00     0.027 A 
HETATM    8  C6  UNK     1      20.079  -1.390  29.289  1.00  0.00     0.040 A 
HETATM    9  C7  UNK     1      18.753   1.563  31.174  1.00  0.00     0.020 A 
HETATM   10  C8  UNK     1      18.235   2.269  30.166  1.00  0.00     0.083 A 
HETATM   11  C9  UNK     1      18.295   1.797  28.770  1.00  0.00     0.288 A 
ENDROOT
BRANCH   4  12
HETATM   12  S1  UNK     1      21.265  -2.670  32.914  1.00  0.00     0.262 S 
HETATM   13 Cl1  UNK     1      19.847  -2.534  34.384  1.00  0.00     0.024 Cl
HETATM   14  O2  UNK     1      22.444  -1.999  33.429  1.00  0.00    -0.206 OA
HETATM   15  O3  UNK     1      21.280  -4.070  32.533  1.00  0.00    -0.206 OA
ENDBRANCH   4  12
TORSDOF 1
ENDMDL
MODEL 3
REMARK VINA RESULT:      -6.8     15.299     16.717
REMARK  1 active torsions:
REMARK  status: ('A' for Active; 'I' for Inactive)
REMARK    1  A    between atoms: C2_8  and  S1_2 
ROOT
HETATM    1  O1  UNK     1      20.672   6.349  32.710  1.00  0.00    -0.275 OA
HETATM    2  O4  UNK     1      22.526   5.715  31.525  1.00  0.00    -0.260 OA
HETATM    3  C1  UNK     1      18.527   6.486  31.567  1.00  0.00    -0.001 A 
HETATM    4  C2  UNK     1      16.575   7.156  32.830  1.00  0.00     0.075 A 
HETATM    5  C3  UNK     1      19.288   6.616  32.726  1.00  0.00     0.089 A 
HETATM    6  C4  UNK     1      17.159   6.759  31.623  1.00  0.00     0.038 A 
HETATM    7  C5  UNK     1      17.353   7.283  33.983  1.00  0.00     0.027 A 
HETATM    8  C6  UNK     1      18.720   7.012  33.935  1.00  0.00     0.040 A 
HETATM    9  C7  UNK     1      19.185   6.069  30.340  1.00  0.00     0.020 A 
HETATM   10  C8  UNK     1      20.497   5.818  30.334  1.00  0.00     0.083 A 
HETATM   11  C9  UNK     1      21.323   5.949  31.548  1.00  0.00     0.288 A 
ENDROOT
BRANCH   4  12
HETATM   12  S1  UNK     1      14.863   7.498  32.896  1.00  0.00     0.262 S 
HETATM   13 Cl1  UNK     1      14.815   9.536  32.712  1.00  0.00     0.024 Cl
HETATM   14  O2  UNK     1      14.371   7.202  34.229  1.00  0.00    -0.206 OA
HETATM   15  O3  UNK     1      14.207   6.996  31.704  1.00  0.00    -0.206 OA
ENDBRANCH   4  12
TORSDOF 1
ENDMDL
MODEL 4
REMARK VINA RESULT:      -6.6     13.639     15.484
REMARK  1 active torsions:
REMARK  status: ('A' for Active; 'I' for Inactive)
REMARK    1  A    between atoms: C2_8  and  S1_2 
ROOT
HETATM    1  O1  UNK     1      19.782   0.417  30.207  1.00  0.00    -0.275 OA
HETATM    2  O4  UNK     1      20.771  -0.490  28.352  1.00  0.00    -0.260 OA
HETATM    3  C1  UNK     1      19.310  -1.017  32.117  1.00  0.00    -0.001 A 
HETATM    4  C2  UNK     1      18.265  -0.047  34.072  1.00  0.00     0.075 A 
HETATM    5  C3  UNK     1      19.276   0.236  31.511  1.00  0.00     0.089 A 
HETATM    6  C4  UNK     1      18.799  -1.156  33.409  1.00  0.00     0.038 A 
HETATM    7  C5  UNK     1      18.239   1.202  33.449  1.00  0.00     0.027 A 
HETATM    8  C6  UNK     1      18.747   1.350  32.160  1.00  0.00     0.040 A 
HETATM    9  C7  UNK     1      19.877  -2.136  31.382  1.00  0.00     0.020 A 
HETATM   10  C8  UNK     1      20.354  -1.955  30.148  1.00  0.00     0.083 A 
HETATM   11  C9  UNK     1      20.329  -0.638  29.486  1.00  0.00     0.288 A 
ENDROOT
BRANCH   4  12
HETATM   12  S1  UNK     1      17.627  -0.226  35.688  1.00  0.00     0.262 S 
HETATM   13 Cl1  UNK     1      15.644   0.207  35.427  1.00  0.00     0.024 Cl
HETATM   14  O2  UNK     1      18.162   0.829  36.529  1.00  0.00    -0.206 OA
HETATM   15  O3  UNK     1      17.659  -1.620  36.087  1.00  0.00    -0.206 OA
ENDBRANCH   4  12
TORSDOF 1
ENDMDL
MODEL 5
REMARK VINA RESULT:      -6.5     11.216     12.441
REMARK  1 active torsions:
REMARK  status: ('A' for Active; 'I' for Inactive)
REMARK    1  A    between atoms: C2_8  and  S1_2 
ROOT
HETATM    1  O1  UNK     1      16.234   6.265   9.552  1.00  0.00    -0.275 OA
HETATM    2  O4  UNK     1      18.081   7.380  10.321  1.00  0.00    -0.260 OA
HETATM    3  C1  UNK     1      14.039   7.280   9.830  1.00  0.00    -0.001 A 
HETATM    4  C2  UNK     1      12.095   6.092   9.013  1.00  0.00     0.075 A 
HETATM    5  C3  UNK     1      14.835   6.229   9.382  1.00  0.00     0.089 A 
HETATM    6  C4  UNK     1      12.657   7.208   9.642  1.00  0.00     0.038 A 
HETATM    7  C5  UNK     1      12.909   5.047   8.571  1.00  0.00     0.027 A 
HETATM    8  C6  UNK     1      14.289   5.112   8.754  1.00  0.00     0.040 A 
HETATM    9  C7  UNK     1      14.676   8.415  10.476  1.00  0.00     0.020 A 
HETATM   10  C8  UNK     1      16.002   8.441  10.634  1.00  0.00     0.083 A 
HETATM   11  C9  UNK     1      16.865   7.341  10.168  1.00  0.00     0.288 A 
ENDROOT
BRANCH   4  12
HETATM   12  S1  UNK     1      10.366   6.006   8.781  1.00  0.00     0.262 S 
HETATM   13 Cl1  UNK     1      10.191   6.124   6.745  1.00  0.00     0.024 Cl
HETATM   14  O2  UNK     1       9.755   7.211   9.308  1.00  0.00    -0.206 OA
HETATM   15  O3  UNK     1       9.882   4.682   9.125  1.00  0.00    -0.206 OA
ENDBRANCH   4  12
TORSDOF 1
ENDMDL
MODEL 6
REMARK VINA RESULT:      -6.5     13.835     16.073
REMARK  1 active torsions:
REMARK  status: ('A' for Active; 'I' for Inactive)
REMARK    1  A    between atoms: C2_8  and  S1_2 
ROOT
HETATM    1  O1  UNK     1      18.410   3.252  31.479  1.00  0.00    -0.275 OA
HETATM    2  O4  UNK     1      18.809   1.992  29.609  1.00  0.00    -0.260 OA
HETATM    3  C1  UNK     1      18.597   5.675  31.335  1.00  0.00    -0.001 A 
HETATM    4  C2  UNK     1      18.173   6.996  33.317  1.00  0.00     0.075 A 
HETATM    5  C3  UNK     1      18.337   4.527  32.078  1.00  0.00     0.089 A 
HETATM    6  C4  UNK     1      18.513   6.919  31.963  1.00  0.00     0.038 A 
HETATM    7  C5  UNK     1      17.916   5.834  34.048  1.00  0.00     0.027 A 
HETATM    8  C6  UNK     1      17.997   4.588  33.428  1.00  0.00     0.040 A 
HETATM    9  C7  UNK     1      18.946   5.537  29.931  1.00  0.00     0.020 A 
HETATM   10  C8  UNK     1      19.014   4.326  29.372  1.00  0.00     0.083 A 
HETATM   11  C9  UNK     1      18.742   3.096  30.138  1.00  0.00     0.288 A 
ENDROOT
BRANCH   4  12
HETATM   12  S1  UNK     1      18.070   8.554  34.100  1.00  0.00     0.262 S 
HETATM   13 Cl1  UNK     1      20.024   8.936  34.577  1.00  0.00     0.024 Cl
HETATM   14  O2  UNK     1      17.369   8.407  35.362  1.00  0.00    -0.206 OA
HETATM   15  O3  UNK     1      17.712   9.576  33.135  1.00  0.00    -0.206 OA
ENDBRANCH   4  12
TORSDOF 1
ENDMDL
MODEL 7
REMARK VINA RESULT:      -6.5     13.389     15.110
REMARK  1 active torsions:
REMARK  status: ('A' for Active; 'I' for Inactive)
REMARK    1  A    between atoms: C2_8  and  S1_2 
ROOT
HETATM    1  O1  UNK     1      19.041   3.280  29.497  1.00  0.00    -0.275 OA
HETATM    2  O4  UNK     1      19.194   1.049  29.005  1.00  0.00    -0.260 OA
HETATM    3  C1  UNK     1      18.398   3.955  31.746  1.00  0.00    -0.001 A 
HETATM    4  C2  UNK     1      18.241   6.315  32.254  1.00  0.00     0.075 A 
HETATM    5  C3  UNK     1      18.766   4.288  30.445  1.00  0.00     0.089 A 
HETATM    6  C4  UNK     1      18.134   4.981  32.656  1.00  0.00     0.038 A 
HETATM    7  C5  UNK     1      18.611   6.631  30.945  1.00  0.00     0.027 A 
HETATM    8  C6  UNK     1      18.876   5.613  30.031  1.00  0.00     0.040 A 
HETATM    9  C7  UNK     1      18.303   2.551  32.111  1.00  0.00     0.020 A 
HETATM   10  C8  UNK     1      18.565   1.604  31.207  1.00  0.00     0.083 A 
HETATM   11  C9  UNK     1      18.957   1.931  29.823  1.00  0.00     0.288 A 
ENDROOT
BRANCH   4  12
HETATM   12  S1  UNK     1      17.909   7.596  33.395  1.00  0.00     0.262 S 
HETATM   13 Cl1  UNK     1      19.781   8.084  34.063  1.00  0.00     0.024 Cl
HETATM   14  O2  UNK     1      17.205   7.043  34.538  1.00  0.00    -0.206 OA
HETATM   15  O3  UNK     1      17.437   8.777  32.698  1.00  0.00    -0.206 OA
ENDBRANCH   4  12
TORSDOF 1
ENDMDL
MODEL 8
REMARK VINA RESULT:      -6.5     14.497     16.542
REMARK  1 active torsions:
REMARK  status: ('A' for Active; 'I' for Inactive)
REMARK    1  A    between atoms: C2_8  and  S1_2 
ROOT
HETATM    1  O1  UNK     1      19.010   0.153  31.163  1.00  0.00    -0.275 OA
HETATM    2  O4  UNK     1      19.339   1.029  29.073  1.00  0.00    -0.260 OA
HETATM    3  C1  UNK     1      18.305   1.628  32.967  1.00  0.00    -0.001 A 
HETATM    4  C2  UNK     1      17.961   0.691  35.171  1.00  0.00     0.075 A 
HETATM    5  C3  UNK     1      18.653   0.359  32.512  1.00  0.00     0.089 A 
HETATM    6  C4  UNK     1      17.956   1.792  34.309  1.00  0.00     0.038 A 
HETATM    7  C5  UNK     1      18.313  -0.575  34.697  1.00  0.00     0.027 A 
HETATM    8  C6  UNK     1      18.662  -0.747  33.359  1.00  0.00     0.040 A 
HETATM    9  C7  UNK     1      18.317   2.737  32.028  1.00  0.00     0.020 A 
HETATM   10  C8  UNK     1      18.657   2.533  30.752  1.00  0.00     0.083 A 
HETATM   11  C9  UNK     1      19.028   1.199  30.247  1.00  0.00     0.288 A 
ENDROOT
BRANCH   4  12
HETATM   12  S1  UNK     1      17.525   0.900  36.850  1.00  0.00     0.262 S 
HETATM   13 Cl1  UNK     1      17.985  -0.925  37.653  1.00  0.00     0.024 Cl
HETATM   14  O2  UNK     1      16.084   1.034  36.953  1.00  0.00    -0.206 OA
HETATM   15  O3  UNK     1      18.433   1.833  37.489  1.00  0.00    -0.206 OA
ENDBRANCH   4  12
TORSDOF 1
ENDMDL
MODEL 9
REMARK VINA RESULT:      -6.4     19.848     21.628
REMARK  1 active torsions:
REMARK  status: ('A' for Active; 'I' for Inactive)
REMARK    1  A    between atoms: C2_8  and  S1_2 
ROOT
HETATM    1  O1  UNK     1      19.281  -9.519  37.004  1.00  0.00    -0.275 OA
HETATM    2  O4  UNK     1      19.343 -11.432  38.261  1.00  0.00    -0.260 OA
HETATM    3  C1  UNK     1      19.866  -7.398  38.047  1.00  0.00    -0.001 A 
HETATM    4  C2  UNK     1      19.797  -5.384  36.709  1.00  0.00     0.075 A 
HETATM    5  C3  UNK     1      19.461  -8.122  36.929  1.00  0.00     0.089 A 
HETATM    6  C4  UNK     1      20.035  -6.017  37.933  1.00  0.00     0.038 A 
HETATM    7  C5  UNK     1      19.391  -6.125  35.597  1.00  0.00     0.027 A 
HETATM    8  C6  UNK     1      19.221  -7.504  35.703  1.00  0.00     0.040 A 
HETATM    9  C7  UNK     1      20.100  -8.108  39.294  1.00  0.00     0.020 A 
HETATM   10  C8  UNK     1      19.926  -9.430  39.357  1.00  0.00     0.083 A 
HETATM   11  C9  UNK     1      19.498 -10.218  38.186  1.00  0.00     0.288 A 
ENDROOT
BRANCH   4  12
HETATM   12  S1  UNK     1      20.008  -3.655  36.570  1.00  0.00     0.262 S 
HETATM   13 Cl1  UNK     1      18.085  -2.967  36.697  1.00  0.00     0.024 Cl
HETATM   14  O2  UNK     1      20.461  -3.338  35.228  1.00  0.00    -0.206 OA
HETATM   15  O3  UNK     1      20.673  -3.137  37.750  1.00  0.00    -0.206 OA
ENDBRANCH   4  12
TORSDOF 1
ENDMDL
MODEL 10
REMARK VINA RESULT:      -6.4     11.481     12.694
REMARK  1 active torsions:
REMARK  status: ('A' for Active; 'I' for Inactive)
REMARK    1  A    between atoms: C2_8  and  S1_2 
ROOT
HETATM    1  O1  UNK     1      15.785   9.208   9.272  1.00  0.00    -0.275 OA
HETATM    2  O4  UNK     1      17.969   9.512   9.891  1.00  0.00    -0.260 OA
HETATM    3  C1  UNK     1      14.790   6.997   9.491  1.00  0.00    -0.001 A 
HETATM    4  C2  UNK     1      12.482   6.689   8.834  1.00  0.00     0.075 A 
HETATM    5  C3  UNK     1      14.684   8.339   9.133  1.00  0.00     0.089 A 
HETATM    6  C4  UNK     1      13.677   6.168   9.339  1.00  0.00     0.038 A 
HETATM    7  C5  UNK     1      12.393   8.037   8.480  1.00  0.00     0.027 A 
HETATM    8  C6  UNK     1      13.499   8.871   8.629  1.00  0.00     0.040 A 
HETATM    9  C7  UNK     1      16.056   6.509  10.010  1.00  0.00     0.020 A 
HETATM   10  C8  UNK     1      17.094   7.339  10.139  1.00  0.00     0.083 A 
HETATM   11  C9  UNK     1      17.006   8.764   9.767  1.00  0.00     0.288 A 
ENDROOT
BRANCH   4  12
HETATM   12  S1  UNK     1      11.092   5.647   8.644  1.00  0.00     0.262 S 
HETATM   13 Cl1  UNK     1      10.547   5.992   6.702  1.00  0.00     0.024 Cl
HETATM   14  O2  UNK     1      10.005   6.152   9.463  1.00  0.00    -0.206 OA
HETATM   15  O3  UNK     1      11.501   4.256   8.680  1.00  0.00    -0.206 OA
ENDBRANCH   4  12
TORSDOF 1
ENDMDL
