MODEL 1
REMARK VINA RESULT:      -9.5      0.000      0.000
REMARK  5 active torsions:
REMARK  status: ('A' for Active; 'I' for Inactive)
REMARK    1  A    between atoms: C5_12  and  O2_2 
REMARK    2  A    between atoms: C17_24  and  O5_5 
REMARK       I    between atoms: C7_14  and  N1_7 
REMARK    3  A    between atoms: C9_16  and  N1_7 
REMARK    4  A    between atoms: C3_10  and  C7_14 
REMARK    5  A    between atoms: C13_20  and  C17_24 
ROOT
HETATM    1  O3  UNK     1      21.343  -4.576  37.293  1.00  0.00    -0.267 OA
HETATM    2  N1  UNK     1      19.474  -5.521  36.216  1.00  0.00    -0.323 N 
HETATM    3  C7  UNK     1      20.306  -4.493  36.638  1.00  0.00     0.262 C 
HETATM    4  H5  UNK     1      18.658  -5.285  35.657  1.00  0.00     0.169 HD
ENDROOT
BRANCH   3   5
HETATM    5  C3  UNK     1      19.821  -3.177  36.206  1.00  0.00     0.108 A 
HETATM    6  C4  UNK     1      19.116  -2.482  37.105  1.00  0.00     0.037 A 
HETATM    7  C1  UNK     1      18.592  -1.166  36.770  1.00  0.00     0.002 A 
HETATM    8  C2  UNK     1      18.837  -0.648  35.503  1.00  0.00     0.123 A 
HETATM    9  C6  UNK     1      17.851  -0.406  37.679  1.00  0.00     0.014 A 
HETATM   10  O1  UNK     1      19.581  -1.384  34.559  1.00  0.00    -0.271 OA
HETATM   11  C5  UNK     1      18.364   0.605  35.118  1.00  0.00     0.102 A 
HETATM   12  C8  UNK     1      20.094  -2.644  34.851  1.00  0.00     0.304 A 
HETATM   13  O4  UNK     1      20.739  -3.278  34.023  1.00  0.00    -0.259 OA
HETATM   14  C10 UNK     1      17.626   1.357  36.030  1.00  0.00     0.040 A 
HETATM   15  C11 UNK     1      17.370   0.853  37.307  1.00  0.00     0.004 A 
BRANCH  11  16
HETATM   16  O2  UNK     1      18.610   1.100  33.877  1.00  0.00    -0.353 OA
HETATM   17  C18 UNK     1      18.158   2.426  33.603  1.00  0.00     0.210 C 
ENDBRANCH  11  16
ENDBRANCH   3   5
BRANCH   2  18
HETATM   18  C9  UNK     1      19.632  -6.910  36.447  1.00  0.00     0.035 A 
HETATM   19  C12 UNK     1      20.602  -7.607  35.748  1.00  0.00     0.047 A 
HETATM   20  C13 UNK     1      20.756  -8.975  35.976  1.00  0.00     0.041 A 
HETATM   21  C15 UNK     1      19.937  -9.624  36.899  1.00  0.00     0.018 A 
HETATM   22  C16 UNK     1      18.963  -8.907  37.594  1.00  0.00     0.003 A 
HETATM   23  C14 UNK     1      18.809  -7.540  37.366  1.00  0.00     0.029 A 
BRANCH  20  24
HETATM   24  C17 UNK     1      21.770  -9.724  35.252  1.00  0.00     0.293 C 
HETATM   25  O6  UNK     1      21.676 -10.014  34.058  1.00  0.00    -0.259 OA
BRANCH  24  26
HETATM   26  O5  UNK     1      22.846 -10.078  36.028  1.00  0.00    -0.323 OA
HETATM   27  C19 UNK     1      23.390 -11.384  35.804  1.00  0.00     0.213 C 
ENDBRANCH  24  26
ENDBRANCH  20  24
ENDBRANCH   2  18
TORSDOF 5
ENDMDL
MODEL 2
REMARK VINA RESULT:      -9.2      5.899     12.739
REMARK  5 active torsions:
REMARK  status: ('A' for Active; 'I' for Inactive)
REMARK    1  A    between atoms: C5_12  and  O2_2 
REMARK    2  A    between atoms: C17_24  and  O5_5 
REMARK       I    between atoms: C7_14  and  N1_7 
REMARK    3  A    between atoms: C9_16  and  N1_7 
REMARK    4  A    between atoms: C3_10  and  C7_14 
REMARK    5  A    between atoms: C13_20  and  C17_24 
ROOT
HETATM    1  O3  UNK     1      18.662   4.881  30.138  1.00  0.00    -0.267 OA
HETATM    2  N1  UNK     1      17.568   4.789  32.221  1.00  0.00    -0.323 N 
HETATM    3  C7  UNK     1      18.289   4.286  31.147  1.00  0.00     0.262 C 
HETATM    4  H5  UNK     1      17.355   4.165  32.996  1.00  0.00     0.169 HD
ENDROOT
BRANCH   3   5
HETATM    5  C3  UNK     1      18.609   2.863  31.313  1.00  0.00     0.108 A 
HETATM    6  C4  UNK     1      19.116   2.241  30.243  1.00  0.00     0.037 A 
HETATM    7  C1  UNK     1      19.464   0.830  30.310  1.00  0.00     0.002 A 
HETATM    8  C2  UNK     1      19.261   0.144  31.502  1.00  0.00     0.123 A 
HETATM    9  C6  UNK     1      19.996   0.142  29.216  1.00  0.00     0.014 A 
HETATM   10  O1  UNK     1      18.727   0.803  32.627  1.00  0.00    -0.271 OA
HETATM   11  C5  UNK     1      19.573  -1.208  31.633  1.00  0.00     0.102 A 
HETATM   12  C8  UNK     1      18.384   2.152  32.593  1.00  0.00     0.304 A 
HETATM   13  O4  UNK     1      17.919   2.717  33.577  1.00  0.00    -0.259 OA
HETATM   14  C10 UNK     1      20.103  -1.888  30.538  1.00  0.00     0.040 A 
HETATM   15  C11 UNK     1      20.314  -1.214  29.333  1.00  0.00     0.004 A 
BRANCH  11  16
HETATM   16  O2  UNK     1      19.369  -1.868  32.803  1.00  0.00    -0.353 OA
HETATM   17  C18 UNK     1      20.499  -2.512  33.393  1.00  0.00     0.210 C 
ENDBRANCH  11  16
ENDBRANCH   3   5
BRANCH   2  18
HETATM   18  C9  UNK     1      17.093   6.112  32.400  1.00  0.00     0.035 A 
HETATM   19  C12 UNK     1      17.925   7.058  32.972  1.00  0.00     0.047 A 
HETATM   20  C13 UNK     1      17.457   8.360  33.148  1.00  0.00     0.041 A 
HETATM   21  C15 UNK     1      16.163   8.696  32.750  1.00  0.00     0.018 A 
HETATM   22  C16 UNK     1      15.337   7.730  32.175  1.00  0.00     0.003 A 
HETATM   23  C14 UNK     1      15.806   6.428  31.999  1.00  0.00     0.029 A 
BRANCH  20  24
HETATM   24  C17 UNK     1      18.317   9.369  33.747  1.00  0.00     0.293 C 
HETATM   25  O6  UNK     1      18.148  10.581  33.596  1.00  0.00    -0.259 OA
BRANCH  24  26
HETATM   26  O5  UNK     1      19.338   8.841  34.498  1.00  0.00    -0.323 OA
HETATM   27  C19 UNK     1      20.567   9.575  34.505  1.00  0.00     0.213 C 
ENDBRANCH  24  26
ENDBRANCH  20  24
ENDBRANCH   2  18
TORSDOF 5
ENDMDL
MODEL 3
REMARK VINA RESULT:      -9.2      6.773     10.578
REMARK  5 active torsions:
REMARK  status: ('A' for Active; 'I' for Inactive)
REMARK    1  A    between atoms: C5_12  and  O2_2 
REMARK    2  A    between atoms: C17_24  and  O5_5 
REMARK       I    between atoms: C7_14  and  N1_7 
REMARK    3  A    between atoms: C9_16  and  N1_7 
REMARK    4  A    between atoms: C3_10  and  C7_14 
REMARK    5  A    between atoms: C13_20  and  C17_24 
ROOT
HETATM    1  O3  UNK     1      17.891   3.550  33.333  1.00  0.00    -0.267 OA
HETATM    2  N1  UNK     1      18.396   4.182  31.121  1.00  0.00    -0.323 N 
HETATM    3  C7  UNK     1      18.092   4.391  32.459  1.00  0.00     0.262 C 
HETATM    4  H5  UNK     1      18.555   4.992  30.528  1.00  0.00     0.169 HD
ENDROOT
BRANCH   3   5
HETATM    5  C3  UNK     1      18.023   5.819  32.794  1.00  0.00     0.108 A 
HETATM    6  C4  UNK     1      19.140   6.366  33.285  1.00  0.00     0.037 A 
HETATM    7  C1  UNK     1      19.170   7.775  33.646  1.00  0.00     0.002 A 
HETATM    8  C2  UNK     1      18.020   8.538  33.473  1.00  0.00     0.123 A 
HETATM    9  C6  UNK     1      20.315   8.387  34.162  1.00  0.00     0.014 A 
HETATM   10  O1  UNK     1      16.846   7.957  32.955  1.00  0.00    -0.271 OA
HETATM   11  C5  UNK     1      17.982   9.893  33.800  1.00  0.00     0.102 A 
HETATM   12  C8  UNK     1      16.788   6.612  32.600  1.00  0.00     0.304 A 
HETATM   13  O4  UNK     1      15.761   6.114  32.151  1.00  0.00    -0.259 OA
HETATM   14  C10 UNK     1      19.128  10.496  34.314  1.00  0.00     0.040 A 
HETATM   15  C11 UNK     1      20.291   9.745  34.495  1.00  0.00     0.004 A 
BRANCH  11  16
HETATM   16  O2  UNK     1      16.851  10.627  33.626  1.00  0.00    -0.353 OA
HETATM   17  C18 UNK     1      16.837  11.941  34.182  1.00  0.00     0.210 C 
ENDBRANCH  11  16
ENDBRANCH   3   5
BRANCH   2  18
HETATM   18  C9  UNK     1      18.543   2.941  30.452  1.00  0.00     0.035 A 
HETATM   19  C12 UNK     1      19.220   1.910  31.081  1.00  0.00     0.047 A 
HETATM   20  C13 UNK     1      19.365   0.689  30.421  1.00  0.00     0.041 A 
HETATM   21  C15 UNK     1      18.832   0.519  29.144  1.00  0.00     0.018 A 
HETATM   22  C16 UNK     1      18.154   1.568  28.525  1.00  0.00     0.003 A 
HETATM   23  C14 UNK     1      18.008   2.789  29.184  1.00  0.00     0.029 A 
BRANCH  20  24
HETATM   24  C17 UNK     1      20.071  -0.406  31.065  1.00  0.00     0.293 C 
HETATM   25  O6  UNK     1      21.297  -0.440  31.194  1.00  0.00    -0.259 OA
BRANCH  24  26
HETATM   26  O5  UNK     1      19.241  -1.402  31.518  1.00  0.00    -0.323 OA
HETATM   27  C19 UNK     1      18.717  -1.241  32.841  1.00  0.00     0.213 C 
ENDBRANCH  24  26
ENDBRANCH  20  24
ENDBRANCH   2  18
TORSDOF 5
ENDMDL
MODEL 4
REMARK VINA RESULT:      -9.2      2.298      8.668
REMARK  5 active torsions:
REMARK  status: ('A' for Active; 'I' for Inactive)
REMARK    1  A    between atoms: C5_12  and  O2_2 
REMARK    2  A    between atoms: C17_24  and  O5_5 
REMARK       I    between atoms: C7_14  and  N1_7 
REMARK    3  A    between atoms: C9_16  and  N1_7 
REMARK    4  A    between atoms: C3_10  and  C7_14 
REMARK    5  A    between atoms: C13_20  and  C17_24 
ROOT
HETATM    1  O3  UNK     1      20.931  -2.986  36.105  1.00  0.00    -0.267 OA
HETATM    2  N1  UNK     1      18.801  -2.764  37.085  1.00  0.00    -0.323 N 
HETATM    3  C7  UNK     1      19.980  -3.417  36.753  1.00  0.00     0.262 C 
HETATM    4  H5  UNK     1      18.116  -3.258  37.650  1.00  0.00     0.169 HD
ENDROOT
BRANCH   3   5
HETATM    5  C3  UNK     1      20.020  -4.787  37.280  1.00  0.00     0.108 A 
HETATM    6  C4  UNK     1      21.097  -5.111  38.004  1.00  0.00     0.037 A 
HETATM    7  C1  UNK     1      21.227  -6.446  38.569  1.00  0.00     0.002 A 
HETATM    8  C2  UNK     1      20.216  -7.373  38.342  1.00  0.00     0.123 A 
HETATM    9  C6  UNK     1      22.335  -6.827  39.331  1.00  0.00     0.014 A 
HETATM   10  O1  UNK     1      19.084  -7.027  37.579  1.00  0.00    -0.271 OA
HETATM   11  C5  UNK     1      20.280  -8.668  38.854  1.00  0.00     0.102 A 
HETATM   12  C8  UNK     1      18.931  -5.759  37.026  1.00  0.00     0.304 A 
HETATM   13  O4  UNK     1      17.942  -5.466  36.363  1.00  0.00    -0.259 OA
HETATM   14  C10 UNK     1      21.387  -9.041  39.613  1.00  0.00     0.040 A 
HETATM   15  C11 UNK     1      22.412  -8.123  39.850  1.00  0.00     0.004 A 
BRANCH  11  16
HETATM   16  O2  UNK     1      19.285  -9.565  38.625  1.00  0.00    -0.353 OA
HETATM   17  C18 UNK     1      19.580 -10.656  37.753  1.00  0.00     0.210 C 
ENDBRANCH  11  16
ENDBRANCH   3   5
BRANCH   2  18
HETATM   18  C9  UNK     1      18.423  -1.440  36.748  1.00  0.00     0.035 A 
HETATM   19  C12 UNK     1      18.542  -1.016  35.436  1.00  0.00     0.047 A 
HETATM   20  C13 UNK     1      18.170   0.287  35.105  1.00  0.00     0.041 A 
HETATM   21  C15 UNK     1      17.686   1.146  36.092  1.00  0.00     0.018 A 
HETATM   22  C16 UNK     1      17.573   0.702  37.409  1.00  0.00     0.003 A 
HETATM   23  C14 UNK     1      17.945  -0.601  37.740  1.00  0.00     0.029 A 
BRANCH  20  24
HETATM   24  C17 UNK     1      18.286   0.751  33.732  1.00  0.00     0.293 C 
HETATM   25  O6  UNK     1      17.690   1.739  33.297  1.00  0.00    -0.259 OA
BRANCH  24  26
HETATM   26  O5  UNK     1      19.125  -0.018  32.964  1.00  0.00    -0.323 OA
HETATM   27  C19 UNK     1      19.194   0.311  31.572  1.00  0.00     0.213 C 
ENDBRANCH  24  26
ENDBRANCH  20  24
ENDBRANCH   2  18
TORSDOF 5
ENDMDL
MODEL 5
REMARK VINA RESULT:      -9.2      4.462     11.566
REMARK  5 active torsions:
REMARK  status: ('A' for Active; 'I' for Inactive)
REMARK    1  A    between atoms: C5_12  and  O2_2 
REMARK    2  A    between atoms: C17_24  and  O5_5 
REMARK       I    between atoms: C7_14  and  N1_7 
REMARK    3  A    between atoms: C9_16  and  N1_7 
REMARK    4  A    between atoms: C3_10  and  C7_14 
REMARK    5  A    between atoms: C13_20  and  C17_24 
ROOT
HETATM    1  O3  UNK     1      17.755   2.862  32.177  1.00  0.00    -0.267 OA
HETATM    2  N1  UNK     1      18.363   4.078  34.100  1.00  0.00    -0.323 N 
HETATM    3  C7  UNK     1      18.093   2.937  33.357  1.00  0.00     0.262 C 
HETATM    4  H5  UNK     1      18.655   3.967  35.067  1.00  0.00     0.169 HD
ENDROOT
BRANCH   3   5
HETATM    5  C3  UNK     1      18.256   1.711  34.147  1.00  0.00     0.108 A 
HETATM    6  C4  UNK     1      17.952   1.799  35.446  1.00  0.00     0.037 A 
HETATM    7  C1  UNK     1      18.082   0.636  36.312  1.00  0.00     0.002 A 
HETATM    8  C2  UNK     1      18.527  -0.562  35.765  1.00  0.00     0.123 A 
HETATM    9  C6  UNK     1      17.776   0.685  37.674  1.00  0.00     0.014 A 
HETATM   10  O1  UNK     1      18.846  -0.650  34.395  1.00  0.00    -0.271 OA
HETATM   11  C5  UNK     1      18.674  -1.712  36.538  1.00  0.00     0.102 A 
HETATM   12  C8  UNK     1      18.731   0.444  33.543  1.00  0.00     0.304 A 
HETATM   13  O4  UNK     1      19.012   0.359  32.352  1.00  0.00    -0.259 OA
HETATM   14  C10 UNK     1      18.366  -1.656  37.896  1.00  0.00     0.040 A 
HETATM   15  C11 UNK     1      17.919  -0.461  38.463  1.00  0.00     0.004 A 
BRANCH  11  16
HETATM   16  O2  UNK     1      19.110  -2.877  35.991  1.00  0.00    -0.353 OA
HETATM   17  C18 UNK     1      20.197  -3.535  36.642  1.00  0.00     0.210 C 
ENDBRANCH  11  16
ENDBRANCH   3   5
BRANCH   2  18
HETATM   18  C9  UNK     1      18.309   5.425  33.664  1.00  0.00     0.035 A 
HETATM   19  C12 UNK     1      17.233   5.848  32.903  1.00  0.00     0.047 A 
HETATM   20  C13 UNK     1      17.181   7.174  32.474  1.00  0.00     0.041 A 
HETATM   21  C15 UNK     1      18.206   8.057  32.813  1.00  0.00     0.018 A 
HETATM   22  C16 UNK     1      19.283   7.615  33.580  1.00  0.00     0.003 A 
HETATM   23  C14 UNK     1      19.335   6.289  34.009  1.00  0.00     0.029 A 
BRANCH  20  24
HETATM   24  C17 UNK     1      16.059   7.637  31.674  1.00  0.00     0.293 C 
HETATM   25  O6  UNK     1      16.151   8.531  30.830  1.00  0.00    -0.259 OA
BRANCH  24  26
HETATM   26  O5  UNK     1      14.884   6.982  31.949  1.00  0.00    -0.323 OA
HETATM   27  C19 UNK     1      14.041   7.576  32.942  1.00  0.00     0.213 C 
ENDBRANCH  24  26
ENDBRANCH  20  24
ENDBRANCH   2  18
TORSDOF 5
ENDMDL
MODEL 6
REMARK VINA RESULT:      -9.0      5.917     12.514
REMARK  5 active torsions:
REMARK  status: ('A' for Active; 'I' for Inactive)
REMARK    1  A    between atoms: C5_12  and  O2_2 
REMARK    2  A    between atoms: C17_24  and  O5_5 
REMARK       I    between atoms: C7_14  and  N1_7 
REMARK    3  A    between atoms: C9_16  and  N1_7 
REMARK    4  A    between atoms: C3_10  and  C7_14 
REMARK    5  A    between atoms: C13_20  and  C17_24 
ROOT
HETATM    1  O3  UNK     1      17.158   4.525  31.376  1.00  0.00    -0.267 OA
HETATM    2  N1  UNK     1      18.775   4.716  33.079  1.00  0.00    -0.323 N 
HETATM    3  C7  UNK     1      18.051   4.067  32.088  1.00  0.00     0.262 C 
HETATM    4  H5  UNK     1      19.501   4.197  33.566  1.00  0.00     0.169 HD
ENDROOT
BRANCH   3   5
HETATM    5  C3  UNK     1      18.461   2.666  31.931  1.00  0.00     0.108 A 
HETATM    6  C4  UNK     1      18.899   2.311  30.718  1.00  0.00     0.037 A 
HETATM    7  C1  UNK     1      19.328   0.944  30.464  1.00  0.00     0.002 A 
HETATM    8  C2  UNK     1      19.274   0.019  31.501  1.00  0.00     0.123 A 
HETATM    9  C6  UNK     1      19.792   0.530  29.213  1.00  0.00     0.014 A 
HETATM   10  O1  UNK     1      18.813   0.399  32.777  1.00  0.00    -0.271 OA
HETATM   11  C5  UNK     1      19.670  -1.306  31.324  1.00  0.00     0.102 A 
HETATM   12  C8  UNK     1      18.396   1.698  33.050  1.00  0.00     0.304 A 
HETATM   13  O4  UNK     1      17.995   2.019  34.163  1.00  0.00    -0.259 OA
HETATM   14  C10 UNK     1      20.131  -1.711  30.074  1.00  0.00     0.040 A 
HETATM   15  C11 UNK     1      20.192  -0.796  29.021  1.00  0.00     0.004 A 
BRANCH  11  16
HETATM   16  O2  UNK     1      19.612  -2.200  32.346  1.00  0.00    -0.353 OA
HETATM   17  C18 UNK     1      20.838  -2.512  33.007  1.00  0.00     0.210 C 
ENDBRANCH  11  16
ENDBRANCH   3   5
BRANCH   2  18
HETATM   18  C9  UNK     1      18.649   6.064  33.498  1.00  0.00     0.035 A 
HETATM   19  C12 UNK     1      17.398   6.556  33.827  1.00  0.00     0.047 A 
HETATM   20  C13 UNK     1      17.274   7.883  34.239  1.00  0.00     0.041 A 
HETATM   21  C15 UNK     1      18.404   8.697  34.315  1.00  0.00     0.018 A 
HETATM   22  C16 UNK     1      19.657   8.186  33.980  1.00  0.00     0.003 A 
HETATM   23  C14 UNK     1      19.781   6.858  33.568  1.00  0.00     0.029 A 
BRANCH  20  24
HETATM   24  C17 UNK     1      15.969   8.418  34.590  1.00  0.00     0.293 C 
HETATM   25  O6  UNK     1      15.813   9.438  35.265  1.00  0.00    -0.259 OA
BRANCH  24  26
HETATM   26  O5  UNK     1      14.924   7.678  34.096  1.00  0.00    -0.323 OA
HETATM   27  C19 UNK     1      14.191   8.256  33.010  1.00  0.00     0.213 C 
ENDBRANCH  24  26
ENDBRANCH  20  24
ENDBRANCH   2  18
TORSDOF 5
ENDMDL
MODEL 7
REMARK VINA RESULT:      -9.0     18.938     21.947
REMARK  5 active torsions:
REMARK  status: ('A' for Active; 'I' for Inactive)
REMARK    1  A    between atoms: C5_12  and  O2_2 
REMARK    2  A    between atoms: C17_24  and  O5_5 
REMARK       I    between atoms: C7_14  and  N1_7 
REMARK    3  A    between atoms: C9_16  and  N1_7 
REMARK    4  A    between atoms: C3_10  and  C7_14 
REMARK    5  A    between atoms: C13_20  and  C17_24 
ROOT
HETATM    1  O3  UNK     1      17.570  -1.910  16.687  1.00  0.00    -0.267 OA
HETATM    2  N1  UNK     1      19.288  -0.486  15.932  1.00  0.00    -0.323 N 
HETATM    3  C7  UNK     1      18.518  -1.641  15.951  1.00  0.00     0.262 C 
HETATM    4  H5  UNK     1      20.029  -0.409  15.240  1.00  0.00     0.169 HD
ENDROOT
BRANCH   3   5
HETATM    5  C3  UNK     1      18.951  -2.610  14.936  1.00  0.00     0.108 A 
HETATM    6  C4  UNK     1      19.446  -3.765  15.394  1.00  0.00     0.037 A 
HETATM    7  C1  UNK     1      19.900  -4.788  14.465  1.00  0.00     0.002 A 
HETATM    8  C2  UNK     1      19.812  -4.543  13.099  1.00  0.00     0.123 A 
HETATM    9  C6  UNK     1      20.424  -6.009  14.900  1.00  0.00     0.014 A 
HETATM   10  O1  UNK     1      19.289  -3.325  12.622  1.00  0.00    -0.271 OA
HETATM   11  C5  UNK     1      20.230  -5.481  12.157  1.00  0.00     0.102 A 
HETATM   12  C8  UNK     1      18.847  -2.328  13.486  1.00  0.00     0.304 A 
HETATM   13  O4  UNK     1      18.394  -1.270  13.062  1.00  0.00    -0.259 OA
HETATM   14  C10 UNK     1      20.751  -6.696  12.598  1.00  0.00     0.040 A 
HETATM   15  C11 UNK     1      20.848  -6.959  13.966  1.00  0.00     0.004 A 
BRANCH  11  16
HETATM   16  O2  UNK     1      20.138  -5.229  10.824  1.00  0.00    -0.353 OA
HETATM   17  C18 UNK     1      19.075  -5.864  10.114  1.00  0.00     0.210 C 
ENDBRANCH  11  16
ENDBRANCH   3   5
BRANCH   2  18
HETATM   18  C9  UNK     1      19.156   0.654  16.763  1.00  0.00     0.035 A 
HETATM   19  C12 UNK     1      18.763   0.489  18.080  1.00  0.00     0.047 A 
HETATM   20  C13 UNK     1      18.632   1.612  18.898  1.00  0.00     0.041 A 
HETATM   21  C15 UNK     1      18.896   2.882  18.386  1.00  0.00     0.018 A 
HETATM   22  C16 UNK     1      19.290   3.031  17.056  1.00  0.00     0.003 A 
HETATM   23  C14 UNK     1      19.421   1.908  16.239  1.00  0.00     0.029 A 
BRANCH  20  24
HETATM   24  C17 UNK     1      18.222   1.459  20.284  1.00  0.00     0.293 C 
HETATM   25  O6  UNK     1      17.442   0.585  20.668  1.00  0.00    -0.259 OA
BRANCH  24  26
HETATM   26  O5  UNK     1      18.787   2.384  21.127  1.00  0.00    -0.323 OA
HETATM   27  C19 UNK     1      20.062   2.042  21.683  1.00  0.00     0.213 C 
ENDBRANCH  24  26
ENDBRANCH  20  24
ENDBRANCH   2  18
TORSDOF 5
ENDMDL
MODEL 8
REMARK VINA RESULT:      -9.0      6.823     10.512
REMARK  5 active torsions:
REMARK  status: ('A' for Active; 'I' for Inactive)
REMARK    1  A    between atoms: C5_12  and  O2_2 
REMARK    2  A    between atoms: C17_24  and  O5_5 
REMARK       I    between atoms: C7_14  and  N1_7 
REMARK    3  A    between atoms: C9_16  and  N1_7 
REMARK    4  A    between atoms: C3_10  and  C7_14 
REMARK    5  A    between atoms: C13_20  and  C17_24 
ROOT
HETATM    1  O3  UNK     1      17.935   3.540  33.344  1.00  0.00    -0.267 OA
HETATM    2  N1  UNK     1      18.384   4.208  31.130  1.00  0.00    -0.323 N 
HETATM    3  C7  UNK     1      18.098   4.396  32.475  1.00  0.00     0.262 C 
HETATM    4  H5  UNK     1      18.510   5.028  30.543  1.00  0.00     0.169 HD
ENDROOT
BRANCH   3   5
HETATM    5  C3  UNK     1      17.996   5.818  32.826  1.00  0.00     0.108 A 
HETATM    6  C4  UNK     1      16.806   6.234  33.272  1.00  0.00     0.037 A 
HETATM    7  C1  UNK     1      16.608   7.626  33.645  1.00  0.00     0.002 A 
HETATM    8  C2  UNK     1      17.673   8.512  33.527  1.00  0.00     0.123 A 
HETATM    9  C6  UNK     1      15.382   8.103  34.116  1.00  0.00     0.014 A 
HETATM   10  O1  UNK     1      18.925   8.069  33.057  1.00  0.00    -0.271 OA
HETATM   11  C5  UNK     1      17.549   9.858  33.867  1.00  0.00     0.102 A 
HETATM   12  C8  UNK     1      19.145   6.743  32.693  1.00  0.00     0.304 A 
HETATM   13  O4  UNK     1      20.238   6.367  32.284  1.00  0.00    -0.259 OA
HETATM   14  C10 UNK     1      16.324  10.326  34.335  1.00  0.00     0.040 A 
HETATM   15  C11 UNK     1      15.242   9.451  34.459  1.00  0.00     0.004 A 
BRANCH  11  16
HETATM   16  O2  UNK     1      18.599  10.713  33.747  1.00  0.00    -0.353 OA
HETATM   17  C18 UNK     1      18.331  12.103  33.937  1.00  0.00     0.210 C 
ENDBRANCH  11  16
ENDBRANCH   3   5
BRANCH   2  18
HETATM   18  C9  UNK     1      18.553   2.978  30.446  1.00  0.00     0.035 A 
HETATM   19  C12 UNK     1      19.228   1.944  31.071  1.00  0.00     0.047 A 
HETATM   20  C13 UNK     1      19.395   0.734  30.396  1.00  0.00     0.041 A 
HETATM   21  C15 UNK     1      18.884   0.578  29.108  1.00  0.00     0.018 A 
HETATM   22  C16 UNK     1      18.206   1.630  28.494  1.00  0.00     0.003 A 
HETATM   23  C14 UNK     1      18.039   2.840  29.168  1.00  0.00     0.029 A 
BRANCH  20  24
HETATM   24  C17 UNK     1      20.101  -0.364  31.036  1.00  0.00     0.293 C 
HETATM   25  O6  UNK     1      21.324  -0.387  31.189  1.00  0.00    -0.259 OA
BRANCH  24  26
HETATM   26  O5  UNK     1      19.273  -1.376  31.455  1.00  0.00    -0.323 OA
HETATM   27  C19 UNK     1      18.687  -1.223  32.752  1.00  0.00     0.213 C 
ENDBRANCH  24  26
ENDBRANCH  20  24
ENDBRANCH   2  18
TORSDOF 5
ENDMDL
MODEL 9
REMARK VINA RESULT:      -8.9      8.782     13.316
REMARK  5 active torsions:
REMARK  status: ('A' for Active; 'I' for Inactive)
REMARK    1  A    between atoms: C5_12  and  O2_2 
REMARK    2  A    between atoms: C17_24  and  O5_5 
REMARK       I    between atoms: C7_14  and  N1_7 
REMARK    3  A    between atoms: C9_16  and  N1_7 
REMARK    4  A    between atoms: C3_10  and  C7_14 
REMARK    5  A    between atoms: C13_20  and  C17_24 
ROOT
HETATM    1  O3  UNK     1      16.133   8.456  30.913  1.00  0.00    -0.267 OA
HETATM    2  N1  UNK     1      17.142   7.146  32.590  1.00  0.00    -0.323 N 
HETATM    3  C7  UNK     1      16.362   8.179  32.089  1.00  0.00     0.262 C 
HETATM    4  H5  UNK     1      17.214   7.039  33.598  1.00  0.00     0.169 HD
ENDROOT
BRANCH   3   5
HETATM    5  C3  UNK     1      15.770   8.993  33.158  1.00  0.00     0.108 A 
HETATM    6  C4  UNK     1      14.730   9.760  32.811  1.00  0.00     0.037 A 
HETATM    7  C1  UNK     1      14.077  10.602  33.801  1.00  0.00     0.002 A 
HETATM    8  C2  UNK     1      14.553  10.597  35.107  1.00  0.00     0.123 A 
HETATM    9  C6  UNK     1      12.988  11.418  33.482  1.00  0.00     0.014 A 
HETATM   10  O1  UNK     1      15.649   9.788  35.467  1.00  0.00    -0.271 OA
HETATM   11  C5  UNK     1      13.973  11.381  36.103  1.00  0.00     0.102 A 
HETATM   12  C8  UNK     1      16.293   8.971  34.543  1.00  0.00     0.304 A 
HETATM   13  O4  UNK     1      17.247   8.271  34.865  1.00  0.00    -0.259 OA
HETATM   14  C10 UNK     1      12.887  12.191  35.778  1.00  0.00     0.040 A 
HETATM   15  C11 UNK     1      12.396  12.210  34.470  1.00  0.00     0.004 A 
BRANCH  11  16
HETATM   16  O2  UNK     1      14.448  11.366  37.376  1.00  0.00    -0.353 OA
HETATM   17  C18 UNK     1      13.499  11.156  38.422  1.00  0.00     0.210 C 
ENDBRANCH  11  16
ENDBRANCH   3   5
BRANCH   2  18
HETATM   18  C9  UNK     1      17.859   6.169  31.854  1.00  0.00     0.035 A 
HETATM   19  C12 UNK     1      17.671   4.829  32.147  1.00  0.00     0.047 A 
HETATM   20  C13 UNK     1      18.378   3.869  31.423  1.00  0.00     0.041 A 
HETATM   21  C15 UNK     1      19.260   4.263  30.418  1.00  0.00     0.018 A 
HETATM   22  C16 UNK     1      19.438   5.617  30.136  1.00  0.00     0.003 A 
HETATM   23  C14 UNK     1      18.732   6.578  30.860  1.00  0.00     0.029 A 
BRANCH  20  24
HETATM   24  C17 UNK     1      18.193   2.456  31.714  1.00  0.00     0.293 C 
HETATM   25  O6  UNK     1      17.821   2.033  32.811  1.00  0.00    -0.259 OA
BRANCH  24  26
HETATM   26  O5  UNK     1      18.473   1.637  30.649  1.00  0.00    -0.323 OA
HETATM   27  C19 UNK     1      19.408   0.579  30.888  1.00  0.00     0.213 C 
ENDBRANCH  24  26
ENDBRANCH  20  24
ENDBRANCH   2  18
TORSDOF 5
ENDMDL
MODEL 10
REMARK VINA RESULT:      -8.7      2.566      2.831
REMARK  5 active torsions:
REMARK  status: ('A' for Active; 'I' for Inactive)
REMARK    1  A    between atoms: C5_12  and  O2_2 
REMARK    2  A    between atoms: C17_24  and  O5_5 
REMARK       I    between atoms: C7_14  and  N1_7 
REMARK    3  A    between atoms: C9_16  and  N1_7 
REMARK    4  A    between atoms: C3_10  and  C7_14 
REMARK    5  A    between atoms: C13_20  and  C17_24 
ROOT
HETATM    1  O3  UNK     1      20.114  -5.239  35.533  1.00  0.00    -0.267 OA
HETATM    2  N1  UNK     1      20.581  -4.551  37.737  1.00  0.00    -0.323 N 
HETATM    3  C7  UNK     1      20.156  -4.394  36.425  1.00  0.00     0.262 C 
HETATM    4  H5  UNK     1      20.533  -3.750  38.361  1.00  0.00     0.169 HD
ENDROOT
BRANCH   3   5
HETATM    5  C3  UNK     1      19.717  -3.020  36.147  1.00  0.00     0.108 A 
HETATM    6  C4  UNK     1      18.993  -2.426  37.102  1.00  0.00     0.037 A 
HETATM    7  C1  UNK     1      18.512  -1.065  36.918  1.00  0.00     0.002 A 
HETATM    8  C2  UNK     1      18.817  -0.398  35.737  1.00  0.00     0.123 A 
HETATM    9  C6  UNK     1      17.754  -0.406  37.890  1.00  0.00     0.014 A 
HETATM   10  O1  UNK     1      19.579  -1.029  34.734  1.00  0.00    -0.271 OA
HETATM   11  C5  UNK     1      18.386   0.906  35.498  1.00  0.00     0.102 A 
HETATM   12  C8  UNK     1      20.053  -2.329  34.881  1.00  0.00     0.304 A 
HETATM   13  O4  UNK     1      20.716  -2.870  34.003  1.00  0.00    -0.259 OA
HETATM   14  C10 UNK     1      17.630   1.556  36.471  1.00  0.00     0.040 A 
HETATM   15  C11 UNK     1      17.315   0.902  37.664  1.00  0.00     0.004 A 
BRANCH  11  16
HETATM   16  O2  UNK     1      18.691   1.547  34.339  1.00  0.00    -0.353 OA
HETATM   17  C18 UNK     1      18.335   2.926  34.245  1.00  0.00     0.210 C 
ENDBRANCH  11  16
ENDBRANCH   3   5
BRANCH   2  18
HETATM   18  C9  UNK     1      21.067  -5.732  38.352  1.00  0.00     0.035 A 
HETATM   19  C12 UNK     1      22.429  -5.979  38.361  1.00  0.00     0.047 A 
HETATM   20  C13 UNK     1      22.906  -7.142  38.966  1.00  0.00     0.041 A 
HETATM   21  C15 UNK     1      22.014  -8.040  39.550  1.00  0.00     0.018 A 
HETATM   22  C16 UNK     1      20.645  -7.777  39.531  1.00  0.00     0.003 A 
HETATM   23  C14 UNK     1      20.167  -6.614  38.927  1.00  0.00     0.029 A 
BRANCH  20  24
HETATM   24  C17 UNK     1      24.333  -7.418  38.987  1.00  0.00     0.293 C 
HETATM   25  O6  UNK     1      24.806  -8.523  39.261  1.00  0.00    -0.259 OA
BRANCH  24  26
HETATM   26  O5  UNK     1      25.106  -6.328  38.672  1.00  0.00    -0.323 OA
HETATM   27  C19 UNK     1      26.524  -6.530  38.676  1.00  0.00     0.213 C 
ENDBRANCH  24  26
ENDBRANCH  20  24
ENDBRANCH   2  18
TORSDOF 5
ENDMDL
