MODEL 1
REMARK VINA RESULT:      -8.9      0.000      0.000
REMARK  5 active torsions:
REMARK  status: ('A' for Active; 'I' for Inactive)
REMARK    1  A    between atoms: C5_9  and  N1_3 
REMARK    2  A    between atoms: C6_10  and  N2_4 
REMARK    3  A    between atoms: C5_9  and  C7_11 
REMARK    4  A    between atoms: C6_10  and  C8_12 
REMARK    5  A    between atoms: C15_19  and  C22_26 
ROOT
HETATM    1  N1  UNK     1      18.792   3.393  31.368  1.00  0.00     0.096 N 
HETATM    2  N2  UNK     1      18.924   6.063  32.466  1.00  0.00     0.096 N 
HETATM    3  C1  UNK     1      17.998   3.774  32.541  1.00  0.00     0.303 C 
HETATM    4  C2  UNK     1      19.028   4.559  30.508  1.00  0.00     0.303 C 
HETATM    5  C3  UNK     1      18.688   4.897  33.325  1.00  0.00     0.303 C 
HETATM    6  C4  UNK     1      19.717   5.683  31.290  1.00  0.00     0.303 C 
ENDROOT
BRANCH   1   7
HETATM    7  C5  UNK     1      18.134   2.323  30.620  1.00  0.00     0.312 C 
BRANCH   7   8
HETATM    8  C7  UNK     1      18.977   1.097  30.534  1.00  0.00    -0.011 A 
HETATM    9  C11 UNK     1      19.679   0.816  29.428  1.00  0.00     0.092 A 
HETATM   10  C16 UNK     1      20.526  -0.382  29.297  1.00  0.00     0.288 A 
HETATM   11  O1  UNK     1      20.574  -1.233  30.389  1.00  0.00    -0.275 OA
HETATM   12  O2  UNK     1      21.154  -0.606  28.268  1.00  0.00    -0.260 OA
HETATM   13  C12 UNK     1      19.846  -0.964  31.566  1.00  0.00     0.090 A 
HETATM   14  C9  UNK     1      19.047   0.175  31.675  1.00  0.00     0.007 A 
HETATM   15  C18 UNK     1      19.969  -1.891  32.602  1.00  0.00     0.039 A 
HETATM   16  C14 UNK     1      18.355   0.370  32.878  1.00  0.00     0.022 A 
HETATM   17  C15 UNK     1      18.468  -0.551  33.927  1.00  0.00    -0.058 A 
HETATM   18  C21 UNK     1      19.274  -1.680  33.788  1.00  0.00     0.010 A 
BRANCH  17  19
HETATM   19  C22 UNK     1      17.722  -0.322  35.198  1.00  0.00     0.034 C 
HETATM   20  C24 UNK     1      16.390   0.387  34.970  1.00  0.00     0.010 C 
ENDBRANCH  17  19
ENDBRANCH   7   8
ENDBRANCH   1   7
BRANCH   2  21
HETATM   21  C6  UNK     1      19.585   7.133  33.213  1.00  0.00     0.311 C 
BRANCH  21  22
HETATM   22  C8  UNK     1      18.611   8.242  33.449  1.00  0.00    -0.024 A 
HETATM   23  C10 UNK     1      19.014   9.435  34.051  1.00  0.00    -0.054 A 
HETATM   24  C17 UNK     1      18.088  10.456  34.261  1.00  0.00     0.007 A 
HETATM   25  C19 UNK     1      20.431   9.639  34.477  1.00  0.00     0.049 C 
HETATM   26  C23 UNK     1      16.760  10.286  33.871  1.00  0.00     0.001 A 
HETATM   27  C20 UNK     1      16.357   9.093  33.269  1.00  0.00     0.001 A 
HETATM   28  C13 UNK     1      17.283   8.071  33.058  1.00  0.00     0.009 A 
ENDBRANCH  21  22
ENDBRANCH   2  21
TORSDOF 5
ENDMDL
MODEL 2
REMARK VINA RESULT:      -8.6      6.289     12.233
REMARK  5 active torsions:
REMARK  status: ('A' for Active; 'I' for Inactive)
REMARK    1  A    between atoms: C5_9  and  N1_3 
REMARK    2  A    between atoms: C6_10  and  N2_4 
REMARK    3  A    between atoms: C5_9  and  C7_11 
REMARK    4  A    between atoms: C6_10  and  C8_12 
REMARK    5  A    between atoms: C15_19  and  C22_26 
ROOT
HETATM    1  N1  UNK     1      20.390  -4.053  36.671  1.00  0.00     0.096 N 
HETATM    2  N2  UNK     1      21.162  -6.645  37.691  1.00  0.00     0.096 N 
HETATM    3  C1  UNK     1      19.580  -5.248  36.407  1.00  0.00     0.303 C 
HETATM    4  C2  UNK     1      21.101  -4.188  37.949  1.00  0.00     0.303 C 
HETATM    5  C3  UNK     1      20.452  -6.510  36.415  1.00  0.00     0.303 C 
HETATM    6  C4  UNK     1      21.971  -5.450  37.958  1.00  0.00     0.303 C 
ENDROOT
BRANCH   1   7
HETATM    7  C5  UNK     1      19.559  -2.850  36.666  1.00  0.00     0.312 C 
BRANCH   7   8
HETATM    8  C7  UNK     1      19.563  -2.171  35.339  1.00  0.00    -0.011 A 
HETATM    9  C11 UNK     1      20.199  -2.709  34.289  1.00  0.00     0.092 A 
HETATM   10  C16 UNK     1      20.230  -2.076  32.960  1.00  0.00     0.288 A 
HETATM   11  O1  UNK     1      19.560  -0.870  32.828  1.00  0.00    -0.275 OA
HETATM   12  O2  UNK     1      20.823  -2.597  32.022  1.00  0.00    -0.260 OA
HETATM   13  C12 UNK     1      18.883  -0.281  33.915  1.00  0.00     0.090 A 
HETATM   14  C9  UNK     1      18.862  -0.892  35.169  1.00  0.00     0.007 A 
HETATM   15  C18 UNK     1      18.243   0.935  33.667  1.00  0.00     0.039 A 
HETATM   16  C14 UNK     1      18.167  -0.242  36.197  1.00  0.00     0.022 A 
HETATM   17  C15 UNK     1      17.520   0.977  35.965  1.00  0.00    -0.058 A 
HETATM   18  C21 UNK     1      17.558   1.564  34.701  1.00  0.00     0.010 A 
BRANCH  17  19
HETATM   19  C22 UNK     1      16.786   1.651  37.075  1.00  0.00     0.034 C 
HETATM   20  C24 UNK     1      17.496   1.497  38.417  1.00  0.00     0.010 C 
ENDBRANCH  17  19
ENDBRANCH   7   8
ENDBRANCH   1   7
BRANCH   2  21
HETATM   21  C6  UNK     1      21.995  -7.847  37.696  1.00  0.00     0.311 C 
BRANCH  21  22
HETATM   22  C8  UNK     1      21.129  -9.045  37.915  1.00  0.00    -0.024 A 
HETATM   23  C10 UNK     1      21.059 -10.064  36.964  1.00  0.00    -0.054 A 
HETATM   24  C17 UNK     1      20.244 -11.172  37.189  1.00  0.00     0.007 A 
HETATM   25  C19 UNK     1      21.848  -9.988  35.698  1.00  0.00     0.049 C 
HETATM   26  C23 UNK     1      19.497 -11.264  38.365  1.00  0.00     0.001 A 
HETATM   27  C20 UNK     1      19.568 -10.245  39.315  1.00  0.00     0.001 A 
HETATM   28  C13 UNK     1      20.383  -9.136  39.090  1.00  0.00     0.009 A 
ENDBRANCH  21  22
ENDBRANCH   2  21
TORSDOF 5
ENDMDL
MODEL 3
REMARK VINA RESULT:      -8.6     14.845     17.022
REMARK  5 active torsions:
REMARK  status: ('A' for Active; 'I' for Inactive)
REMARK    1  A    between atoms: C5_9  and  N1_3 
REMARK    2  A    between atoms: C6_10  and  N2_4 
REMARK    3  A    between atoms: C5_9  and  C7_11 
REMARK    4  A    between atoms: C6_10  and  C8_12 
REMARK    5  A    between atoms: C15_19  and  C22_26 
ROOT
HETATM    1  N1  UNK     1      31.695  -6.403  33.813  1.00  0.00     0.096 N 
HETATM    2  N2  UNK     1      30.386  -7.017  31.309  1.00  0.00     0.096 N 
HETATM    3  C1  UNK     1      30.265  -6.139  33.616  1.00  0.00     0.303 C 
HETATM    4  C2  UNK     1      32.125  -7.538  32.987  1.00  0.00     0.303 C 
HETATM    5  C3  UNK     1      29.957  -5.882  32.136  1.00  0.00     0.303 C 
HETATM    6  C4  UNK     1      31.816  -7.284  31.507  1.00  0.00     0.303 C 
ENDROOT
BRANCH   1   7
HETATM    7  C5  UNK     1      31.988  -6.649  35.224  1.00  0.00     0.312 C 
BRANCH   7   8
HETATM    8  C7  UNK     1      31.486  -5.553  36.100  1.00  0.00    -0.011 A 
HETATM    9  C11 UNK     1      31.946  -4.301  35.974  1.00  0.00     0.092 A 
HETATM   10  C16 UNK     1      31.480  -3.185  36.816  1.00  0.00     0.288 A 
HETATM   11  O1  UNK     1      30.522  -3.484  37.772  1.00  0.00    -0.275 OA
HETATM   12  O2  UNK     1      31.924  -2.052  36.672  1.00  0.00    -0.260 OA
HETATM   13  C12 UNK     1      30.020  -4.792  37.928  1.00  0.00     0.090 A 
HETATM   14  C9  UNK     1      30.471  -5.839  37.122  1.00  0.00     0.007 A 
HETATM   15  C18 UNK     1      29.058  -4.977  38.922  1.00  0.00     0.039 A 
HETATM   16  C14 UNK     1      29.922  -7.110  37.341  1.00  0.00     0.022 A 
HETATM   17  C15 UNK     1      28.957  -7.312  38.334  1.00  0.00    -0.058 A 
HETATM   18  C21 UNK     1      28.525  -6.247  39.123  1.00  0.00     0.010 A 
BRANCH  17  19
HETATM   19  C22 UNK     1      28.386  -8.673  38.548  1.00  0.00     0.034 C 
HETATM   20  C24 UNK     1      27.571  -8.763  39.835  1.00  0.00     0.010 C 
ENDBRANCH  17  19
ENDBRANCH   7   8
ENDBRANCH   1   7
BRANCH   2  21
HETATM   21  C6  UNK     1      30.095  -6.770  29.898  1.00  0.00     0.311 C 
BRANCH  21  22
HETATM   22  C8  UNK     1      29.592  -8.030  29.272  1.00  0.00    -0.024 A 
HETATM   23  C10 UNK     1      28.280  -8.460  29.478  1.00  0.00    -0.054 A 
HETATM   24  C17 UNK     1      27.832  -9.639  28.885  1.00  0.00     0.007 A 
HETATM   25  C19 UNK     1      27.340  -7.673  30.331  1.00  0.00     0.049 C 
HETATM   26  C23 UNK     1      28.694 -10.390  28.084  1.00  0.00     0.001 A 
HETATM   27  C20 UNK     1      30.005  -9.960  27.878  1.00  0.00     0.001 A 
HETATM   28  C13 UNK     1      30.454  -8.780  28.471  1.00  0.00     0.009 A 
ENDBRANCH  21  22
ENDBRANCH   2  21
TORSDOF 5
ENDMDL
MODEL 4
REMARK VINA RESULT:      -8.5      6.655     12.593
REMARK  5 active torsions:
REMARK  status: ('A' for Active; 'I' for Inactive)
REMARK    1  A    between atoms: C5_9  and  N1_3 
REMARK    2  A    between atoms: C6_10  and  N2_4 
REMARK    3  A    between atoms: C5_9  and  C7_11 
REMARK    4  A    between atoms: C6_10  and  C8_12 
REMARK    5  A    between atoms: C15_19  and  C22_26 
ROOT
HETATM    1  N1  UNK     1      19.945  -3.997  37.283  1.00  0.00     0.096 N 
HETATM    2  N2  UNK     1      19.849  -6.873  37.004  1.00  0.00     0.096 N 
HETATM    3  C1  UNK     1      21.034  -4.847  37.778  1.00  0.00     0.303 C 
HETATM    4  C2  UNK     1      19.282  -4.630  36.135  1.00  0.00     0.303 C 
HETATM    5  C3  UNK     1      20.512  -6.240  38.151  1.00  0.00     0.303 C 
HETATM    6  C4  UNK     1      18.761  -6.023  36.506  1.00  0.00     0.303 C 
ENDROOT
BRANCH   1   7
HETATM    7  C5  UNK     1      20.443  -2.670  36.927  1.00  0.00     0.312 C 
BRANCH   7   8
HETATM    8  C7  UNK     1      19.363  -1.789  36.398  1.00  0.00    -0.011 A 
HETATM    9  C11 UNK     1      18.488  -1.196  37.222  1.00  0.00     0.092 A 
HETATM   10  C16 UNK     1      17.406  -0.317  36.746  1.00  0.00     0.288 A 
HETATM   11  O1  UNK     1      17.321  -0.119  35.377  1.00  0.00    -0.275 OA
HETATM   12  O2  UNK     1      16.624   0.208  37.530  1.00  0.00    -0.260 OA
HETATM   13  C12 UNK     1      18.227  -0.729  34.486  1.00  0.00     0.090 A 
HETATM   14  C9  UNK     1      19.248  -1.560  34.952  1.00  0.00     0.007 A 
HETATM   15  C18 UNK     1      18.047  -0.459  33.129  1.00  0.00     0.039 A 
HETATM   16  C14 UNK     1      20.107  -2.129  34.002  1.00  0.00     0.022 A 
HETATM   17  C15 UNK     1      19.939  -1.867  32.637  1.00  0.00    -0.058 A 
HETATM   18  C21 UNK     1      18.910  -1.033  32.202  1.00  0.00     0.010 A 
BRANCH  17  19
HETATM   19  C22 UNK     1      20.865  -2.484  31.644  1.00  0.00     0.034 C 
HETATM   20  C24 UNK     1      20.447  -2.194  30.205  1.00  0.00     0.010 C 
ENDBRANCH  17  19
ENDBRANCH   7   8
ENDBRANCH   1   7
BRANCH   2  21
HETATM   21  C6  UNK     1      19.349  -8.200  37.361  1.00  0.00     0.311 C 
BRANCH  21  22
HETATM   22  C8  UNK     1      20.239  -9.239  36.759  1.00  0.00    -0.024 A 
HETATM   23  C10 UNK     1      20.357 -10.504  37.335  1.00  0.00    -0.054 A 
HETATM   24  C17 UNK     1      21.193 -11.458  36.757  1.00  0.00     0.007 A 
HETATM   25  C19 UNK     1      19.596 -10.859  38.571  1.00  0.00     0.049 C 
HETATM   26  C23 UNK     1      21.913 -11.148  35.603  1.00  0.00     0.001 A 
HETATM   27  C20 UNK     1      21.795  -9.883  35.027  1.00  0.00     0.001 A 
HETATM   28  C13 UNK     1      20.959  -8.928  35.605  1.00  0.00     0.009 A 
ENDBRANCH  21  22
ENDBRANCH   2  21
TORSDOF 5
ENDMDL
MODEL 5
REMARK VINA RESULT:      -8.4      3.260      9.235
REMARK  5 active torsions:
REMARK  status: ('A' for Active; 'I' for Inactive)
REMARK    1  A    between atoms: C5_9  and  N1_3 
REMARK    2  A    between atoms: C6_10  and  N2_4 
REMARK    3  A    between atoms: C5_9  and  C7_11 
REMARK    4  A    between atoms: C6_10  and  C8_12 
REMARK    5  A    between atoms: C15_19  and  C22_26 
ROOT
HETATM    1  N1  UNK     1      17.886   4.836  32.179  1.00  0.00     0.096 N 
HETATM    2  N2  UNK     1      18.739   2.080  32.351  1.00  0.00     0.096 N 
HETATM    3  C1  UNK     1      18.422   4.281  33.428  1.00  0.00     0.303 C 
HETATM    4  C2  UNK     1      18.464   4.144  31.021  1.00  0.00     0.303 C 
HETATM    5  C3  UNK     1      18.161   2.772  33.509  1.00  0.00     0.303 C 
HETATM    6  C4  UNK     1      18.205   2.635  31.101  1.00  0.00     0.303 C 
ENDROOT
BRANCH   1   7
HETATM    7  C5  UNK     1      18.136   6.274  32.101  1.00  0.00     0.312 C 
BRANCH   7   8
HETATM    8  C7  UNK     1      16.907   7.073  32.369  1.00  0.00    -0.011 A 
HETATM    9  C11 UNK     1      15.695   6.614  32.027  1.00  0.00     0.092 A 
HETATM   10  C16 UNK     1      14.453   7.366  32.273  1.00  0.00     0.288 A 
HETATM   11  O1  UNK     1      14.584   8.601  32.887  1.00  0.00    -0.275 OA
HETATM   12  O2  UNK     1      13.361   6.914  31.946  1.00  0.00    -0.260 OA
HETATM   13  C12 UNK     1      15.845   9.110  33.258  1.00  0.00     0.090 A 
HETATM   14  C9  UNK     1      17.014   8.386  33.019  1.00  0.00     0.007 A 
HETATM   15  C18 UNK     1      15.857  10.365  33.870  1.00  0.00     0.039 A 
HETATM   16  C14 UNK     1      18.227   8.962  33.417  1.00  0.00     0.022 A 
HETATM   17  C15 UNK     1      18.256  10.219  34.031  1.00  0.00    -0.058 A 
HETATM   18  C21 UNK     1      17.072  10.919  34.257  1.00  0.00     0.010 A 
BRANCH  17  19
HETATM   19  C22 UNK     1      19.560  10.812  34.447  1.00  0.00     0.034 C 
HETATM   20  C24 UNK     1      20.668   9.767  34.542  1.00  0.00     0.010 C 
ENDBRANCH  17  19
ENDBRANCH   7   8
ENDBRANCH   1   7
BRANCH   2  21
HETATM   21  C6  UNK     1      18.487   0.641  32.428  1.00  0.00     0.311 C 
BRANCH  21  22
HETATM   22  C8  UNK     1      19.285  -0.055  31.374  1.00  0.00    -0.024 A 
HETATM   23  C10 UNK     1      19.878  -1.294  31.624  1.00  0.00    -0.054 A 
HETATM   24  C17 UNK     1      20.619  -1.925  30.626  1.00  0.00     0.007 A 
HETATM   25  C19 UNK     1      19.732  -1.961  32.952  1.00  0.00     0.049 C 
HETATM   26  C23 UNK     1      20.769  -1.320  29.378  1.00  0.00     0.001 A 
HETATM   27  C20 UNK     1      20.176  -0.081  29.128  1.00  0.00     0.001 A 
HETATM   28  C13 UNK     1      19.435   0.551  30.127  1.00  0.00     0.009 A 
ENDBRANCH  21  22
ENDBRANCH   2  21
TORSDOF 5
ENDMDL
MODEL 6
REMARK VINA RESULT:      -8.4     23.062     25.282
REMARK  5 active torsions:
REMARK  status: ('A' for Active; 'I' for Inactive)
REMARK    1  A    between atoms: C5_9  and  N1_3 
REMARK    2  A    between atoms: C6_10  and  N2_4 
REMARK    3  A    between atoms: C5_9  and  C7_11 
REMARK    4  A    between atoms: C6_10  and  C8_12 
REMARK    5  A    between atoms: C15_19  and  C22_26 
ROOT
HETATM    1  N1  UNK     1      11.882   6.321   7.420  1.00  0.00     0.096 N 
HETATM    2  N2  UNK     1       9.078   6.318   8.120  1.00  0.00     0.096 N 
HETATM    3  C1  UNK     1      10.864   6.823   6.489  1.00  0.00     0.303 C 
HETATM    4  C2  UNK     1      11.444   6.507   8.809  1.00  0.00     0.303 C 
HETATM    5  C3  UNK     1       9.517   6.133   6.732  1.00  0.00     0.303 C 
HETATM    6  C4  UNK     1      10.096   5.819   9.052  1.00  0.00     0.303 C 
ENDROOT
BRANCH   1   7
HETATM    7  C5  UNK     1      13.167   6.980   7.190  1.00  0.00     0.312 C 
BRANCH   7   8
HETATM    8  C7  UNK     1      14.153   6.678   8.265  1.00  0.00    -0.011 A 
HETATM    9  C11 UNK     1      14.449   5.413   8.596  1.00  0.00     0.092 A 
HETATM   10  C16 UNK     1      15.417   5.065   9.650  1.00  0.00     0.288 A 
HETATM   11  O1  UNK     1      16.029   6.121  10.308  1.00  0.00    -0.275 OA
HETATM   12  O2  UNK     1      15.663   3.897   9.926  1.00  0.00    -0.260 OA
HETATM   13  C12 UNK     1      15.737   7.461   9.981  1.00  0.00     0.090 A 
HETATM   14  C9  UNK     1      14.817   7.776   8.979  1.00  0.00     0.007 A 
HETATM   15  C18 UNK     1      16.412   8.443  10.708  1.00  0.00     0.039 A 
HETATM   16  C14 UNK     1      14.583   9.132   8.716  1.00  0.00     0.022 A 
HETATM   17  C15 UNK     1      15.251  10.128   9.436  1.00  0.00    -0.058 A 
HETATM   18  C21 UNK     1      16.165   9.783  10.431  1.00  0.00     0.010 A 
BRANCH  17  19
HETATM   19  C22 UNK     1      14.986  11.565   9.138  1.00  0.00     0.034 C 
HETATM   20  C24 UNK     1      15.617  12.009   7.821  1.00  0.00     0.010 C 
ENDBRANCH  17  19
ENDBRANCH   7   8
ENDBRANCH   1   7
BRANCH   2  21
HETATM   21  C6  UNK     1       7.794   5.657   8.350  1.00  0.00     0.311 C 
BRANCH  21  22
HETATM   22  C8  UNK     1       7.238   6.107   9.662  1.00  0.00    -0.024 A 
HETATM   23  C10 UNK     1       6.791   5.183  10.608  1.00  0.00    -0.054 A 
HETATM   24  C17 UNK     1       6.275   5.625  11.825  1.00  0.00     0.007 A 
HETATM   25  C19 UNK     1       6.856   3.716  10.337  1.00  0.00     0.049 C 
HETATM   26  C23 UNK     1       6.205   6.992  12.099  1.00  0.00     0.001 A 
HETATM   27  C20 UNK     1       6.652   7.916  11.154  1.00  0.00     0.001 A 
HETATM   28  C13 UNK     1       7.168   7.474   9.935  1.00  0.00     0.009 A 
ENDBRANCH  21  22
ENDBRANCH   2  21
TORSDOF 5
ENDMDL
MODEL 7
REMARK VINA RESULT:      -8.3      1.948      3.635
REMARK  5 active torsions:
REMARK  status: ('A' for Active; 'I' for Inactive)
REMARK    1  A    between atoms: C5_9  and  N1_3 
REMARK    2  A    between atoms: C6_10  and  N2_4 
REMARK    3  A    between atoms: C5_9  and  C7_11 
REMARK    4  A    between atoms: C6_10  and  C8_12 
REMARK    5  A    between atoms: C15_19  and  C22_26 
ROOT
HETATM    1  N1  UNK     1      18.281   2.028  33.275  1.00  0.00     0.096 N 
HETATM    2  N2  UNK     1      18.429   4.884  32.856  1.00  0.00     0.096 N 
HETATM    3  C1  UNK     1      18.006   2.973  34.363  1.00  0.00     0.303 C 
HETATM    4  C2  UNK     1      17.939   2.627  31.978  1.00  0.00     0.303 C 
HETATM    5  C3  UNK     1      18.770   4.286  34.151  1.00  0.00     0.303 C 
HETATM    6  C4  UNK     1      18.702   3.939  31.766  1.00  0.00     0.303 C 
ENDROOT
BRANCH   1   7
HETATM    7  C5  UNK     1      17.551   0.777  33.476  1.00  0.00     0.312 C 
BRANCH   7   8
HETATM    8  C7  UNK     1      18.442  -0.322  33.945  1.00  0.00    -0.011 A 
HETATM    9  C11 UNK     1      18.506  -0.655  35.241  1.00  0.00     0.092 A 
HETATM   10  C16 UNK     1      19.369  -1.734  35.751  1.00  0.00     0.288 A 
HETATM   11  O1  UNK     1      20.135  -2.413  34.817  1.00  0.00    -0.275 OA
HETATM   12  O2  UNK     1      19.402  -2.011  36.945  1.00  0.00    -0.260 OA
HETATM   13  C12 UNK     1      20.089  -2.085  33.447  1.00  0.00     0.090 A 
HETATM   14  C9  UNK     1      19.265  -1.060  32.978  1.00  0.00     0.007 A 
HETATM   15  C18 UNK     1      20.903  -2.835  32.597  1.00  0.00     0.039 A 
HETATM   16  C14 UNK     1      19.277  -0.796  31.602  1.00  0.00     0.022 A 
HETATM   17  C15 UNK     1      20.088  -1.538  30.737  1.00  0.00    -0.058 A 
HETATM   18  C21 UNK     1      20.899  -2.557  31.234  1.00  0.00     0.010 A 
BRANCH  17  19
HETATM   19  C22 UNK     1      20.083  -1.240  29.275  1.00  0.00     0.034 C 
HETATM   20  C24 UNK     1      19.761   0.223  28.984  1.00  0.00     0.010 C 
ENDBRANCH  17  19
ENDBRANCH   7   8
ENDBRANCH   1   7
BRANCH   2  21
HETATM   21  C6  UNK     1      19.161   6.134  32.653  1.00  0.00     0.311 C 
BRANCH  21  22
HETATM   22  C8  UNK     1      18.237   7.287  32.881  1.00  0.00    -0.024 A 
HETATM   23  C10 UNK     1      18.604   8.348  33.710  1.00  0.00    -0.054 A 
HETATM   24  C17 UNK     1      17.726   9.413  33.909  1.00  0.00     0.007 A 
HETATM   25  C19 UNK     1      19.931   8.364  34.394  1.00  0.00     0.049 C 
HETATM   26  C23 UNK     1      16.481   9.418  33.279  1.00  0.00     0.001 A 
HETATM   27  C20 UNK     1      16.114   8.357  32.450  1.00  0.00     0.001 A 
HETATM   28  C13 UNK     1      16.992   7.292  32.251  1.00  0.00     0.009 A 
ENDBRANCH  21  22
ENDBRANCH   2  21
TORSDOF 5
ENDMDL
MODEL 8
REMARK VINA RESULT:      -8.3     14.678     17.221
REMARK  5 active torsions:
REMARK  status: ('A' for Active; 'I' for Inactive)
REMARK    1  A    between atoms: C5_9  and  N1_3 
REMARK    2  A    between atoms: C6_10  and  N2_4 
REMARK    3  A    between atoms: C5_9  and  C7_11 
REMARK    4  A    between atoms: C6_10  and  C8_12 
REMARK    5  A    between atoms: C15_19  and  C22_26 
ROOT
HETATM    1  N1  UNK     1      31.746  -8.236  33.252  1.00  0.00     0.096 N 
HETATM    2  N2  UNK     1      31.635  -7.652  36.081  1.00  0.00     0.096 N 
HETATM    3  C1  UNK     1      30.759  -7.297  33.798  1.00  0.00     0.303 C 
HETATM    4  C2  UNK     1      32.959  -8.243  34.079  1.00  0.00     0.303 C 
HETATM    5  C3  UNK     1      30.423  -7.645  35.253  1.00  0.00     0.303 C 
HETATM    6  C4  UNK     1      32.624  -8.589  35.535  1.00  0.00     0.303 C 
ENDROOT
BRANCH   1   7
HETATM    7  C5  UNK     1      32.067  -7.904  31.865  1.00  0.00     0.312 C 
BRANCH   7   8
HETATM    8  C7  UNK     1      31.791  -9.037  30.938  1.00  0.00    -0.011 A 
HETATM    9  C11 UNK     1      32.727  -9.958  30.673  1.00  0.00     0.092 A 
HETATM   10  C16 UNK     1      32.501 -11.096  29.765  1.00  0.00     0.288 A 
HETATM   11  O1  UNK     1      31.249 -11.183  29.177  1.00  0.00    -0.275 OA
HETATM   12  O2  UNK     1      33.382 -11.919  29.546  1.00  0.00    -0.260 OA
HETATM   13  C12 UNK     1      30.244 -10.229  29.436  1.00  0.00     0.090 A 
HETATM   14  C9  UNK     1      30.473  -9.157  30.299  1.00  0.00     0.007 A 
HETATM   15  C18 UNK     1      29.022 -10.417  28.789  1.00  0.00     0.039 A 
HETATM   16  C14 UNK     1      29.423  -8.252  30.504  1.00  0.00     0.022 A 
HETATM   17  C15 UNK     1      28.192  -8.426  29.862  1.00  0.00    -0.058 A 
HETATM   18  C21 UNK     1      27.992  -9.508  29.006  1.00  0.00     0.010 A 
BRANCH  17  19
HETATM   19  C22 UNK     1      27.088  -7.450  30.096  1.00  0.00     0.034 C 
HETATM   20  C24 UNK     1      27.244  -6.706  31.419  1.00  0.00     0.010 C 
ENDBRANCH  17  19
ENDBRANCH   7   8
ENDBRANCH   1   7
BRANCH   2  21
HETATM   21  C6  UNK     1      31.314  -7.987  37.468  1.00  0.00     0.311 C 
BRANCH  21  22
HETATM   22  C8  UNK     1      30.560  -6.853  38.085  1.00  0.00    -0.024 A 
HETATM   23  C10 UNK     1      29.281  -7.042  38.609  1.00  0.00    -0.054 A 
HETATM   24  C17 UNK     1      28.596  -5.970  39.180  1.00  0.00     0.007 A 
HETATM   25  C19 UNK     1      28.625  -8.384  38.569  1.00  0.00     0.049 C 
HETATM   26  C23 UNK     1      29.190  -4.708  39.228  1.00  0.00     0.001 A 
HETATM   27  C20 UNK     1      30.469  -4.519  38.704  1.00  0.00     0.001 A 
HETATM   28  C13 UNK     1      31.154  -5.592  38.133  1.00  0.00     0.009 A 
ENDBRANCH  21  22
ENDBRANCH   2  21
TORSDOF 5
ENDMDL
MODEL 9
REMARK VINA RESULT:      -8.2     14.416     17.441
REMARK  5 active torsions:
REMARK  status: ('A' for Active; 'I' for Inactive)
REMARK    1  A    between atoms: C5_9  and  N1_3 
REMARK    2  A    between atoms: C6_10  and  N2_4 
REMARK    3  A    between atoms: C5_9  and  C7_11 
REMARK    4  A    between atoms: C6_10  and  C8_12 
REMARK    5  A    between atoms: C15_19  and  C22_26 
ROOT
HETATM    1  N1  UNK     1      29.294  -6.943  34.797  1.00  0.00     0.096 N 
HETATM    2  N2  UNK     1      28.728  -7.131  31.969  1.00  0.00     0.096 N 
HETATM    3  C1  UNK     1      27.976  -6.586  34.258  1.00  0.00     0.303 C 
HETATM    4  C2  UNK     1      29.930  -7.968  33.960  1.00  0.00     0.303 C 
HETATM    5  C3  UNK     1      28.092  -6.108  32.806  1.00  0.00     0.303 C 
HETATM    6  C4  UNK     1      30.045  -7.491  32.507  1.00  0.00     0.303 C 
ENDROOT
BRANCH   1   7
HETATM    7  C5  UNK     1      29.182  -7.400  36.181  1.00  0.00     0.312 C 
BRANCH   7   8
HETATM    8  C7  UNK     1      29.715  -6.399  37.148  1.00  0.00    -0.011 A 
HETATM    9  C11 UNK     1      28.891  -5.623  37.864  1.00  0.00     0.092 A 
HETATM   10  C16 UNK     1      29.370  -4.620  38.831  1.00  0.00     0.288 A 
HETATM   11  O1  UNK     1      30.743  -4.505  38.979  1.00  0.00    -0.275 OA
HETATM   12  O2  UNK     1      28.586  -3.927  39.469  1.00  0.00    -0.260 OA
HETATM   13  C12 UNK     1      31.635  -5.308  38.239  1.00  0.00     0.090 A 
HETATM   14  C9  UNK     1      31.166  -6.253  37.326  1.00  0.00     0.007 A 
HETATM   15  C18 UNK     1      32.996  -5.105  38.470  1.00  0.00     0.039 A 
HETATM   16  C14 UNK     1      32.116  -7.011  36.630  1.00  0.00     0.022 A 
HETATM   17  C15 UNK     1      33.485  -6.820  36.849  1.00  0.00    -0.058 A 
HETATM   18  C21 UNK     1      33.924  -5.868  37.768  1.00  0.00     0.010 A 
BRANCH  17  19
HETATM   19  C22 UNK     1      34.479  -7.639  36.097  1.00  0.00     0.034 C 
HETATM   20  C24 UNK     1      35.313  -6.798  35.135  1.00  0.00     0.010 C 
ENDBRANCH  17  19
ENDBRANCH   7   8
ENDBRANCH   1   7
BRANCH   2  21
HETATM   21  C6  UNK     1      28.841  -6.673  30.585  1.00  0.00     0.311 C 
BRANCH  21  22
HETATM   22  C8  UNK     1      28.945  -7.858  29.680  1.00  0.00    -0.024 A 
HETATM   23  C10 UNK     1      30.094  -8.084  28.922  1.00  0.00    -0.054 A 
HETATM   24  C17 UNK     1      30.168  -9.196  28.084  1.00  0.00     0.007 A 
HETATM   25  C19 UNK     1      31.256  -7.148  28.991  1.00  0.00     0.049 C 
HETATM   26  C23 UNK     1      29.094 -10.084  28.004  1.00  0.00     0.001 A 
HETATM   27  C20 UNK     1      27.945  -9.858  28.763  1.00  0.00     0.001 A 
HETATM   28  C13 UNK     1      27.870  -8.745  29.601  1.00  0.00     0.009 A 
ENDBRANCH  21  22
ENDBRANCH   2  21
TORSDOF 5
ENDMDL
MODEL 10
REMARK VINA RESULT:      -8.2     14.873     17.497
REMARK  5 active torsions:
REMARK  status: ('A' for Active; 'I' for Inactive)
REMARK    1  A    between atoms: C5_9  and  N1_3 
REMARK    2  A    between atoms: C6_10  and  N2_4 
REMARK    3  A    between atoms: C5_9  and  C7_11 
REMARK    4  A    between atoms: C6_10  and  C8_12 
REMARK    5  A    between atoms: C15_19  and  C22_26 
ROOT
HETATM    1  N1  UNK     1      30.480  -8.106  35.244  1.00  0.00     0.096 N 
HETATM    2  N2  UNK     1      30.075  -8.183  32.383  1.00  0.00     0.096 N 
HETATM    3  C1  UNK     1      29.170  -8.431  34.669  1.00  0.00     0.303 C 
HETATM    4  C2  UNK     1      31.556  -8.517  34.333  1.00  0.00     0.303 C 
HETATM    5  C3  UNK     1      29.000  -7.773  33.294  1.00  0.00     0.303 C 
HETATM    6  C4  UNK     1      31.387  -7.861  32.958  1.00  0.00     0.303 C 
ENDROOT
BRANCH   1   7
HETATM    7  C5  UNK     1      30.643  -8.735  36.554  1.00  0.00     0.312 C 
BRANCH   7   8
HETATM    8  C7  UNK     1      29.788  -8.095  37.593  1.00  0.00    -0.011 A 
HETATM    9  C11 UNK     1      28.900  -8.811  38.295  1.00  0.00     0.092 A 
HETATM   10  C16 UNK     1      28.034  -8.223  39.333  1.00  0.00     0.288 A 
HETATM   11  O1  UNK     1      28.175  -6.864  39.564  1.00  0.00    -0.275 OA
HETATM   12  O2  UNK     1      27.232  -8.910  39.955  1.00  0.00    -0.260 OA
HETATM   13  C12 UNK     1      29.101  -6.085  38.841  1.00  0.00     0.090 A 
HETATM   14  C9  UNK     1      29.914  -6.656  37.861  1.00  0.00     0.007 A 
HETATM   15  C18 UNK     1      29.156  -4.727  39.158  1.00  0.00     0.039 A 
HETATM   16  C14 UNK     1      30.808  -5.814  37.187  1.00  0.00     0.022 A 
HETATM   17  C15 UNK     1      30.876  -4.449  37.493  1.00  0.00    -0.058 A 
HETATM   18  C21 UNK     1      30.051  -3.907  38.478  1.00  0.00     0.010 A 
BRANCH  17  19
HETATM   19  C22 UNK     1      31.836  -3.572  36.763  1.00  0.00     0.034 C 
HETATM   20  C24 UNK     1      32.720  -4.357  35.799  1.00  0.00     0.010 C 
ENDBRANCH  17  19
ENDBRANCH   7   8
ENDBRANCH   1   7
BRANCH   2  21
HETATM   21  C6  UNK     1      29.913  -7.552  31.074  1.00  0.00     0.311 C 
BRANCH  21  22
HETATM   22  C8  UNK     1      29.476  -8.582  30.082  1.00  0.00    -0.024 A 
HETATM   23  C10 UNK     1      28.141  -8.680  29.690  1.00  0.00    -0.054 A 
HETATM   24  C17 UNK     1      27.755  -9.648  28.765  1.00  0.00     0.007 A 
HETATM   25  C19 UNK     1      27.107  -7.757  30.249  1.00  0.00     0.049 C 
HETATM   26  C23 UNK     1      28.704 -10.520  28.230  1.00  0.00     0.001 A 
HETATM   27  C20 UNK     1      30.040 -10.423  28.622  1.00  0.00     0.001 A 
HETATM   28  C13 UNK     1      30.426  -9.453  29.548  1.00  0.00     0.009 A 
ENDBRANCH  21  22
ENDBRANCH   2  21
TORSDOF 5
ENDMDL
