MODEL 1
REMARK VINA RESULT:      -8.7      0.000      0.000
REMARK  4 active torsions:
REMARK  status: ('A' for Active; 'I' for Inactive)
REMARK    1  A    between atoms: C15_20  and  O2_3 
REMARK    2  A    between atoms: C3_8  and  O2_3 
REMARK    3  A    between atoms: C1_6  and  C6_11 
REMARK    4  A    between atoms: C15_20  and  C16_21 
ROOT
HETATM    1  O1  UNK     1      18.712   0.450  32.654  1.00  0.00    -0.306 OA
HETATM    2  O3  UNK     1      20.606  -3.154  32.488  1.00  0.00    -0.284 OA
HETATM    3  C1  UNK     1      18.795  -0.375  33.763  1.00  0.00     0.126 A 
HETATM    4  C2  UNK     1      19.964  -1.182  31.365  1.00  0.00     0.051 A 
HETATM    5  C3  UNK     1      19.398  -1.578  33.777  1.00  0.00     0.164 A 
HETATM    6  C4  UNK     1      19.299   0.037  31.487  1.00  0.00     0.090 A 
HETATM    7  C5  UNK     1      20.042  -2.069  32.535  1.00  0.00     0.221 A 
HETATM    8  C7  UNK     1      20.545  -1.551  30.149  1.00  0.00     0.018 A 
HETATM    9  C8  UNK     1      19.210   0.895  30.390  1.00  0.00     0.038 A 
HETATM   10  C11 UNK     1      20.454  -0.690  29.054  1.00  0.00     0.001 A 
HETATM   11  C12 UNK     1      19.788   0.529  29.173  1.00  0.00     0.003 A 
ENDROOT
BRANCH   3  12
HETATM   12  C6  UNK     1      18.125   0.187  34.950  1.00  0.00     0.022 A 
HETATM   13  C10 UNK     1      18.816   1.139  35.703  1.00  0.00     0.016 A 
HETATM   14  C14 UNK     1      18.226   1.701  36.834  1.00  0.00     0.001 A 
HETATM   15  C17 UNK     1      16.941   1.314  37.217  1.00  0.00     0.002 A 
HETATM   16  C13 UNK     1      16.248   0.363  36.467  1.00  0.00     0.025 A 
HETATM   17  C9  UNK     1      16.839  -0.199  35.336  1.00  0.00     0.047 A 
HETATM   18 Cl1  UNK     1      15.934  -1.373  34.443  1.00  0.00    -0.083 Cl
ENDBRANCH   3  12
BRANCH   5  19
HETATM   19  O2  UNK     1      19.433  -2.389  34.891  1.00  0.00    -0.272 OA
BRANCH  19  20
HETATM   20  C15 UNK     1      20.551  -2.223  35.675  1.00  0.00     0.263 C 
HETATM   21  O4  UNK     1      21.622  -1.740  35.334  1.00  0.00    -0.265 OA
BRANCH  20  22
HETATM   22  C16 UNK     1      20.246  -2.755  37.059  1.00  0.00     0.107 C 
HETATM   23  C18 UNK     1      18.958  -2.181  37.622  1.00  0.00     0.015 C 
ENDBRANCH  20  22
ENDBRANCH  19  20
ENDBRANCH   5  19
TORSDOF 4
ENDMDL
MODEL 2
REMARK VINA RESULT:      -7.7      2.396      4.508
REMARK  4 active torsions:
REMARK  status: ('A' for Active; 'I' for Inactive)
REMARK    1  A    between atoms: C15_20  and  O2_3 
REMARK    2  A    between atoms: C3_8  and  O2_3 
REMARK    3  A    between atoms: C1_6  and  C6_11 
REMARK    4  A    between atoms: C15_20  and  C16_21 
ROOT
HETATM    1  O1  UNK     1      19.122  -0.030  32.939  1.00  0.00    -0.306 OA
HETATM    2  O3  UNK     1      18.333   3.016  30.350  1.00  0.00    -0.284 OA
HETATM    3  C1  UNK     1      18.465   1.117  33.352  1.00  0.00     0.126 A 
HETATM    4  C2  UNK     1      19.251   0.869  30.689  1.00  0.00     0.051 A 
HETATM    5  C3  UNK     1      18.179   2.162  32.554  1.00  0.00     0.164 A 
HETATM    6  C4  UNK     1      19.493  -0.134  31.624  1.00  0.00     0.090 A 
HETATM    7  C5  UNK     1      18.568   2.097  31.124  1.00  0.00     0.221 A 
HETATM    8  C7  UNK     1      19.653   0.709  29.360  1.00  0.00     0.018 A 
HETATM    9  C8  UNK     1      20.142  -1.307  31.236  1.00  0.00     0.038 A 
HETATM   10  C11 UNK     1      20.300  -0.466  28.975  1.00  0.00     0.001 A 
HETATM   11  C12 UNK     1      20.545  -1.472  29.910  1.00  0.00     0.003 A 
ENDROOT
BRANCH   3  12
HETATM   12  C6  UNK     1      18.120   1.100  34.785  1.00  0.00     0.022 A 
HETATM   13  C10 UNK     1      18.802   1.976  35.632  1.00  0.00     0.016 A 
HETATM   14  C14 UNK     1      18.512   1.999  36.996  1.00  0.00     0.001 A 
HETATM   15  C17 UNK     1      17.539   1.146  37.518  1.00  0.00     0.002 A 
HETATM   16  C13 UNK     1      16.856   0.269  36.674  1.00  0.00     0.025 A 
HETATM   17  C9  UNK     1      17.147   0.247  35.310  1.00  0.00     0.047 A 
HETATM   18 Cl1  UNK     1      16.271  -0.860  34.309  1.00  0.00    -0.083 Cl
ENDBRANCH   3  12
BRANCH   5  19
HETATM   19  O2  UNK     1      17.553   3.304  33.004  1.00  0.00    -0.272 OA
BRANCH  19  20
HETATM   20  C15 UNK     1      18.361   4.416  33.035  1.00  0.00     0.263 C 
HETATM   21  O4  UNK     1      19.445   4.521  33.594  1.00  0.00    -0.265 OA
BRANCH  20  22
HETATM   22  C16 UNK     1      17.680   5.523  32.260  1.00  0.00     0.107 C 
HETATM   23  C18 UNK     1      18.664   6.335  31.437  1.00  0.00     0.015 C 
ENDBRANCH  20  22
ENDBRANCH  19  20
ENDBRANCH   5  19
TORSDOF 4
ENDMDL
MODEL 3
REMARK VINA RESULT:      -7.4     24.911     27.458
REMARK  4 active torsions:
REMARK  status: ('A' for Active; 'I' for Inactive)
REMARK    1  A    between atoms: C15_20  and  O2_3 
REMARK    2  A    between atoms: C3_8  and  O2_3 
REMARK    3  A    between atoms: C1_6  and  C6_11 
REMARK    4  A    between atoms: C15_20  and  C16_21 
ROOT
HETATM    1  O1  UNK     1      12.885   7.418   7.627  1.00  0.00    -0.306 OA
HETATM    2  O3  UNK     1       9.691   8.194  10.035  1.00  0.00    -0.284 OA
HETATM    3  C1  UNK     1      13.039   8.046   8.851  1.00  0.00     0.126 A 
HETATM    4  C2  UNK     1      10.493   7.275   8.016  1.00  0.00     0.051 A 
HETATM    5  C3  UNK     1      12.030   8.338   9.692  1.00  0.00     0.164 A 
HETATM    6  C4  UNK     1      11.625   7.041   7.239  1.00  0.00     0.090 A 
HETATM    7  C5  UNK     1      10.648   7.956   9.311  1.00  0.00     0.221 A 
HETATM    8  C7  UNK     1       9.233   6.868   7.570  1.00  0.00     0.018 A 
HETATM    9  C8  UNK     1      11.504   6.399   6.005  1.00  0.00     0.038 A 
HETATM   10  C11 UNK     1       9.116   6.226   6.337  1.00  0.00     0.001 A 
HETATM   11  C12 UNK     1      10.247   5.992   5.556  1.00  0.00     0.003 A 
ENDROOT
BRANCH   3  12
HETATM   12  C6  UNK     1      14.440   8.396   9.147  1.00  0.00     0.022 A 
HETATM   13  C10 UNK     1      14.902   9.648   8.738  1.00  0.00     0.016 A 
HETATM   14  C14 UNK     1      16.220  10.027   8.995  1.00  0.00     0.001 A 
HETATM   15  C17 UNK     1      17.080   9.153   9.662  1.00  0.00     0.002 A 
HETATM   16  C13 UNK     1      16.621   7.901  10.072  1.00  0.00     0.025 A 
HETATM   17  C9  UNK     1      15.303   7.523   9.815  1.00  0.00     0.047 A 
HETATM   18 Cl1  UNK     1      14.786   5.960  10.345  1.00  0.00    -0.083 Cl
ENDBRANCH   3  12
BRANCH   5  19
HETATM   19  O2  UNK     1      12.214   8.995  10.889  1.00  0.00    -0.272 OA
BRANCH  19  20
HETATM   20  C15 UNK     1      12.146  10.365  10.799  1.00  0.00     0.263 C 
HETATM   21  O4  UNK     1      11.362  11.019  10.125  1.00  0.00    -0.265 OA
BRANCH  20  22
HETATM   22  C16 UNK     1      13.229  10.955  11.676  1.00  0.00     0.107 C 
HETATM   23  C18 UNK     1      13.975   9.890  12.460  1.00  0.00     0.015 C 
ENDBRANCH  20  22
ENDBRANCH  19  20
ENDBRANCH   5  19
TORSDOF 4
ENDMDL
MODEL 4
REMARK VINA RESULT:      -7.3     14.934     18.837
REMARK  4 active torsions:
REMARK  status: ('A' for Active; 'I' for Inactive)
REMARK    1  A    between atoms: C15_20  and  O2_3 
REMARK    2  A    between atoms: C3_8  and  O2_3 
REMARK    3  A    between atoms: C1_6  and  C6_11 
REMARK    4  A    between atoms: C15_20  and  C16_21 
ROOT
HETATM    1  O1  UNK     1      18.979  -1.632  17.585  1.00  0.00    -0.306 OA
HETATM    2  O3  UNK     1      19.274   1.508  15.004  1.00  0.00    -0.284 OA
HETATM    3  C1  UNK     1      19.057  -1.826  16.216  1.00  0.00     0.126 A 
HETATM    4  C2  UNK     1      19.123   0.766  17.239  1.00  0.00     0.051 A 
HETATM    5  C3  UNK     1      19.149  -0.838  15.309  1.00  0.00     0.164 A 
HETATM    6  C4  UNK     1      19.021  -0.349  18.067  1.00  0.00     0.090 A 
HETATM    7  C5  UNK     1      19.190   0.567  15.783  1.00  0.00     0.221 A 
HETATM    8  C7  UNK     1      19.161   2.051  17.786  1.00  0.00     0.018 A 
HETATM    9  C8  UNK     1      18.953  -0.186  19.451  1.00  0.00     0.038 A 
HETATM   10  C11 UNK     1      19.095   2.211  19.171  1.00  0.00     0.001 A 
HETATM   11  C12 UNK     1      18.990   1.096  20.002  1.00  0.00     0.003 A 
ENDROOT
BRANCH   3  12
HETATM   12  C6  UNK     1      19.003  -3.249  15.833  1.00  0.00     0.022 A 
HETATM   13  C10 UNK     1      17.770  -3.776  15.441  1.00  0.00     0.016 A 
HETATM   14  C14 UNK     1      17.668  -5.115  15.068  1.00  0.00     0.001 A 
HETATM   15  C17 UNK     1      18.798  -5.934  15.085  1.00  0.00     0.002 A 
HETATM   16  C13 UNK     1      20.031  -5.411  15.476  1.00  0.00     0.025 A 
HETATM   17  C9  UNK     1      20.133  -4.070  15.849  1.00  0.00     0.047 A 
HETATM   18 Cl1  UNK     1      21.686  -3.474  16.324  1.00  0.00    -0.083 Cl
ENDBRANCH   3  12
BRANCH   5  19
HETATM   19  O2  UNK     1      19.191  -1.065  13.950  1.00  0.00    -0.272 OA
BRANCH  19  20
HETATM   20  C15 UNK     1      20.459  -1.220  13.442  1.00  0.00     0.263 C 
HETATM   21  O4  UNK     1      21.394  -0.438  13.549  1.00  0.00    -0.265 OA
BRANCH  20  22
HETATM   22  C16 UNK     1      20.518  -2.539  12.701  1.00  0.00     0.107 C 
HETATM   23  C18 UNK     1      19.161  -2.953  12.159  1.00  0.00     0.015 C 
ENDBRANCH  20  22
ENDBRANCH  19  20
ENDBRANCH   5  19
TORSDOF 4
ENDMDL
MODEL 5
REMARK VINA RESULT:      -7.3      1.407      3.355
REMARK  4 active torsions:
REMARK  status: ('A' for Active; 'I' for Inactive)
REMARK    1  A    between atoms: C15_20  and  O2_3 
REMARK    2  A    between atoms: C3_8  and  O2_3 
REMARK    3  A    between atoms: C1_6  and  C6_11 
REMARK    4  A    between atoms: C15_20  and  C16_21 
ROOT
HETATM    1  O1  UNK     1      19.449  -1.149  32.820  1.00  0.00    -0.306 OA
HETATM    2  O3  UNK     1      17.886   2.582  32.328  1.00  0.00    -0.284 OA
HETATM    3  C1  UNK     1      18.825  -0.484  33.862  1.00  0.00     0.126 A 
HETATM    4  C2  UNK     1      19.003   0.741  31.364  1.00  0.00     0.051 A 
HETATM    5  C3  UNK     1      18.294   0.749  33.771  1.00  0.00     0.164 A 
HETATM    6  C4  UNK     1      19.520  -0.531  31.598  1.00  0.00     0.090 A 
HETATM    7  C5  UNK     1      18.352   1.459  32.471  1.00  0.00     0.221 A 
HETATM    8  C7  UNK     1      19.104   1.323  30.098  1.00  0.00     0.018 A 
HETATM    9  C8  UNK     1      20.145  -1.231  30.565  1.00  0.00     0.038 A 
HETATM   10  C11 UNK     1      19.728   0.619  29.066  1.00  0.00     0.001 A 
HETATM   11  C12 UNK     1      20.247  -0.654  29.299  1.00  0.00     0.003 A 
ENDROOT
BRANCH   3  12
HETATM   12  C6  UNK     1      18.816  -1.258  35.116  1.00  0.00     0.022 A 
HETATM   13  C10 UNK     1      20.046  -1.596  35.685  1.00  0.00     0.016 A 
HETATM   14  C14 UNK     1      20.091  -2.327  36.872  1.00  0.00     0.001 A 
HETATM   15  C17 UNK     1      18.906  -2.723  37.494  1.00  0.00     0.002 A 
HETATM   16  C13 UNK     1      17.676  -2.387  36.928  1.00  0.00     0.025 A 
HETATM   17  C9  UNK     1      17.631  -1.656  35.741  1.00  0.00     0.047 A 
HETATM   18 Cl1  UNK     1      16.080  -1.266  35.082  1.00  0.00    -0.083 Cl
ENDBRANCH   3  12
BRANCH   5  19
HETATM   19  O2  UNK     1      17.708   1.396  34.838  1.00  0.00    -0.272 OA
BRANCH  19  20
HETATM   20  C15 UNK     1      18.603   1.920  35.741  1.00  0.00     0.263 C 
HETATM   21  O4  UNK     1      19.632   2.530  35.486  1.00  0.00    -0.265 OA
BRANCH  20  22
HETATM   22  C16 UNK     1      18.110   1.606  37.137  1.00  0.00     0.107 C 
HETATM   23  C18 UNK     1      16.594   1.605  37.223  1.00  0.00     0.015 C 
ENDBRANCH  20  22
ENDBRANCH  19  20
ENDBRANCH   5  19
TORSDOF 4
ENDMDL
MODEL 6
REMARK VINA RESULT:      -7.2     24.916     27.348
REMARK  4 active torsions:
REMARK  status: ('A' for Active; 'I' for Inactive)
REMARK    1  A    between atoms: C15_20  and  O2_3 
REMARK    2  A    between atoms: C3_8  and  O2_3 
REMARK    3  A    between atoms: C1_6  and  C6_11 
REMARK    4  A    between atoms: C15_20  and  C16_21 
ROOT
HETATM    1  O1  UNK     1      13.332   7.937   7.855  1.00  0.00    -0.306 OA
HETATM    2  O3  UNK     1      10.160   9.153  10.104  1.00  0.00    -0.284 OA
HETATM    3  C1  UNK     1      13.478   8.875   8.863  1.00  0.00     0.126 A 
HETATM    4  C2  UNK     1      10.965   7.775   8.367  1.00  0.00     0.051 A 
HETATM    5  C3  UNK     1      12.476   9.325   9.638  1.00  0.00     0.164 A 
HETATM    6  C4  UNK     1      12.089   7.404   7.632  1.00  0.00     0.090 A 
HETATM    7  C5  UNK     1      11.112   8.783   9.430  1.00  0.00     0.221 A 
HETATM    8  C7  UNK     1       9.722   7.199   8.097  1.00  0.00     0.018 A 
HETATM    9  C8  UNK     1      11.975   6.453   6.617  1.00  0.00     0.038 A 
HETATM   10  C11 UNK     1       9.612   6.247   7.082  1.00  0.00     0.001 A 
HETATM   11  C12 UNK     1      10.735   5.875   6.344  1.00  0.00     0.003 A 
ENDROOT
BRANCH   3  12
HETATM   12  C6  UNK     1      14.863   9.364   8.998  1.00  0.00     0.022 A 
HETATM   13  C10 UNK     1      15.221  10.517   8.296  1.00  0.00     0.016 A 
HETATM   14  C14 UNK     1      16.517  11.021   8.391  1.00  0.00     0.001 A 
HETATM   15  C17 UNK     1      17.462  10.374   9.188  1.00  0.00     0.002 A 
HETATM   16  C13 UNK     1      17.107   9.221   9.891  1.00  0.00     0.025 A 
HETATM   17  C9  UNK     1      15.810   8.718   9.796  1.00  0.00     0.047 A 
HETATM   18 Cl1  UNK     1      15.424   7.287  10.688  1.00  0.00    -0.083 Cl
ENDBRANCH   3  12
BRANCH   5  19
HETATM   19  O2  UNK     1      12.650  10.285  10.612  1.00  0.00    -0.272 OA
BRANCH  19  20
HETATM   20  C15 UNK     1      12.999   9.782  11.844  1.00  0.00     0.263 C 
HETATM   21  O4  UNK     1      12.528   8.797  12.395  1.00  0.00    -0.265 OA
BRANCH  20  22
HETATM   22  C16 UNK     1      14.078  10.667  12.431  1.00  0.00     0.107 C 
HETATM   23  C18 UNK     1      14.289  11.931  11.617  1.00  0.00     0.015 C 
ENDBRANCH  20  22
ENDBRANCH  19  20
ENDBRANCH   5  19
TORSDOF 4
ENDMDL
MODEL 7
REMARK VINA RESULT:      -7.0     11.159     12.947
REMARK  4 active torsions:
REMARK  status: ('A' for Active; 'I' for Inactive)
REMARK    1  A    between atoms: C15_20  and  O2_3 
REMARK    2  A    between atoms: C3_8  and  O2_3 
REMARK    3  A    between atoms: C1_6  and  C6_11 
REMARK    4  A    between atoms: C15_20  and  C16_21 
ROOT
HETATM    1  O1  UNK     1      28.689  -6.305  34.249  1.00  0.00    -0.306 OA
HETATM    2  O3  UNK     1      30.194 -10.034  33.585  1.00  0.00    -0.284 OA
HETATM    3  C1  UNK     1      29.541  -6.913  35.156  1.00  0.00     0.126 A 
HETATM    4  C2  UNK     1      28.851  -8.255  32.812  1.00  0.00     0.051 A 
HETATM    5  C3  UNK     1      30.068  -8.141  35.004  1.00  0.00     0.164 A 
HETATM    6  C4  UNK     1      28.368  -6.980  33.100  1.00  0.00     0.090 A 
HETATM    7  C5  UNK     1      29.744  -8.912  33.780  1.00  0.00     0.221 A 
HETATM    8  C7  UNK     1      28.490  -8.896  31.625  1.00  0.00     0.018 A 
HETATM    9  C8  UNK     1      27.517  -6.337  32.200  1.00  0.00     0.038 A 
HETATM   10  C11 UNK     1      27.640  -8.249  30.726  1.00  0.00     0.001 A 
HETATM   11  C12 UNK     1      27.154  -6.974  31.012  1.00  0.00     0.003 A 
ENDROOT
BRANCH   3  12
HETATM   12  C6  UNK     1      29.806  -6.081  36.344  1.00  0.00     0.022 A 
HETATM   13  C10 UNK     1      28.976  -6.245  37.456  1.00  0.00     0.016 A 
HETATM   14  C14 UNK     1      29.186  -5.483  38.604  1.00  0.00     0.001 A 
HETATM   15  C17 UNK     1      30.225  -4.553  38.646  1.00  0.00     0.002 A 
HETATM   16  C13 UNK     1      31.056  -4.386  37.536  1.00  0.00     0.025 A 
HETATM   17  C9  UNK     1      30.846  -5.149  36.388  1.00  0.00     0.047 A 
HETATM   18 Cl1  UNK     1      31.904  -4.903  35.042  1.00  0.00    -0.083 Cl
ENDBRANCH   3  12
BRANCH   5  19
HETATM   19  O2  UNK     1      30.887  -8.731  35.943  1.00  0.00    -0.272 OA
BRANCH  19  20
HETATM   20  C15 UNK     1      32.223  -8.447  35.785  1.00  0.00     0.263 C 
HETATM   21  O4  UNK     1      32.853  -8.439  34.735  1.00  0.00    -0.265 OA
BRANCH  20  22
HETATM   22  C16 UNK     1      32.812  -8.149  37.146  1.00  0.00     0.107 C 
HETATM   23  C18 UNK     1      31.855  -8.494  38.273  1.00  0.00     0.015 C 
ENDBRANCH  20  22
ENDBRANCH  19  20
ENDBRANCH   5  19
TORSDOF 4
ENDMDL
MODEL 8
REMARK VINA RESULT:      -7.0     25.352     27.253
REMARK  4 active torsions:
REMARK  status: ('A' for Active; 'I' for Inactive)
REMARK    1  A    between atoms: C15_20  and  O2_3 
REMARK    2  A    between atoms: C3_8  and  O2_3 
REMARK    3  A    between atoms: C1_6  and  C6_11 
REMARK    4  A    between atoms: C15_20  and  C16_21 
ROOT
HETATM    1  O1  UNK     1      13.778   9.067   8.064  1.00  0.00    -0.306 OA
HETATM    2  O3  UNK     1      15.124   7.429  11.544  1.00  0.00    -0.284 OA
HETATM    3  C1  UNK     1      13.175   7.951   8.618  1.00  0.00     0.126 A 
HETATM    4  C2  UNK     1      15.346   9.122   9.916  1.00  0.00     0.051 A 
HETATM    5  C3  UNK     1      13.570   7.356   9.758  1.00  0.00     0.164 A 
HETATM    6  C4  UNK     1      14.840   9.631   8.723  1.00  0.00     0.090 A 
HETATM    7  C5  UNK     1      14.719   7.926  10.501  1.00  0.00     0.221 A 
HETATM    8  C7  UNK     1      16.432   9.738  10.544  1.00  0.00     0.018 A 
HETATM    9  C8  UNK     1      15.420  10.762   8.146  1.00  0.00     0.038 A 
HETATM   10  C11 UNK     1      17.008  10.870   9.965  1.00  0.00     0.001 A 
HETATM   11  C12 UNK     1      16.504  11.381   8.770  1.00  0.00     0.003 A 
ENDROOT
BRANCH   3  12
HETATM   12  C6  UNK     1      12.047   7.447   7.813  1.00  0.00     0.022 A 
HETATM   13  C10 UNK     1      12.341   6.693   6.675  1.00  0.00     0.016 A 
HETATM   14  C14 UNK     1      11.309   6.193   5.881  1.00  0.00     0.001 A 
HETATM   15  C17 UNK     1       9.980   6.445   6.222  1.00  0.00     0.002 A 
HETATM   16  C13 UNK     1       9.683   7.199   7.359  1.00  0.00     0.025 A 
HETATM   17  C9  UNK     1      10.715   7.698   8.153  1.00  0.00     0.047 A 
HETATM   18 Cl1  UNK     1      10.291   8.626   9.550  1.00  0.00    -0.083 Cl
ENDBRANCH   3  12
BRANCH   5  19
HETATM   19  O2  UNK     1      12.967   6.225  10.265  1.00  0.00    -0.272 OA
BRANCH  19  20
HETATM   20  C15 UNK     1      13.430   5.048   9.724  1.00  0.00     0.263 C 
HETATM   21  O4  UNK     1      14.585   4.645   9.721  1.00  0.00    -0.265 OA
BRANCH  20  22
HETATM   22  C16 UNK     1      12.259   4.313   9.108  1.00  0.00     0.107 C 
HETATM   23  C18 UNK     1      10.958   4.593   9.839  1.00  0.00     0.015 C 
ENDBRANCH  20  22
ENDBRANCH  19  20
ENDBRANCH   5  19
TORSDOF 4
ENDMDL
MODEL 9
REMARK VINA RESULT:      -6.9     11.919     14.527
REMARK  4 active torsions:
REMARK  status: ('A' for Active; 'I' for Inactive)
REMARK    1  A    between atoms: C15_20  and  O2_3 
REMARK    2  A    between atoms: C3_8  and  O2_3 
REMARK    3  A    between atoms: C1_6  and  C6_11 
REMARK    4  A    between atoms: C15_20  and  C16_21 
ROOT
HETATM    1  O1  UNK     1      30.120  -8.557  38.157  1.00  0.00    -0.306 OA
HETATM    2  O3  UNK     1      27.309  -5.619  37.897  1.00  0.00    -0.284 OA
HETATM    3  C1  UNK     1      30.418  -7.319  37.615  1.00  0.00     0.126 A 
HETATM    4  C2  UNK     1      27.846  -7.815  38.570  1.00  0.00     0.051 A 
HETATM    5  C3  UNK     1      29.539  -6.308  37.492  1.00  0.00     0.164 A 
HETATM    6  C4  UNK     1      28.851  -8.778  38.628  1.00  0.00     0.090 A 
HETATM    7  C5  UNK     1      28.152  -6.503  37.981  1.00  0.00     0.221 A 
HETATM    8  C7  UNK     1      26.570  -8.096  39.065  1.00  0.00     0.018 A 
HETATM    9  C8  UNK     1      28.585 -10.032  39.180  1.00  0.00     0.038 A 
HETATM   10  C11 UNK     1      26.308  -9.350  39.618  1.00  0.00     0.001 A 
HETATM   11  C12 UNK     1      27.312 -10.316  39.675  1.00  0.00     0.003 A 
ENDROOT
BRANCH   3  12
HETATM   12  C6  UNK     1      31.813  -7.213  37.151  1.00  0.00     0.022 A 
HETATM   13  C10 UNK     1      32.800  -6.941  38.100  1.00  0.00     0.016 A 
HETATM   14  C14 UNK     1      34.135  -6.833  37.712  1.00  0.00     0.001 A 
HETATM   15  C17 UNK     1      34.488  -6.996  36.372  1.00  0.00     0.002 A 
HETATM   16  C13 UNK     1      33.504  -7.269  35.420  1.00  0.00     0.025 A 
HETATM   17  C9  UNK     1      32.169  -7.377  35.810  1.00  0.00     0.047 A 
HETATM   18 Cl1  UNK     1      30.990  -7.716  34.589  1.00  0.00    -0.083 Cl
ENDBRANCH   3  12
BRANCH   5  19
HETATM   19  O2  UNK     1      29.859  -5.097  36.916  1.00  0.00    -0.272 OA
BRANCH  19  20
HETATM   20  C15 UNK     1      30.421  -4.190  37.784  1.00  0.00     0.263 C 
HETATM   21  O4  UNK     1      30.370  -4.215  39.006  1.00  0.00    -0.265 OA
BRANCH  20  22
HETATM   22  C16 UNK     1      31.122  -3.124  36.971  1.00  0.00     0.107 C 
HETATM   23  C18 UNK     1      32.370  -3.653  36.286  1.00  0.00     0.015 C 
ENDBRANCH  20  22
ENDBRANCH  19  20
ENDBRANCH   5  19
TORSDOF 4
ENDMDL
MODEL 10
REMARK VINA RESULT:      -6.9     10.988     12.270
REMARK  4 active torsions:
REMARK  status: ('A' for Active; 'I' for Inactive)
REMARK    1  A    between atoms: C15_20  and  O2_3 
REMARK    2  A    between atoms: C3_8  and  O2_3 
REMARK    3  A    between atoms: C1_6  and  C6_11 
REMARK    4  A    between atoms: C15_20  and  C16_21 
ROOT
HETATM    1  O1  UNK     1      28.254  -6.916  34.579  1.00  0.00    -0.306 OA
HETATM    2  O3  UNK     1      31.866  -5.119  34.008  1.00  0.00    -0.284 OA
HETATM    3  C1  UNK     1      29.145  -6.736  35.624  1.00  0.00     0.126 A 
HETATM    4  C2  UNK     1      29.821  -5.835  33.074  1.00  0.00     0.051 A 
HETATM    5  C3  UNK     1      30.354  -6.158  35.505  1.00  0.00     0.164 A 
HETATM    6  C4  UNK     1      28.603  -6.460  33.335  1.00  0.00     0.090 A 
HETATM    7  C5  UNK     1      30.778  -5.655  34.177  1.00  0.00     0.221 A 
HETATM    8  C7  UNK     1      30.125  -5.389  31.785  1.00  0.00     0.018 A 
HETATM    9  C8  UNK     1      27.680  -6.645  32.305  1.00  0.00     0.038 A 
HETATM   10  C11 UNK     1      29.198  -5.575  30.758  1.00  0.00     0.001 A 
HETATM   11  C12 UNK     1      27.979  -6.201  31.017  1.00  0.00     0.003 A 
ENDROOT
BRANCH   3  12
HETATM   12  C6  UNK     1      28.646  -7.270  36.905  1.00  0.00     0.022 A 
HETATM   13  C10 UNK     1      27.666  -6.539  37.581  1.00  0.00     0.016 A 
HETATM   14  C14 UNK     1      27.161  -7.002  38.795  1.00  0.00     0.001 A 
HETATM   15  C17 UNK     1      27.634  -8.197  39.339  1.00  0.00     0.002 A 
HETATM   16  C13 UNK     1      28.613  -8.929  38.666  1.00  0.00     0.025 A 
HETATM   17  C9  UNK     1      29.118  -8.466  37.451  1.00  0.00     0.047 A 
HETATM   18 Cl1  UNK     1      30.331  -9.412  36.659  1.00  0.00    -0.083 Cl
ENDBRANCH   3  12
BRANCH   5  19
HETATM   19  O2  UNK     1      31.231  -6.024  36.560  1.00  0.00    -0.272 OA
BRANCH  19  20
HETATM   20  C15 UNK     1      31.127  -4.829  37.233  1.00  0.00     0.263 C 
HETATM   21  O4  UNK     1      31.322  -3.711  36.777  1.00  0.00    -0.265 OA
BRANCH  20  22
HETATM   22  C16 UNK     1      30.733  -5.121  38.665  1.00  0.00     0.107 C 
HETATM   23  C18 UNK     1      29.718  -4.124  39.194  1.00  0.00     0.015 C 
ENDBRANCH  20  22
ENDBRANCH  19  20
ENDBRANCH   5  19
TORSDOF 4
ENDMDL
