MODEL 1
REMARK VINA RESULT:     -10.5      0.000      0.000
REMARK  6 active torsions:
REMARK  status: ('A' for Active; 'I' for Inactive)
REMARK    1  A    between atoms: C10_19  and  O1_4 
REMARK    2  A    between atoms: C20_29  and  O1_4 
REMARK       I    between atoms: C12_21  and  N2_9 
REMARK    3  A    between atoms: C6_15  and  N2_9 
REMARK    4  A    between atoms: C1_10  and  C3_12 
REMARK    5  A    between atoms: C3_12  and  C6_15 
REMARK    6  A    between atoms: C12_21  and  C13_22 
ROOT
HETATM    1  C3  UNK     1      19.726   6.189  30.146  1.00  0.00     0.061 C 
ENDROOT
BRANCH   1   2
HETATM    2  C1  UNK     1      19.641   6.502  31.612  1.00  0.00    -0.022 A 
HETATM    3  C2  UNK     1      18.511   7.026  32.272  1.00  0.00     0.002 A 
HETATM    4  C5  UNK     1      18.868   7.160  33.615  1.00  0.00     0.043 A 
HETATM    5  C7  UNK     1      17.213   7.405  31.874  1.00  0.00     0.051 A 
HETATM    6  N1  UNK     1      20.169   6.725  33.733  1.00  0.00    -0.359 N 
HETATM    7  C8  UNK     1      17.989   7.655  34.585  1.00  0.00     0.033 A 
HETATM    8  C4  UNK     1      20.646   6.324  32.514  1.00  0.00     0.013 A 
HETATM    9  H3  UNK     1      20.693   6.708  34.598  1.00  0.00     0.166 HD
HETATM   10  C9  UNK     1      22.021   5.812  32.367  1.00  0.00     0.068 C 
HETATM   11  C11 UNK     1      16.708   8.026  34.167  1.00  0.00     0.039 A 
HETATM   12  C10 UNK     1      16.323   7.902  32.833  1.00  0.00     0.079 A 
BRANCH  12  13
HETATM   13  O1  UNK     1      15.066   8.270  32.455  1.00  0.00    -0.255 OA
BRANCH  13  14
HETATM   14  C20 UNK     1      14.022   7.311  32.575  1.00  0.00     0.530 C 
HETATM   15  F1  UNK     1      13.788   7.007  33.869  1.00  0.00    -0.144 F 
HETATM   16  F2  UNK     1      14.399   6.177  31.942  1.00  0.00    -0.144 F 
HETATM   17  F3  UNK     1      12.886   7.753  31.996  1.00  0.00    -0.144 F 
ENDBRANCH  13  14
ENDBRANCH  12  13
ENDBRANCH   1   2
BRANCH   1  18
HETATM   18  C6  UNK     1      18.695   5.159  29.689  1.00  0.00     0.127 C 
BRANCH  18  19
HETATM   19  N2  UNK     1      18.942   3.844  30.236  1.00  0.00    -0.356 N 
HETATM   20  C12 UNK     1      18.562   2.679  29.597  1.00  0.00     0.257 C 
HETATM   21  O3  UNK     1      17.981   2.598  28.516  1.00  0.00    -0.267 OA
HETATM   22  H12 UNK     1      19.391   3.805  31.146  1.00  0.00     0.162 HD
BRANCH  20  23
HETATM   23  C13 UNK     1      18.925   1.471  30.349  1.00  0.00     0.108 A 
HETATM   24  C15 UNK     1      19.560   0.514  29.661  1.00  0.00     0.037 A 
HETATM   25  C14 UNK     1      19.960  -0.720  30.320  1.00  0.00    -0.001 A 
HETATM   26  C16 UNK     1      19.672  -0.885  31.670  1.00  0.00     0.089 A 
HETATM   27  C18 UNK     1      20.625  -1.744  29.641  1.00  0.00     0.014 A 
HETATM   28  O2  UNK     1      19.004   0.125  32.389  1.00  0.00    -0.274 OA
HETATM   29  C19 UNK     1      20.028  -2.043  32.360  1.00  0.00     0.038 A 
HETATM   30  C17 UNK     1      18.609   1.316  31.787  1.00  0.00     0.304 A 
HETATM   31  O4  UNK     1      18.026   2.190  32.420  1.00  0.00    -0.259 OA
HETATM   32  C22 UNK     1      20.690  -3.060  31.676  1.00  0.00     0.003 A 
HETATM   33  C21 UNK     1      20.988  -2.912  30.319  1.00  0.00     0.001 A 
ENDBRANCH  20  23
ENDBRANCH  18  19
ENDBRANCH   1  18
TORSDOF 6
ENDMDL
MODEL 2
REMARK VINA RESULT:     -10.4      6.717      9.549
REMARK  6 active torsions:
REMARK  status: ('A' for Active; 'I' for Inactive)
REMARK    1  A    between atoms: C10_19  and  O1_4 
REMARK    2  A    between atoms: C20_29  and  O1_4 
REMARK       I    between atoms: C12_21  and  N2_9 
REMARK    3  A    between atoms: C6_15  and  N2_9 
REMARK    4  A    between atoms: C1_10  and  C3_12 
REMARK    5  A    between atoms: C3_12  and  C6_15 
REMARK    6  A    between atoms: C12_21  and  C13_22 
ROOT
HETATM    1  C3  UNK     1      18.123  -1.751  37.151  1.00  0.00     0.061 C 
ENDROOT
BRANCH   1   2
HETATM    2  C1  UNK     1      18.111  -0.465  36.375  1.00  0.00    -0.022 A 
HETATM    3  C2  UNK     1      18.363  -0.342  34.994  1.00  0.00     0.002 A 
HETATM    4  C5  UNK     1      18.249   1.017  34.695  1.00  0.00     0.043 A 
HETATM    5  C7  UNK     1      18.678  -1.241  33.956  1.00  0.00     0.051 A 
HETATM    6  N1  UNK     1      17.938   1.666  35.869  1.00  0.00    -0.359 N 
HETATM    7  C8  UNK     1      18.435   1.525  33.405  1.00  0.00     0.033 A 
HETATM    8  C4  UNK     1      17.853   0.766  36.897  1.00  0.00     0.013 A 
HETATM    9  H3  UNK     1      17.794   2.663  35.955  1.00  0.00     0.166 HD
HETATM   10  C9  UNK     1      17.531   1.206  38.268  1.00  0.00     0.068 C 
HETATM   11  C11 UNK     1      18.748   0.615  32.390  1.00  0.00     0.039 A 
HETATM   12  C10 UNK     1      18.868  -0.747  32.660  1.00  0.00     0.079 A 
BRANCH  12  13
HETATM   13  O1  UNK     1      19.173  -1.611  31.651  1.00  0.00    -0.255 OA
BRANCH  13  14
HETATM   14  C20 UNK     1      20.545  -1.832  31.348  1.00  0.00     0.530 C 
HETATM   15  F1  UNK     1      21.118  -0.717  30.846  1.00  0.00    -0.144 F 
HETATM   16  F2  UNK     1      20.632  -2.802  30.410  1.00  0.00    -0.144 F 
HETATM   17  F3  UNK     1      21.225  -2.245  32.438  1.00  0.00    -0.144 F 
ENDBRANCH  13  14
ENDBRANCH  12  13
ENDBRANCH   1   2
BRANCH   1  18
HETATM   18  C6  UNK     1      19.504  -2.400  37.221  1.00  0.00     0.127 C 
BRANCH  18  19
HETATM   19  N2  UNK     1      19.439  -3.844  37.247  1.00  0.00    -0.356 N 
HETATM   20  C12 UNK     1      19.830  -4.635  36.183  1.00  0.00     0.257 C 
HETATM   21  O3  UNK     1      20.271  -4.239  35.105  1.00  0.00    -0.267 OA
HETATM   22  H12 UNK     1      19.057  -4.269  38.086  1.00  0.00     0.162 HD
BRANCH  20  23
HETATM   23  C13 UNK     1      19.672  -6.070  36.451  1.00  0.00     0.108 A 
HETATM   24  C15 UNK     1      20.780  -6.815  36.353  1.00  0.00     0.037 A 
HETATM   25  C14 UNK     1      20.724  -8.248  36.599  1.00  0.00    -0.001 A 
HETATM   26  C16 UNK     1      19.505  -8.825  36.937  1.00  0.00     0.089 A 
HETATM   27  C18 UNK     1      21.855  -9.064  36.509  1.00  0.00     0.014 A 
HETATM   28  O2  UNK     1      18.343  -8.036  37.038  1.00  0.00    -0.274 OA
HETATM   29  C19 UNK     1      19.383 -10.192  37.185  1.00  0.00     0.038 A 
HETATM   30  C17 UNK     1      18.364  -6.664  36.809  1.00  0.00     0.304 A 
HETATM   31  O4  UNK     1      17.348  -5.984  36.898  1.00  0.00    -0.259 OA
HETATM   32  C22 UNK     1      20.515 -10.998  37.092  1.00  0.00     0.003 A 
HETATM   33  C21 UNK     1      21.749 -10.436  36.755  1.00  0.00     0.001 A 
ENDBRANCH  20  23
ENDBRANCH  18  19
ENDBRANCH   1  18
TORSDOF 6
ENDMDL
MODEL 3
REMARK VINA RESULT:      -9.8      3.262      4.714
REMARK  6 active torsions:
REMARK  status: ('A' for Active; 'I' for Inactive)
REMARK    1  A    between atoms: C10_19  and  O1_4 
REMARK    2  A    between atoms: C20_29  and  O1_4 
REMARK       I    between atoms: C12_21  and  N2_9 
REMARK    3  A    between atoms: C6_15  and  N2_9 
REMARK    4  A    between atoms: C1_10  and  C3_12 
REMARK    5  A    between atoms: C3_12  and  C6_15 
REMARK    6  A    between atoms: C12_21  and  C13_22 
ROOT
HETATM    1  C3  UNK     1      17.870   4.588  31.293  1.00  0.00     0.061 C 
ENDROOT
BRANCH   1   2
HETATM    2  C1  UNK     1      18.425   4.462  32.683  1.00  0.00    -0.022 A 
HETATM    3  C2  UNK     1      18.366   3.305  33.485  1.00  0.00     0.002 A 
HETATM    4  C5  UNK     1      18.999   3.629  34.687  1.00  0.00     0.043 A 
HETATM    5  C7  UNK     1      17.840   2.008  33.323  1.00  0.00     0.051 A 
HETATM    6  N1  UNK     1      19.416   4.937  34.586  1.00  0.00    -0.359 N 
HETATM    7  C8  UNK     1      19.133   2.716  35.739  1.00  0.00     0.033 A 
HETATM    8  C4  UNK     1      19.068   5.450  33.365  1.00  0.00     0.013 A 
HETATM    9  H3  UNK     1      19.907   5.441  35.311  1.00  0.00     0.166 HD
HETATM   10  C9  UNK     1      19.400   6.841  33.003  1.00  0.00     0.068 C 
HETATM   11  C11 UNK     1      18.603   1.436  35.557  1.00  0.00     0.039 A 
HETATM   12  C10 UNK     1      17.966   1.085  34.368  1.00  0.00     0.079 A 
BRANCH  12  13
HETATM   13  O1  UNK     1      17.460  -0.172  34.218  1.00  0.00    -0.255 OA
BRANCH  13  14
HETATM   14  C20 UNK     1      16.348  -0.548  35.021  1.00  0.00     0.530 C 
HETATM   15  F1  UNK     1      15.488   0.481  35.173  1.00  0.00    -0.144 F 
HETATM   16  F2  UNK     1      16.798  -0.899  36.248  1.00  0.00    -0.144 F 
HETATM   17  F3  UNK     1      15.704  -1.610  34.495  1.00  0.00    -0.144 F 
ENDBRANCH  13  14
ENDBRANCH  12  13
ENDBRANCH   1   2
BRANCH   1  18
HETATM   18  C6  UNK     1      18.886   4.249  30.205  1.00  0.00     0.127 C 
BRANCH  18  19
HETATM   19  N2  UNK     1      19.291   2.862  30.235  1.00  0.00    -0.356 N 
HETATM   20  C12 UNK     1      18.538   1.844  29.679  1.00  0.00     0.257 C 
HETATM   21  O3  UNK     1      17.459   1.970  29.102  1.00  0.00    -0.267 OA
HETATM   22  H12 UNK     1      20.158   2.650  30.719  1.00  0.00     0.162 HD
BRANCH  20  23
HETATM   23  C13 UNK     1      19.160   0.524  29.835  1.00  0.00     0.108 A 
HETATM   24  C15 UNK     1      19.464   0.157  31.086  1.00  0.00     0.037 A 
HETATM   25  C14 UNK     1      20.084  -1.134  31.341  1.00  0.00    -0.001 A 
HETATM   26  C16 UNK     1      20.352  -1.976  30.267  1.00  0.00     0.089 A 
HETATM   27  C18 UNK     1      20.418  -1.558  32.630  1.00  0.00     0.014 A 
HETATM   28  O2  UNK     1      20.030  -1.584  28.953  1.00  0.00    -0.274 OA
HETATM   29  C19 UNK     1      20.945  -3.225  30.444  1.00  0.00     0.038 A 
HETATM   30  C17 UNK     1      19.437  -0.356  28.677  1.00  0.00     0.304 A 
HETATM   31  O4  UNK     1      19.160  -0.023  27.530  1.00  0.00    -0.259 OA
HETATM   32  C22 UNK     1      21.275  -3.640  31.732  1.00  0.00     0.003 A 
HETATM   33  C21 UNK     1      21.013  -2.808  32.823  1.00  0.00     0.001 A 
ENDBRANCH  20  23
ENDBRANCH  18  19
ENDBRANCH   1  18
TORSDOF 6
ENDMDL
MODEL 4
REMARK VINA RESULT:      -9.6      1.039      1.840
REMARK  6 active torsions:
REMARK  status: ('A' for Active; 'I' for Inactive)
REMARK    1  A    between atoms: C10_19  and  O1_4 
REMARK    2  A    between atoms: C20_29  and  O1_4 
REMARK       I    between atoms: C12_21  and  N2_9 
REMARK    3  A    between atoms: C6_15  and  N2_9 
REMARK    4  A    between atoms: C1_10  and  C3_12 
REMARK    5  A    between atoms: C3_12  and  C6_15 
REMARK    6  A    between atoms: C12_21  and  C13_22 
ROOT
HETATM    1  C3  UNK     1      19.857   5.744  30.402  1.00  0.00     0.061 C 
ENDROOT
BRANCH   1   2
HETATM    2  C1  UNK     1      19.816   6.469  31.717  1.00  0.00    -0.022 A 
HETATM    3  C2  UNK     1      18.709   7.175  32.227  1.00  0.00     0.002 A 
HETATM    4  C5  UNK     1      19.107   7.686  33.464  1.00  0.00     0.043 A 
HETATM    5  C7  UNK     1      17.402   7.440  31.772  1.00  0.00     0.051 A 
HETATM    6  N1  UNK     1      20.408   7.287  33.668  1.00  0.00    -0.359 N 
HETATM    7  C8  UNK     1      18.259   8.452  34.273  1.00  0.00     0.033 A 
HETATM    8  C4  UNK     1      20.846   6.545  32.605  1.00  0.00     0.013 A 
HETATM    9  H3  UNK     1      20.957   7.513  34.486  1.00  0.00     0.166 HD
HETATM   10  C9  UNK     1      22.215   5.994  32.574  1.00  0.00     0.068 C 
HETATM   11  C11 UNK     1      16.967   8.703  33.801  1.00  0.00     0.039 A 
HETATM   12  C10 UNK     1      16.543   8.205  32.570  1.00  0.00     0.079 A 
BRANCH  12  13
HETATM   13  O1  UNK     1      15.278   8.465  32.136  1.00  0.00    -0.255 OA
BRANCH  13  14
HETATM   14  C20 UNK     1      14.191   7.886  32.850  1.00  0.00     0.530 C 
HETATM   15  F1  UNK     1      13.207   7.502  32.009  1.00  0.00    -0.144 F 
HETATM   16  F2  UNK     1      13.681   8.815  33.691  1.00  0.00    -0.144 F 
HETATM   17  F3  UNK     1      14.599   6.834  33.590  1.00  0.00    -0.144 F 
ENDBRANCH  13  14
ENDBRANCH  12  13
ENDBRANCH   1   2
BRANCH   1  18
HETATM   18  C6  UNK     1      18.682   4.787  30.205  1.00  0.00     0.127 C 
BRANCH  18  19
HETATM   19  N2  UNK     1      19.100   3.407  30.111  1.00  0.00    -0.356 N 
HETATM   20  C12 UNK     1      18.324   2.352  30.555  1.00  0.00     0.257 C 
HETATM   21  O3  UNK     1      17.212   2.435  31.073  1.00  0.00    -0.267 OA
HETATM   22  H12 UNK     1      20.023   3.234  29.723  1.00  0.00     0.162 HD
BRANCH  20  23
HETATM   23  C13 UNK     1      18.963   1.047  30.348  1.00  0.00     0.108 A 
HETATM   24  C15 UNK     1      19.296   0.370  31.454  1.00  0.00     0.037 A 
HETATM   25  C14 UNK     1      19.935  -0.934  31.350  1.00  0.00    -0.001 A 
HETATM   26  C16 UNK     1      20.191  -1.460  30.089  1.00  0.00     0.089 A 
HETATM   27  C18 UNK     1      20.299  -1.675  32.477  1.00  0.00     0.014 A 
HETATM   28  O2  UNK     1      19.837  -0.742  28.929  1.00  0.00    -0.274 OA
HETATM   29  C19 UNK     1      20.800  -2.702  29.921  1.00  0.00     0.038 A 
HETATM   30  C17 UNK     1      19.226   0.506  28.995  1.00  0.00     0.304 A 
HETATM   31  O4  UNK     1      18.923   1.124  27.981  1.00  0.00    -0.259 OA
HETATM   32  C22 UNK     1      21.161  -3.435  31.049  1.00  0.00     0.003 A 
HETATM   33  C21 UNK     1      20.911  -2.923  32.325  1.00  0.00     0.001 A 
ENDBRANCH  20  23
ENDBRANCH  18  19
ENDBRANCH   1  18
TORSDOF 6
ENDMDL
MODEL 5
REMARK VINA RESULT:      -9.6      2.168      3.176
REMARK  6 active torsions:
REMARK  status: ('A' for Active; 'I' for Inactive)
REMARK    1  A    between atoms: C10_19  and  O1_4 
REMARK    2  A    between atoms: C20_29  and  O1_4 
REMARK       I    between atoms: C12_21  and  N2_9 
REMARK    3  A    between atoms: C6_15  and  N2_9 
REMARK    4  A    between atoms: C1_10  and  C3_12 
REMARK    5  A    between atoms: C3_12  and  C6_15 
REMARK    6  A    between atoms: C12_21  and  C13_22 
ROOT
HETATM    1  C3  UNK     1      18.826   6.003  30.057  1.00  0.00     0.061 C 
ENDROOT
BRANCH   1   2
HETATM    2  C1  UNK     1      19.234   6.325  31.465  1.00  0.00    -0.022 A 
HETATM    3  C2  UNK     1      18.362   6.728  32.497  1.00  0.00     0.002 A 
HETATM    4  C5  UNK     1      19.157   6.920  33.629  1.00  0.00     0.043 A 
HETATM    5  C7  UNK     1      16.975   6.954  32.596  1.00  0.00     0.051 A 
HETATM    6  N1  UNK     1      20.454   6.635  33.266  1.00  0.00    -0.359 N 
HETATM    7  C8  UNK     1      18.632   7.328  34.860  1.00  0.00     0.033 A 
HETATM    8  C4  UNK     1      20.507   6.273  31.947  1.00  0.00     0.013 A 
HETATM    9  H3  UNK     1      21.249   6.689  33.888  1.00  0.00     0.166 HD
HETATM   10  C9  UNK     1      21.787   5.916  31.308  1.00  0.00     0.068 C 
HETATM   11  C11 UNK     1      17.253   7.547  34.935  1.00  0.00     0.039 A 
HETATM   12  C10 UNK     1      16.435   7.363  33.821  1.00  0.00     0.079 A 
BRANCH  12  13
HETATM   13  O1  UNK     1      15.094   7.583  33.924  1.00  0.00    -0.255 OA
BRANCH  13  14
HETATM   14  C20 UNK     1      14.613   8.907  33.723  1.00  0.00     0.530 C 
HETATM   15  F1  UNK     1      15.593   9.716  33.269  1.00  0.00    -0.144 F 
HETATM   16  F2  UNK     1      14.184   9.397  34.908  1.00  0.00    -0.144 F 
HETATM   17  F3  UNK     1      13.572   8.921  32.865  1.00  0.00    -0.144 F 
ENDBRANCH  13  14
ENDBRANCH  12  13
ENDBRANCH   1   2
BRANCH   1  18
HETATM   18  C6  UNK     1      19.139   4.563  29.653  1.00  0.00     0.127 C 
BRANCH  18  19
HETATM   19  N2  UNK     1      19.085   3.648  30.771  1.00  0.00    -0.356 N 
HETATM   20  C12 UNK     1      18.305   2.507  30.774  1.00  0.00     0.257 C 
HETATM   21  O3  UNK     1      17.574   2.123  29.862  1.00  0.00    -0.267 OA
HETATM   22  H12 UNK     1      19.632   3.895  31.590  1.00  0.00     0.162 HD
BRANCH  20  23
HETATM   23  C13 UNK     1      18.421   1.739  32.020  1.00  0.00     0.108 A 
HETATM   24  C15 UNK     1      18.051   2.372  33.140  1.00  0.00     0.037 A 
HETATM   25  C14 UNK     1      18.131   1.693  34.425  1.00  0.00    -0.001 A 
HETATM   26  C16 UNK     1      18.596   0.383  34.467  1.00  0.00     0.089 A 
HETATM   27  C18 UNK     1      17.754   2.314  35.619  1.00  0.00     0.014 A 
HETATM   28  O2  UNK     1      18.984  -0.276  33.284  1.00  0.00    -0.274 OA
HETATM   29  C19 UNK     1      18.697  -0.322  35.664  1.00  0.00     0.038 A 
HETATM   30  C17 UNK     1      18.919   0.346  32.041  1.00  0.00     0.304 A 
HETATM   31  O4  UNK     1      19.260  -0.236  31.017  1.00  0.00    -0.259 OA
HETATM   32  C22 UNK     1      18.321   0.304  36.851  1.00  0.00     0.003 A 
HETATM   33  C21 UNK     1      17.850   1.619  36.829  1.00  0.00     0.001 A 
ENDBRANCH  20  23
ENDBRANCH  18  19
ENDBRANCH   1  18
TORSDOF 6
ENDMDL
MODEL 6
REMARK VINA RESULT:      -9.6      8.493     12.671
REMARK  6 active torsions:
REMARK  status: ('A' for Active; 'I' for Inactive)
REMARK    1  A    between atoms: C10_19  and  O1_4 
REMARK    2  A    between atoms: C20_29  and  O1_4 
REMARK       I    between atoms: C12_21  and  N2_9 
REMARK    3  A    between atoms: C6_15  and  N2_9 
REMARK    4  A    between atoms: C1_10  and  C3_12 
REMARK    5  A    between atoms: C3_12  and  C6_15 
REMARK    6  A    between atoms: C12_21  and  C13_22 
ROOT
HETATM    1  C3  UNK     1      20.020  -5.266  35.713  1.00  0.00     0.061 C 
ENDROOT
BRANCH   1   2
HETATM    2  C1  UNK     1      19.697  -6.262  36.790  1.00  0.00    -0.022 A 
HETATM    3  C2  UNK     1      20.610  -6.770  37.735  1.00  0.00     0.002 A 
HETATM    4  C5  UNK     1      19.891  -7.658  38.537  1.00  0.00     0.043 A 
HETATM    5  C7  UNK     1      21.981  -6.574  37.999  1.00  0.00     0.051 A 
HETATM    6  N1  UNK     1      18.595  -7.665  38.073  1.00  0.00    -0.359 N 
HETATM    7  C8  UNK     1      20.476  -8.362  39.596  1.00  0.00     0.033 A 
HETATM    8  C4  UNK     1      18.471  -6.816  37.006  1.00  0.00     0.013 A 
HETATM    9  H3  UNK     1      17.847  -8.220  38.466  1.00  0.00     0.166 HD
HETATM   10  C9  UNK     1      17.177  -6.640  36.322  1.00  0.00     0.068 C 
HETATM   11  C11 UNK     1      21.836  -8.152  39.840  1.00  0.00     0.039 A 
HETATM   12  C10 UNK     1      22.579  -7.271  39.055  1.00  0.00     0.079 A 
BRANCH  12  13
HETATM   13  O1  UNK     1      23.903  -7.085  39.317  1.00  0.00    -0.255 OA
BRANCH  13  14
HETATM   14  C20 UNK     1      24.837  -7.983  38.728  1.00  0.00     0.530 C 
HETATM   15  F1  UNK     1      24.286  -8.643  37.688  1.00  0.00    -0.144 F 
HETATM   16  F2  UNK     1      25.204  -8.898  39.654  1.00  0.00    -0.144 F 
HETATM   17  F3  UNK     1      25.948  -7.333  38.322  1.00  0.00    -0.144 F 
ENDBRANCH  13  14
ENDBRANCH  12  13
ENDBRANCH   1   2
BRANCH   1  18
HETATM   18  C6  UNK     1      19.807  -3.818  36.148  1.00  0.00     0.127 C 
BRANCH  18  19
HETATM   19  N2  UNK     1      19.706  -2.910  35.028  1.00  0.00    -0.356 N 
HETATM   20  C12 UNK     1      18.907  -1.782  35.042  1.00  0.00     0.257 C 
HETATM   21  O3  UNK     1      18.196  -1.405  35.973  1.00  0.00    -0.267 OA
HETATM   22  H12 UNK     1      20.233  -3.152  34.195  1.00  0.00     0.162 HD
BRANCH  20  23
HETATM   23  C13 UNK     1      18.974  -1.019  33.789  1.00  0.00     0.108 A 
HETATM   24  C15 UNK     1      19.550  -1.638  32.751  1.00  0.00     0.037 A 
HETATM   25  C14 UNK     1      19.664  -0.963  31.467  1.00  0.00    -0.001 A 
HETATM   26  C16 UNK     1      19.166   0.330  31.340  1.00  0.00     0.089 A 
HETATM   27  C18 UNK     1      20.255  -1.570  30.357  1.00  0.00     0.014 A 
HETATM   28  O2  UNK     1      18.562   0.975  32.437  1.00  0.00    -0.274 OA
HETATM   29  C19 UNK     1      19.245   1.031  30.138  1.00  0.00     0.038 A 
HETATM   30  C17 UNK     1      18.438   0.356  33.677  1.00  0.00     0.304 A 
HETATM   31  O4  UNK     1      17.912   0.925  34.626  1.00  0.00    -0.259 OA
HETATM   32  C22 UNK     1      19.837   0.419  29.036  1.00  0.00     0.003 A 
HETATM   33  C21 UNK     1      20.341  -0.879  29.144  1.00  0.00     0.001 A 
ENDBRANCH  20  23
ENDBRANCH  18  19
ENDBRANCH   1  18
TORSDOF 6
ENDMDL
MODEL 7
REMARK VINA RESULT:      -9.5      2.578      3.172
REMARK  6 active torsions:
REMARK  status: ('A' for Active; 'I' for Inactive)
REMARK    1  A    between atoms: C10_19  and  O1_4 
REMARK    2  A    between atoms: C20_29  and  O1_4 
REMARK       I    between atoms: C12_21  and  N2_9 
REMARK    3  A    between atoms: C6_15  and  N2_9 
REMARK    4  A    between atoms: C1_10  and  C3_12 
REMARK    5  A    between atoms: C3_12  and  C6_15 
REMARK    6  A    between atoms: C12_21  and  C13_22 
ROOT
HETATM    1  C3  UNK     1      16.987   6.430  33.522  1.00  0.00     0.061 C 
ENDROOT
BRANCH   1   2
HETATM    2  C1  UNK     1      17.920   7.596  33.680  1.00  0.00    -0.022 A 
HETATM    3  C2  UNK     1      17.529   8.934  33.884  1.00  0.00     0.002 A 
HETATM    4  C5  UNK     1      18.707   9.677  33.975  1.00  0.00     0.043 A 
HETATM    5  C7  UNK     1      16.294   9.603  34.001  1.00  0.00     0.051 A 
HETATM    6  N1  UNK     1      19.754   8.795  33.830  1.00  0.00    -0.359 N 
HETATM    7  C8  UNK     1      18.713  11.062  34.180  1.00  0.00     0.033 A 
HETATM    8  C4  UNK     1      19.280   7.524  33.649  1.00  0.00     0.013 A 
HETATM    9  H3  UNK     1      20.731   9.055  33.854  1.00  0.00     0.166 HD
HETATM   10  C9  UNK     1      20.202   6.387  33.467  1.00  0.00     0.068 C 
HETATM   11  C11 UNK     1      17.477  11.704  34.293  1.00  0.00     0.039 A 
HETATM   12  C10 UNK     1      16.285  10.988  34.206  1.00  0.00     0.079 A 
BRANCH  12  13
HETATM   13  O1  UNK     1      15.094  11.641  34.321  1.00  0.00    -0.255 OA
BRANCH  13  14
HETATM   14  C20 UNK     1      14.492  11.718  35.607  1.00  0.00     0.530 C 
HETATM   15  F1  UNK     1      13.286  12.321  35.544  1.00  0.00    -0.144 F 
HETATM   16  F2  UNK     1      15.285  12.459  36.414  1.00  0.00    -0.144 F 
HETATM   17  F3  UNK     1      14.364  10.494  36.160  1.00  0.00    -0.144 F 
ENDBRANCH  13  14
ENDBRANCH  12  13
ENDBRANCH   1   2
BRANCH   1  18
HETATM   18  C6  UNK     1      16.989   5.842  32.112  1.00  0.00     0.127 C 
BRANCH  18  19
HETATM   19  N2  UNK     1      17.454   4.474  32.081  1.00  0.00    -0.356 N 
HETATM   20  C12 UNK     1      18.348   4.003  31.137  1.00  0.00     0.257 C 
HETATM   21  O3  UNK     1      18.854   4.655  30.225  1.00  0.00    -0.267 OA
HETATM   22  H12 UNK     1      17.068   3.845  32.778  1.00  0.00     0.162 HD
BRANCH  20  23
HETATM   23  C13 UNK     1      18.669   2.582  31.315  1.00  0.00     0.108 A 
HETATM   24  C15 UNK     1      19.211   1.962  30.259  1.00  0.00     0.037 A 
HETATM   25  C14 UNK     1      19.563   0.552  30.338  1.00  0.00    -0.001 A 
HETATM   26  C16 UNK     1      19.328  -0.135  31.525  1.00  0.00     0.089 A 
HETATM   27  C18 UNK     1      20.131  -0.135  29.263  1.00  0.00     0.014 A 
HETATM   28  O2  UNK     1      18.757   0.524  32.632  1.00  0.00    -0.274 OA
HETATM   29  C19 UNK     1      19.642  -1.485  31.666  1.00  0.00     0.038 A 
HETATM   30  C17 UNK     1      18.410   1.870  32.587  1.00  0.00     0.304 A 
HETATM   31  O4  UNK     1      17.913   2.435  33.555  1.00  0.00    -0.259 OA
HETATM   32  C22 UNK     1      20.207  -2.163  30.588  1.00  0.00     0.003 A 
HETATM   33  C21 UNK     1      20.451  -1.490  29.389  1.00  0.00     0.001 A 
ENDBRANCH  20  23
ENDBRANCH  18  19
ENDBRANCH   1  18
TORSDOF 6
ENDMDL
MODEL 8
REMARK VINA RESULT:      -9.4      6.659      9.402
REMARK  6 active torsions:
REMARK  status: ('A' for Active; 'I' for Inactive)
REMARK    1  A    between atoms: C10_19  and  O1_4 
REMARK    2  A    between atoms: C20_29  and  O1_4 
REMARK       I    between atoms: C12_21  and  N2_9 
REMARK    3  A    between atoms: C6_15  and  N2_9 
REMARK    4  A    between atoms: C1_10  and  C3_12 
REMARK    5  A    between atoms: C3_12  and  C6_15 
REMARK    6  A    between atoms: C12_21  and  C13_22 
ROOT
HETATM    1  C3  UNK     1      20.229  -2.586  34.207  1.00  0.00     0.061 C 
ENDROOT
BRANCH   1   2
HETATM    2  C1  UNK     1      19.574  -1.382  33.594  1.00  0.00    -0.022 A 
HETATM    3  C2  UNK     1      19.114  -0.253  34.302  1.00  0.00     0.002 A 
HETATM    4  C5  UNK     1      18.581   0.616  33.348  1.00  0.00     0.043 A 
HETATM    5  C7  UNK     1      19.090   0.130  35.658  1.00  0.00     0.051 A 
HETATM    6  N1  UNK     1      18.728   0.011  32.120  1.00  0.00    -0.359 N 
HETATM    7  C8  UNK     1      18.023   1.855  33.684  1.00  0.00     0.033 A 
HETATM    8  C4  UNK     1      19.333  -1.209  32.265  1.00  0.00     0.013 A 
HETATM    9  H3  UNK     1      18.430   0.413  31.242  1.00  0.00     0.166 HD
HETATM   10  C9  UNK     1      19.608  -2.065  31.095  1.00  0.00     0.068 C 
HETATM   11  C11 UNK     1      18.009   2.214  35.035  1.00  0.00     0.039 A 
HETATM   12  C10 UNK     1      18.535   1.366  36.008  1.00  0.00     0.079 A 
BRANCH  12  13
HETATM   13  O1  UNK     1      18.509   1.743  37.318  1.00  0.00    -0.255 OA
BRANCH  13  14
HETATM   14  C20 UNK     1      17.651   1.034  38.204  1.00  0.00     0.530 C 
HETATM   15  F1  UNK     1      16.379   1.033  37.752  1.00  0.00    -0.144 F 
HETATM   16  F2  UNK     1      17.665   1.651  39.408  1.00  0.00    -0.144 F 
HETATM   17  F3  UNK     1      18.075  -0.235  38.381  1.00  0.00    -0.144 F 
ENDBRANCH  13  14
ENDBRANCH  12  13
ENDBRANCH   1   2
BRANCH   1  18
HETATM   18  C6  UNK     1      19.596  -3.008  35.532  1.00  0.00     0.127 C 
BRANCH  18  19
HETATM   19  N2  UNK     1      19.644  -4.437  35.741  1.00  0.00    -0.356 N 
HETATM   20  C12 UNK     1      20.548  -5.045  36.593  1.00  0.00     0.257 C 
HETATM   21  O3  UNK     1      21.406  -4.478  37.267  1.00  0.00    -0.267 OA
HETATM   22  H12 UNK     1      18.992  -5.000  35.202  1.00  0.00     0.162 HD
BRANCH  20  23
HETATM   23  C13 UNK     1      20.397  -6.505  36.637  1.00  0.00     0.108 A 
HETATM   24  C15 UNK     1      20.123  -7.035  37.836  1.00  0.00     0.037 A 
HETATM   25  C14 UNK     1      19.957  -8.473  37.980  1.00  0.00    -0.001 A 
HETATM   26  C16 UNK     1      20.087  -9.282  36.857  1.00  0.00     0.089 A 
HETATM   27  C18 UNK     1      19.669  -9.069  39.211  1.00  0.00     0.014 A 
HETATM   28  O2  UNK     1      20.376  -8.718  35.598  1.00  0.00    -0.274 OA
HETATM   29  C19 UNK     1      19.940 -10.666  36.928  1.00  0.00     0.038 A 
HETATM   30  C17 UNK     1      20.540  -7.347  35.428  1.00  0.00     0.304 A 
HETATM   31  O4  UNK     1      20.793  -6.864  34.330  1.00  0.00    -0.259 OA
HETATM   32  C22 UNK     1      19.654 -11.253  38.158  1.00  0.00     0.003 A 
HETATM   33  C21 UNK     1      19.519 -10.456  39.298  1.00  0.00     0.001 A 
ENDBRANCH  20  23
ENDBRANCH  18  19
ENDBRANCH   1  18
TORSDOF 6
ENDMDL
MODEL 9
REMARK VINA RESULT:      -9.3     16.354     18.198
REMARK  6 active torsions:
REMARK  status: ('A' for Active; 'I' for Inactive)
REMARK    1  A    between atoms: C10_19  and  O1_4 
REMARK    2  A    between atoms: C20_29  and  O1_4 
REMARK       I    between atoms: C12_21  and  N2_9 
REMARK    3  A    between atoms: C6_15  and  N2_9 
REMARK    4  A    between atoms: C1_10  and  C3_12 
REMARK    5  A    between atoms: C3_12  and  C6_15 
REMARK    6  A    between atoms: C12_21  and  C13_22 
ROOT
HETATM    1  C3  UNK     1      32.956  -4.443  34.893  1.00  0.00     0.061 C 
ENDROOT
BRANCH   1   2
HETATM    2  C1  UNK     1      33.226  -5.886  35.208  1.00  0.00    -0.022 A 
HETATM    3  C2  UNK     1      32.331  -6.952  34.986  1.00  0.00     0.002 A 
HETATM    4  C5  UNK     1      32.983  -8.108  35.418  1.00  0.00     0.043 A 
HETATM    5  C7  UNK     1      31.027  -7.064  34.463  1.00  0.00     0.051 A 
HETATM    6  N1  UNK     1      34.224  -7.726  35.877  1.00  0.00    -0.359 N 
HETATM    7  C8  UNK     1      32.395  -9.376  35.352  1.00  0.00     0.033 A 
HETATM    8  C4  UNK     1      34.376  -6.371  35.751  1.00  0.00     0.013 A 
HETATM    9  H3  UNK     1      34.917  -8.358  36.252  1.00  0.00     0.166 HD
HETATM   10  C9  UNK     1      35.623  -5.705  36.173  1.00  0.00     0.068 C 
HETATM   11  C11 UNK     1      31.101  -9.464  34.831  1.00  0.00     0.039 A 
HETATM   12  C10 UNK     1      30.426  -8.326  34.392  1.00  0.00     0.079 A 
BRANCH  12  13
HETATM   13  O1  UNK     1      29.166  -8.442  33.886  1.00  0.00    -0.255 OA
BRANCH  13  14
HETATM   14  C20 UNK     1      29.015  -8.957  32.568  1.00  0.00     0.530 C 
HETATM   15  F1  UNK     1      27.981  -8.368  31.932  1.00  0.00    -0.144 F 
HETATM   16  F2  UNK     1      28.756 -10.282  32.647  1.00  0.00    -0.144 F 
HETATM   17  F3  UNK     1      30.147  -8.796  31.850  1.00  0.00    -0.144 F 
ENDBRANCH  13  14
ENDBRANCH  12  13
ENDBRANCH   1   2
BRANCH   1  18
HETATM   18  C6  UNK     1      32.310  -3.684  36.051  1.00  0.00     0.127 C 
BRANCH  18  19
HETATM   19  N2  UNK     1      31.282  -4.453  36.714  1.00  0.00    -0.356 N 
HETATM   20  C12 UNK     1      31.474  -5.077  37.933  1.00  0.00     0.257 C 
HETATM   21  O3  UNK     1      32.508  -5.069  38.599  1.00  0.00    -0.267 OA
HETATM   22  H12 UNK     1      30.396  -4.547  36.227  1.00  0.00     0.162 HD
BRANCH  20  23
HETATM   23  C13 UNK     1      30.282  -5.794  38.402  1.00  0.00     0.108 A 
HETATM   24  C15 UNK     1      30.232  -7.103  38.127  1.00  0.00     0.037 A 
HETATM   25  C14 UNK     1      29.089  -7.898  38.550  1.00  0.00    -0.001 A 
HETATM   26  C16 UNK     1      28.056  -7.276  39.242  1.00  0.00     0.089 A 
HETATM   27  C18 UNK     1      28.996  -9.267  38.286  1.00  0.00     0.014 A 
HETATM   28  O2  UNK     1      28.115  -5.898  39.529  1.00  0.00    -0.274 OA
HETATM   29  C19 UNK     1      26.934  -7.980  39.675  1.00  0.00     0.038 A 
HETATM   30  C17 UNK     1      29.193  -5.111  39.137  1.00  0.00     0.304 A 
HETATM   31  O4  UNK     1      29.235  -3.912  39.389  1.00  0.00    -0.259 OA
HETATM   32  C22 UNK     1      26.848  -9.344  39.407  1.00  0.00     0.003 A 
HETATM   33  C21 UNK     1      27.877  -9.987  38.714  1.00  0.00     0.001 A 
ENDBRANCH  20  23
ENDBRANCH  18  19
ENDBRANCH   1  18
TORSDOF 6
ENDMDL
MODEL 10
REMARK VINA RESULT:      -9.2     14.833     17.247
REMARK  6 active torsions:
REMARK  status: ('A' for Active; 'I' for Inactive)
REMARK    1  A    between atoms: C10_19  and  O1_4 
REMARK    2  A    between atoms: C20_29  and  O1_4 
REMARK       I    between atoms: C12_21  and  N2_9 
REMARK    3  A    between atoms: C6_15  and  N2_9 
REMARK    4  A    between atoms: C1_10  and  C3_12 
REMARK    5  A    between atoms: C3_12  and  C6_15 
REMARK    6  A    between atoms: C12_21  and  C13_22 
ROOT
HETATM    1  C3  UNK     1      32.263  -8.263  37.940  1.00  0.00     0.061 C 
ENDROOT
BRANCH   1   2
HETATM    2  C1  UNK     1      31.148  -7.308  38.256  1.00  0.00    -0.022 A 
HETATM    3  C2  UNK     1      29.785  -7.649  38.362  1.00  0.00     0.002 A 
HETATM    4  C5  UNK     1      29.107  -6.467  38.666  1.00  0.00     0.043 A 
HETATM    5  C7  UNK     1      29.045  -8.842  38.232  1.00  0.00     0.051 A 
HETATM    6  N1  UNK     1      30.050  -5.466  38.735  1.00  0.00    -0.359 N 
HETATM    7  C8  UNK     1      27.721  -6.417  38.848  1.00  0.00     0.033 A 
HETATM    8  C4  UNK     1      31.297  -5.974  38.485  1.00  0.00     0.013 A 
HETATM    9  H3  UNK     1      29.846  -4.498  38.941  1.00  0.00     0.166 HD
HETATM   10  C9  UNK     1      32.488  -5.104  38.499  1.00  0.00     0.068 C 
HETATM   11  C11 UNK     1      27.007  -7.611  38.714  1.00  0.00     0.039 A 
HETATM   12  C10 UNK     1      27.657  -8.806  38.411  1.00  0.00     0.079 A 
BRANCH  12  13
HETATM   13  O1  UNK     1      26.935  -9.955  38.288  1.00  0.00    -0.255 OA
BRANCH  13  14
HETATM   14  C20 UNK     1      26.329 -10.236  37.031  1.00  0.00     0.530 C 
HETATM   15  F1  UNK     1      25.196  -9.523  36.868  1.00  0.00    -0.144 F 
HETATM   16  F2  UNK     1      26.004 -11.549  36.990  1.00  0.00    -0.144 F 
HETATM   17  F3  UNK     1      27.180  -9.987  36.014  1.00  0.00    -0.144 F 
ENDBRANCH  13  14
ENDBRANCH  12  13
ENDBRANCH   1   2
BRANCH   1  18
HETATM   18  C6  UNK     1      32.763  -8.152  36.501  1.00  0.00     0.127 C 
BRANCH  18  19
HETATM   19  N2  UNK     1      31.714  -7.788  35.575  1.00  0.00    -0.356 N 
HETATM   20  C12 UNK     1      30.801  -8.698  35.074  1.00  0.00     0.257 C 
HETATM   21  O3  UNK     1      30.753  -9.899  35.335  1.00  0.00    -0.267 OA
HETATM   22  H12 UNK     1      31.688  -6.819  35.272  1.00  0.00     0.162 HD
BRANCH  20  23
HETATM   23  C13 UNK     1      29.834  -8.087  34.154  1.00  0.00     0.108 A 
HETATM   24  C15 UNK     1      29.544  -8.788  33.050  1.00  0.00     0.037 A 
HETATM   25  C14 UNK     1      28.597  -8.265  32.078  1.00  0.00    -0.001 A 
HETATM   26  C16 UNK     1      28.000  -7.031  32.316  1.00  0.00     0.089 A 
HETATM   27  C18 UNK     1      28.265  -8.961  30.914  1.00  0.00     0.014 A 
HETATM   28  O2  UNK     1      28.309  -6.299  33.479  1.00  0.00    -0.274 OA
HETATM   29  C19 UNK     1      27.085  -6.474  31.424  1.00  0.00     0.038 A 
HETATM   30  C17 UNK     1      29.211  -6.773  34.427  1.00  0.00     0.304 A 
HETATM   31  O4  UNK     1      29.475  -6.129  35.437  1.00  0.00    -0.259 OA
HETATM   32  C22 UNK     1      26.760  -7.174  30.265  1.00  0.00     0.003 A 
HETATM   33  C21 UNK     1      27.348  -8.415  30.009  1.00  0.00     0.001 A 
ENDBRANCH  20  23
ENDBRANCH  18  19
ENDBRANCH   1  18
TORSDOF 6
ENDMDL
