MODEL 1
REMARK VINA RESULT:      -9.5      0.000      0.000
REMARK  7 active torsions:
REMARK  status: ('A' for Active; 'I' for Inactive)
REMARK    1  A    between atoms: C18_25  and  O3_3 
REMARK    2  A    between atoms: C26_33  and  O3_3 
REMARK    3  A    between atoms: C5_12  and  N1_5 
REMARK    4  A    between atoms: C6_13  and  N2_6 
REMARK    5  A    between atoms: C5_12  and  C7_14 
REMARK    6  A    between atoms: C6_13  and  C8_15 
REMARK    7  A    between atoms: C14_21  and  C19_26 
ROOT
HETATM    1  N1  UNK     1      19.216  -3.117  36.191  1.00  0.00     0.096 N 
HETATM    2  N2  UNK     1      18.121  -0.561  35.397  1.00  0.00     0.097 N 
HETATM    3  C1  UNK     1      18.513  -2.258  37.151  1.00  0.00     0.303 C 
HETATM    4  C2  UNK     1      19.856  -2.304  35.150  1.00  0.00     0.303 C 
HETATM    5  C3  UNK     1      17.483  -1.374  36.440  1.00  0.00     0.303 C 
HETATM    6  C4  UNK     1      18.826  -1.421  34.437  1.00  0.00     0.303 C 
ENDROOT
BRANCH   1   7
HETATM    7  C5  UNK     1      20.200  -3.958  36.870  1.00  0.00     0.312 C 
BRANCH   7   8
HETATM    8  C7  UNK     1      19.878  -5.408  36.749  1.00  0.00    -0.011 A 
HETATM    9  C11 UNK     1      18.746  -5.819  36.159  1.00  0.00     0.092 A 
HETATM   10  C15 UNK     1      18.385  -7.240  36.016  1.00  0.00     0.288 A 
HETATM   11  O2  UNK     1      19.283  -8.164  36.526  1.00  0.00    -0.275 OA
HETATM   12  O4  UNK     1      17.341  -7.579  35.470  1.00  0.00    -0.260 OA
HETATM   13  C12 UNK     1      20.480  -7.763  37.151  1.00  0.00     0.090 A 
HETATM   14  C9  UNK     1      20.809  -6.413  37.280  1.00  0.00     0.009 A 
HETATM   15  C17 UNK     1      21.308  -8.781  37.629  1.00  0.00     0.041 A 
HETATM   16  C13 UNK     1      22.017  -6.096  37.916  1.00  0.00     0.051 A 
HETATM   17  C18 UNK     1      22.856  -7.105  38.400  1.00  0.00     0.069 A 
HETATM   18  C20 UNK     1      22.503  -8.446  38.257  1.00  0.00     0.039 A 
BRANCH  17  19
HETATM   19  O3  UNK     1      24.027  -6.776  39.015  1.00  0.00    -0.351 OA
BRANCH  19  20
HETATM   20  C26 UNK     1      25.073  -7.745  38.981  1.00  0.00     0.171 C 
HETATM   21  C28 UNK     1      26.370  -7.058  38.616  1.00  0.00     0.034 C 
ENDBRANCH  19  20
ENDBRANCH  17  19
ENDBRANCH   7   8
ENDBRANCH   1   7
BRANCH   2  22
HETATM   22  C6  UNK     1      17.137   0.278  34.717  1.00  0.00     0.334 C 
BRANCH  22  23
HETATM   23  C8  UNK     1      17.770   1.581  34.351  1.00  0.00     0.095 A 
HETATM   24  C10 UNK     1      18.598   2.380  35.100  1.00  0.00     0.078 A 
HETATM   25  O1  UNK     1      18.925   3.468  34.347  1.00  0.00    -0.294 OA
HETATM   26  C16 UNK     1      19.166   2.308  36.451  1.00  0.00     0.079 C 
HETATM   27  C14 UNK     1      18.264   3.255  33.177  1.00  0.00     0.180 A 
HETATM   28  N3  UNK     1      17.560   2.147  33.119  1.00  0.00    -0.224 NA
BRANCH  27  29
HETATM   29  C19 UNK     1      18.439   4.276  32.181  1.00  0.00     0.023 A 
HETATM   30  C21 UNK     1      18.067   5.596  32.430  1.00  0.00    -0.048 A 
HETATM   31  C23 UNK     1      18.248   6.570  31.447  1.00  0.00     0.007 A 
HETATM   32  C24 UNK     1      17.471   6.008  33.739  1.00  0.00     0.049 C 
HETATM   33  C27 UNK     1      18.800   6.222  30.215  1.00  0.00     0.001 A 
HETATM   34  C25 UNK     1      19.173   4.901  29.966  1.00  0.00     0.001 A 
HETATM   35  C22 UNK     1      18.992   3.928  30.948  1.00  0.00     0.016 A 
ENDBRANCH  27  29
ENDBRANCH  22  23
ENDBRANCH   2  22
TORSDOF 7
ENDMDL
MODEL 2
REMARK VINA RESULT:      -9.3      5.344      8.580
REMARK  7 active torsions:
REMARK  status: ('A' for Active; 'I' for Inactive)
REMARK    1  A    between atoms: C18_25  and  O3_3 
REMARK    2  A    between atoms: C26_33  and  O3_3 
REMARK    3  A    between atoms: C5_12  and  N1_5 
REMARK    4  A    between atoms: C6_13  and  N2_6 
REMARK    5  A    between atoms: C5_12  and  C7_14 
REMARK    6  A    between atoms: C6_13  and  C8_15 
REMARK    7  A    between atoms: C14_21  and  C19_26 
ROOT
HETATM    1  N1  UNK     1      18.732   3.212  31.304  1.00  0.00     0.096 N 
HETATM    2  N2  UNK     1      18.733   5.908  32.350  1.00  0.00     0.097 N 
HETATM    3  C1  UNK     1      18.980   4.368  30.433  1.00  0.00     0.303 C 
HETATM    4  C2  UNK     1      17.868   3.594  32.427  1.00  0.00     0.303 C 
HETATM    5  C3  UNK     1      19.596   5.526  31.225  1.00  0.00     0.303 C 
HETATM    6  C4  UNK     1      18.484   4.751  33.221  1.00  0.00     0.303 C 
ENDROOT
BRANCH   1   7
HETATM    7  C5  UNK     1      18.143   2.109  30.548  1.00  0.00     0.312 C 
BRANCH   7   8
HETATM    8  C7  UNK     1      19.047   0.926  30.484  1.00  0.00    -0.011 A 
HETATM    9  C11 UNK     1      19.764   0.662  29.382  1.00  0.00     0.092 A 
HETATM   10  C15 UNK     1      20.670  -0.493  29.271  1.00  0.00     0.288 A 
HETATM   11  O2  UNK     1      20.758  -1.323  30.377  1.00  0.00    -0.275 OA
HETATM   12  O4  UNK     1      21.311  -0.703  28.247  1.00  0.00    -0.260 OA
HETATM   13  C12 UNK     1      20.016  -1.073  31.548  1.00  0.00     0.090 A 
HETATM   14  C9  UNK     1      19.162   0.027  31.639  1.00  0.00     0.009 A 
HETATM   15  C17 UNK     1      20.183  -1.976  32.600  1.00  0.00     0.041 A 
HETATM   16  C13 UNK     1      18.458   0.206  32.837  1.00  0.00     0.051 A 
HETATM   17  C18 UNK     1      18.614  -0.692  33.900  1.00  0.00     0.069 A 
HETATM   18  C20 UNK     1      19.475  -1.782  33.781  1.00  0.00     0.039 A 
BRANCH  17  19
HETATM   19  O3  UNK     1      17.921  -0.500  35.057  1.00  0.00    -0.351 OA
BRANCH  19  20
HETATM   20  C26 UNK     1      16.574  -0.969  35.092  1.00  0.00     0.171 C 
HETATM   21  C28 UNK     1      15.655   0.193  35.397  1.00  0.00     0.034 C 
ENDBRANCH  19  20
ENDBRANCH  17  19
ENDBRANCH   7   8
ENDBRANCH   1   7
BRANCH   2  22
HETATM   22  C6  UNK     1      19.324   7.009  33.107  1.00  0.00     0.334 C 
BRANCH  22  23
HETATM   23  C8  UNK     1      18.345   8.137  33.181  1.00  0.00     0.095 A 
HETATM   24  C10 UNK     1      17.136   8.275  32.545  1.00  0.00     0.078 A 
HETATM   25  O1  UNK     1      16.599   9.470  32.919  1.00  0.00    -0.294 OA
HETATM   26  C16 UNK     1      16.357   7.456  31.609  1.00  0.00     0.079 C 
HETATM   27  C14 UNK     1      17.529   9.985  33.768  1.00  0.00     0.180 A 
HETATM   28  N3  UNK     1      18.592   9.236  33.964  1.00  0.00    -0.224 NA
BRANCH  27  29
HETATM   29  C19 UNK     1      17.206  11.270  34.323  1.00  0.00     0.023 A 
HETATM   30  C21 UNK     1      16.016  11.475  35.019  1.00  0.00    -0.048 A 
HETATM   31  C23 UNK     1      15.726  12.734  35.549  1.00  0.00     0.007 A 
HETATM   32  C24 UNK     1      15.026  10.372  35.219  1.00  0.00     0.049 C 
HETATM   33  C27 UNK     1      16.626  13.785  35.382  1.00  0.00     0.001 A 
HETATM   34  C25 UNK     1      17.817  13.579  34.685  1.00  0.00     0.001 A 
HETATM   35  C22 UNK     1      18.107  12.322  34.155  1.00  0.00     0.016 A 
ENDBRANCH  27  29
ENDBRANCH  22  23
ENDBRANCH   2  22
TORSDOF 7
ENDMDL
MODEL 3
REMARK VINA RESULT:      -9.2      4.171      7.710
REMARK  7 active torsions:
REMARK  status: ('A' for Active; 'I' for Inactive)
REMARK    1  A    between atoms: C18_25  and  O3_3 
REMARK    2  A    between atoms: C26_33  and  O3_3 
REMARK    3  A    between atoms: C5_12  and  N1_5 
REMARK    4  A    between atoms: C6_13  and  N2_6 
REMARK    5  A    between atoms: C5_12  and  C7_14 
REMARK    6  A    between atoms: C6_13  and  C8_15 
REMARK    7  A    between atoms: C14_21  and  C19_26 
ROOT
HETATM    1  N1  UNK     1      18.483   1.829  33.943  1.00  0.00     0.096 N 
HETATM    2  N2  UNK     1      18.667   4.713  33.828  1.00  0.00     0.097 N 
HETATM    3  C1  UNK     1      17.876   2.589  32.843  1.00  0.00     0.303 C 
HETATM    4  C2  UNK     1      18.518   2.640  35.166  1.00  0.00     0.303 C 
HETATM    5  C3  UNK     1      18.630   3.901  32.604  1.00  0.00     0.303 C 
HETATM    6  C4  UNK     1      19.273   3.953  34.928  1.00  0.00     0.303 C 
ENDROOT
BRANCH   1   7
HETATM    7  C5  UNK     1      17.762   0.579  34.170  1.00  0.00     0.312 C 
BRANCH   7   8
HETATM    8  C7  UNK     1      18.670  -0.603  34.161  1.00  0.00    -0.011 A 
HETATM    9  C11 UNK     1      18.916  -1.295  35.283  1.00  0.00     0.092 A 
HETATM   10  C15 UNK     1      19.805  -2.468  35.325  1.00  0.00     0.288 A 
HETATM   11  O2  UNK     1      20.397  -2.843  34.129  1.00  0.00    -0.275 OA
HETATM   12  O4  UNK     1      20.006  -3.077  36.369  1.00  0.00    -0.260 OA
HETATM   13  C12 UNK     1      20.159  -2.135  32.934  1.00  0.00     0.090 A 
HETATM   14  C9  UNK     1      19.313  -1.024  32.910  1.00  0.00     0.009 A 
HETATM   15  C17 UNK     1      20.809  -2.601  31.790  1.00  0.00     0.041 A 
HETATM   16  C13 UNK     1      19.130  -0.374  31.683  1.00  0.00     0.051 A 
HETATM   17  C18 UNK     1      19.776  -0.829  30.528  1.00  0.00     0.069 A 
HETATM   18  C20 UNK     1      20.615  -1.942  30.582  1.00  0.00     0.039 A 
BRANCH  17  19
HETATM   19  O3  UNK     1      19.584  -0.183  29.344  1.00  0.00    -0.351 OA
BRANCH  19  20
HETATM   20  C26 UNK     1      19.264   1.206  29.408  1.00  0.00     0.171 C 
HETATM   21  C28 UNK     1      18.007   1.460  28.605  1.00  0.00     0.034 C 
ENDBRANCH  19  20
ENDBRANCH  17  19
ENDBRANCH   7   8
ENDBRANCH   1   7
BRANCH   2  22
HETATM   22  C6  UNK     1      19.389   5.962  33.600  1.00  0.00     0.334 C 
BRANCH  22  23
HETATM   23  C8  UNK     1      18.407   7.063  33.359  1.00  0.00     0.095 A 
HETATM   24  C10 UNK     1      17.765   7.409  32.196  1.00  0.00     0.078 A 
HETATM   25  O1  UNK     1      16.962   8.478  32.461  1.00  0.00    -0.294 OA
HETATM   26  C16 UNK     1      17.764   6.898  30.820  1.00  0.00     0.079 C 
HETATM   27  C14 UNK     1      17.174   8.713  33.785  1.00  0.00     0.180 A 
HETATM   28  N3  UNK     1      18.024   7.902  34.374  1.00  0.00    -0.224 NA
BRANCH  27  29
HETATM   29  C19 UNK     1      16.434   9.814  34.336  1.00  0.00     0.023 A 
HETATM   30  C21 UNK     1      16.999  11.085  34.434  1.00  0.00    -0.048 A 
HETATM   31  C23 UNK     1      16.259  12.138  34.973  1.00  0.00     0.007 A 
HETATM   32  C24 UNK     1      18.395  11.358  33.973  1.00  0.00     0.049 C 
HETATM   33  C27 UNK     1      14.954  11.919  35.413  1.00  0.00     0.001 A 
HETATM   34  C25 UNK     1      14.389  10.648  35.315  1.00  0.00     0.001 A 
HETATM   35  C22 UNK     1      15.128   9.595  34.777  1.00  0.00     0.016 A 
ENDBRANCH  27  29
ENDBRANCH  22  23
ENDBRANCH   2  22
TORSDOF 7
ENDMDL
MODEL 4
REMARK VINA RESULT:      -9.1      6.050     11.423
REMARK  7 active torsions:
REMARK  status: ('A' for Active; 'I' for Inactive)
REMARK    1  A    between atoms: C18_25  and  O3_3 
REMARK    2  A    between atoms: C26_33  and  O3_3 
REMARK    3  A    between atoms: C5_12  and  N1_5 
REMARK    4  A    between atoms: C6_13  and  N2_6 
REMARK    5  A    between atoms: C5_12  and  C7_14 
REMARK    6  A    between atoms: C6_13  and  C8_15 
REMARK    7  A    between atoms: C14_21  and  C19_26 
ROOT
HETATM    1  N1  UNK     1      23.589  -8.515  38.621  1.00  0.00     0.096 N 
HETATM    2  N2  UNK     1      26.110  -8.763  37.228  1.00  0.00     0.097 N 
HETATM    3  C1  UNK     1      23.640  -8.783  37.179  1.00  0.00     0.303 C 
HETATM    4  C2  UNK     1      24.770  -7.752  39.042  1.00  0.00     0.303 C 
HETATM    5  C3  UNK     1      24.928  -9.525  36.806  1.00  0.00     0.303 C 
HETATM    6  C4  UNK     1      26.059  -8.494  38.670  1.00  0.00     0.303 C 
ENDROOT
BRANCH   1   7
HETATM    7  C5  UNK     1      22.361  -7.807  38.975  1.00  0.00     0.312 C 
BRANCH   7   8
HETATM    8  C7  UNK     1      21.150  -8.460  38.402  1.00  0.00    -0.011 A 
HETATM    9  C11 UNK     1      20.784  -9.693  38.782  1.00  0.00     0.092 A 
HETATM   10  C15 UNK     1      19.597 -10.379  38.244  1.00  0.00     0.288 A 
HETATM   11  O2  UNK     1      18.850  -9.686  37.305  1.00  0.00    -0.275 OA
HETATM   12  O4  UNK     1      19.292 -11.507  38.616  1.00  0.00    -0.260 OA
HETATM   13  C12 UNK     1      19.210  -8.391  36.886  1.00  0.00     0.090 A 
HETATM   14  C9  UNK     1      20.338  -7.752  37.405  1.00  0.00     0.009 A 
HETATM   15  C17 UNK     1      18.384  -7.789  35.934  1.00  0.00     0.041 A 
HETATM   16  C13 UNK     1      20.629  -6.465  36.935  1.00  0.00     0.051 A 
HETATM   17  C18 UNK     1      19.811  -5.849  35.980  1.00  0.00     0.069 A 
HETATM   18  C20 UNK     1      18.690  -6.510  35.480  1.00  0.00     0.039 A 
BRANCH  17  19
HETATM   19  O3  UNK     1      20.112  -4.596  35.537  1.00  0.00    -0.351 OA
BRANCH  19  20
HETATM   20  C26 UNK     1      20.351  -3.598  36.527  1.00  0.00     0.171 C 
HETATM   21  C28 UNK     1      19.126  -2.719  36.647  1.00  0.00     0.034 C 
ENDBRANCH  19  20
ENDBRANCH  17  19
ENDBRANCH   7   8
ENDBRANCH   1   7
BRANCH   2  22
HETATM   22  C6  UNK     1      27.338  -9.473  36.875  1.00  0.00     0.334 C 
BRANCH  22  23
HETATM   23  C8  UNK     1      28.515  -8.609  37.194  1.00  0.00     0.095 A 
HETATM   24  C10 UNK     1      29.575  -8.865  38.027  1.00  0.00     0.078 A 
HETATM   25  O1  UNK     1      30.403  -7.783  38.000  1.00  0.00    -0.294 OA
HETATM   26  C16 UNK     1      29.973  -9.989  38.883  1.00  0.00     0.079 C 
HETATM   27  C14 UNK     1      29.782  -6.930  37.140  1.00  0.00     0.180 A 
HETATM   28  N3  UNK     1      28.653  -7.367  36.627  1.00  0.00    -0.224 NA
BRANCH  27  29
HETATM   29  C19 UNK     1      30.457  -5.681  36.924  1.00  0.00     0.023 A 
HETATM   30  C21 UNK     1      30.111  -4.540  37.648  1.00  0.00    -0.048 A 
HETATM   31  C23 UNK     1      30.783  -3.338  37.420  1.00  0.00     0.007 A 
HETATM   32  C24 UNK     1      29.027  -4.567  38.678  1.00  0.00     0.049 C 
HETATM   33  C27 UNK     1      31.799  -3.278  36.468  1.00  0.00     0.001 A 
HETATM   34  C25 UNK     1      32.144  -4.418  35.743  1.00  0.00     0.001 A 
HETATM   35  C22 UNK     1      31.474  -5.619  35.970  1.00  0.00     0.016 A 
ENDBRANCH  27  29
ENDBRANCH  22  23
ENDBRANCH   2  22
TORSDOF 7
ENDMDL
MODEL 5
REMARK VINA RESULT:      -9.1      8.889     13.727
REMARK  7 active torsions:
REMARK  status: ('A' for Active; 'I' for Inactive)
REMARK    1  A    between atoms: C18_25  and  O3_3 
REMARK    2  A    between atoms: C26_33  and  O3_3 
REMARK    3  A    between atoms: C5_12  and  N1_5 
REMARK    4  A    between atoms: C6_13  and  N2_6 
REMARK    5  A    between atoms: C5_12  and  C7_14 
REMARK    6  A    between atoms: C6_13  and  C8_15 
REMARK    7  A    between atoms: C14_21  and  C19_26 
ROOT
HETATM    1  N1  UNK     1      26.913  -9.423  37.484  1.00  0.00     0.096 N 
HETATM    2  N2  UNK     1      29.764  -9.057  37.801  1.00  0.00     0.097 N 
HETATM    3  C1  UNK     1      27.700  -8.672  36.498  1.00  0.00     0.303 C 
HETATM    4  C2  UNK     1      27.525  -9.317  38.814  1.00  0.00     0.303 C 
HETATM    5  C3  UNK     1      29.152  -9.162  36.470  1.00  0.00     0.303 C 
HETATM    6  C4  UNK     1      28.977  -9.807  38.788  1.00  0.00     0.303 C 
ENDROOT
BRANCH   1   7
HETATM    7  C5  UNK     1      25.529  -8.955  37.510  1.00  0.00     0.312 C 
BRANCH   7   8
HETATM    8  C7  UNK     1      24.612  -9.871  36.775  1.00  0.00    -0.011 A 
HETATM    9  C11 UNK     1      25.049 -11.038  36.282  1.00  0.00     0.092 A 
HETATM   10  C15 UNK     1      24.182 -11.976  35.549  1.00  0.00     0.288 A 
HETATM   11  O2  UNK     1      22.858 -11.599  35.383  1.00  0.00    -0.275 OA
HETATM   12  O4  UNK     1      24.616 -13.036  35.112  1.00  0.00    -0.260 OA
HETATM   13  C12 UNK     1      22.370 -10.378  35.889  1.00  0.00     0.090 A 
HETATM   14  C9  UNK     1      23.205  -9.499  36.581  1.00  0.00     0.009 A 
HETATM   15  C17 UNK     1      21.021 -10.101  35.661  1.00  0.00     0.041 A 
HETATM   16  C13 UNK     1      22.643  -8.305  37.052  1.00  0.00     0.051 A 
HETATM   17  C18 UNK     1      21.292  -8.013  36.830  1.00  0.00     0.069 A 
HETATM   18  C20 UNK     1      20.482  -8.910  36.135  1.00  0.00     0.039 A 
BRANCH  17  19
HETATM   19  O3  UNK     1      20.766  -6.846  37.296  1.00  0.00    -0.351 OA
BRANCH  19  20
HETATM   20  C26 UNK     1      20.928  -6.571  38.686  1.00  0.00     0.171 C 
HETATM   21  C28 UNK     1      20.064  -7.524  39.482  1.00  0.00     0.034 C 
ENDBRANCH  19  20
ENDBRANCH  17  19
ENDBRANCH   7   8
ENDBRANCH   1   7
BRANCH   2  22
HETATM   22  C6  UNK     1      31.147  -9.528  37.775  1.00  0.00     0.334 C 
BRANCH  22  23
HETATM   23  C8  UNK     1      32.004  -8.500  37.108  1.00  0.00     0.095 A 
HETATM   24  C10 UNK     1      32.135  -7.165  37.395  1.00  0.00     0.078 A 
HETATM   25  O1  UNK     1      33.031  -6.632  36.519  1.00  0.00    -0.294 OA
HETATM   26  C16 UNK     1      31.548  -6.255  38.387  1.00  0.00     0.079 C 
HETATM   27  C14 UNK     1      33.389  -7.693  35.746  1.00  0.00     0.180 A 
HETATM   28  N3  UNK     1      32.811  -8.834  36.050  1.00  0.00    -0.224 NA
BRANCH  27  29
HETATM   29  C19 UNK     1      34.348  -7.404  34.716  1.00  0.00     0.023 A 
HETATM   30  C21 UNK     1      33.944  -7.165  33.403  1.00  0.00    -0.048 A 
HETATM   31  C23 UNK     1      34.895  -6.886  32.420  1.00  0.00     0.007 A 
HETATM   32  C24 UNK     1      32.501  -7.201  33.010  1.00  0.00     0.049 C 
HETATM   33  C27 UNK     1      36.248  -6.845  32.752  1.00  0.00     0.001 A 
HETATM   34  C25 UNK     1      36.652  -7.083  34.065  1.00  0.00     0.001 A 
HETATM   35  C22 UNK     1      35.703  -7.363  35.047  1.00  0.00     0.016 A 
ENDBRANCH  27  29
ENDBRANCH  22  23
ENDBRANCH   2  22
TORSDOF 7
ENDMDL
MODEL 6
REMARK VINA RESULT:      -9.1      5.605      8.515
REMARK  7 active torsions:
REMARK  status: ('A' for Active; 'I' for Inactive)
REMARK    1  A    between atoms: C18_25  and  O3_3 
REMARK    2  A    between atoms: C26_33  and  O3_3 
REMARK    3  A    between atoms: C5_12  and  N1_5 
REMARK    4  A    between atoms: C6_13  and  N2_6 
REMARK    5  A    between atoms: C5_12  and  C7_14 
REMARK    6  A    between atoms: C6_13  and  C8_15 
REMARK    7  A    between atoms: C14_21  and  C19_26 
ROOT
HETATM    1  N1  UNK     1      18.880   3.657  31.473  1.00  0.00     0.096 N 
HETATM    2  N2  UNK     1      19.219   6.243  32.723  1.00  0.00     0.097 N 
HETATM    3  C1  UNK     1      19.302   4.829  30.697  1.00  0.00     0.303 C 
HETATM    4  C2  UNK     1      18.049   4.069  32.611  1.00  0.00     0.303 C 
HETATM    5  C3  UNK     1      20.049   5.831  31.583  1.00  0.00     0.303 C 
HETATM    6  C4  UNK     1      18.796   5.070  33.499  1.00  0.00     0.303 C 
ENDROOT
BRANCH   1   7
HETATM    7  C5  UNK     1      18.166   2.703  30.628  1.00  0.00     0.312 C 
BRANCH   7   8
HETATM    8  C7  UNK     1      18.863   1.388  30.552  1.00  0.00    -0.011 A 
HETATM    9  C11 UNK     1      19.478   0.994  29.427  1.00  0.00     0.092 A 
HETATM   10  C15 UNK     1      20.179  -0.295  29.304  1.00  0.00     0.288 A 
HETATM   11  O2  UNK     1      20.181  -1.111  30.424  1.00  0.00    -0.275 OA
HETATM   12  O4  UNK     1      20.731  -0.621  28.259  1.00  0.00    -0.260 OA
HETATM   13  C12 UNK     1      19.543  -0.726  31.619  1.00  0.00     0.090 A 
HETATM   14  C9  UNK     1      18.882   0.500  31.721  1.00  0.00     0.009 A 
HETATM   15  C17 UNK     1      19.608  -1.628  32.682  1.00  0.00     0.041 A 
HETATM   16  C13 UNK     1      18.271   0.809  32.943  1.00  0.00     0.051 A 
HETATM   17  C18 UNK     1      18.327  -0.087  34.018  1.00  0.00     0.069 A 
HETATM   18  C20 UNK     1      18.995  -1.304  33.888  1.00  0.00     0.039 A 
BRANCH  17  19
HETATM   19  O3  UNK     1      17.727   0.233  35.198  1.00  0.00    -0.351 OA
BRANCH  19  20
HETATM   20  C26 UNK     1      18.533   0.878  36.182  1.00  0.00     0.171 C 
HETATM   21  C28 UNK     1      17.704   1.103  37.428  1.00  0.00     0.034 C 
ENDBRANCH  19  20
ENDBRANCH  17  19
ENDBRANCH   7   8
ENDBRANCH   1   7
BRANCH   2  22
HETATM   22  C6  UNK     1      19.934   7.195  33.569  1.00  0.00     0.334 C 
BRANCH  22  23
HETATM   23  C8  UNK     1      19.062   8.383  33.820  1.00  0.00     0.095 A 
HETATM   24  C10 UNK     1      19.415   9.643  34.235  1.00  0.00     0.078 A 
HETATM   25  O1  UNK     1      18.279  10.390  34.324  1.00  0.00    -0.294 OA
HETATM   26  C16 UNK     1      20.679  10.305  34.577  1.00  0.00     0.079 C 
HETATM   27  C14 UNK     1      17.299   9.522  33.953  1.00  0.00     0.180 A 
HETATM   28  N3  UNK     1      17.704   8.311  33.641  1.00  0.00    -0.224 NA
BRANCH  27  29
HETATM   29  C19 UNK     1      15.968  10.064  33.960  1.00  0.00     0.023 A 
HETATM   30  C21 UNK     1      15.024   9.665  33.014  1.00  0.00    -0.048 A 
HETATM   31  C23 UNK     1      13.737  10.206  33.042  1.00  0.00     0.007 A 
HETATM   32  C24 UNK     1      15.352   8.660  31.957  1.00  0.00     0.049 C 
HETATM   33  C27 UNK     1      13.397  11.145  34.014  1.00  0.00     0.001 A 
HETATM   34  C25 UNK     1      14.342  11.544  34.960  1.00  0.00     0.001 A 
HETATM   35  C22 UNK     1      15.627  11.004  34.932  1.00  0.00     0.016 A 
ENDBRANCH  27  29
ENDBRANCH  22  23
ENDBRANCH   2  22
TORSDOF 7
ENDMDL
MODEL 7
REMARK VINA RESULT:      -9.0     11.603     14.501
REMARK  7 active torsions:
REMARK  status: ('A' for Active; 'I' for Inactive)
REMARK    1  A    between atoms: C18_25  and  O3_3 
REMARK    2  A    between atoms: C26_33  and  O3_3 
REMARK    3  A    between atoms: C5_12  and  N1_5 
REMARK    4  A    between atoms: C6_13  and  N2_6 
REMARK    5  A    between atoms: C5_12  and  C7_14 
REMARK    6  A    between atoms: C6_13  and  C8_15 
REMARK    7  A    between atoms: C14_21  and  C19_26 
ROOT
HETATM    1  N1  UNK     1      33.029  -7.288  35.575  1.00  0.00     0.096 N 
HETATM    2  N2  UNK     1      34.053  -8.891  33.397  1.00  0.00     0.097 N 
HETATM    3  C1  UNK     1      34.215  -6.875  34.817  1.00  0.00     0.303 C 
HETATM    4  C2  UNK     1      32.912  -8.752  35.585  1.00  0.00     0.303 C 
HETATM    5  C3  UNK     1      34.170  -7.427  33.388  1.00  0.00     0.303 C 
HETATM    6  C4  UNK     1      32.866  -9.305  34.156  1.00  0.00     0.303 C 
ENDROOT
BRANCH   1   7
HETATM    7  C5  UNK     1      33.073  -6.763  36.938  1.00  0.00     0.312 C 
BRANCH   7   8
HETATM    8  C7  UNK     1      32.117  -5.638  37.138  1.00  0.00    -0.011 A 
HETATM    9  C11 UNK     1      32.435  -4.386  36.780  1.00  0.00     0.092 A 
HETATM   10  C15 UNK     1      31.524  -3.243  36.958  1.00  0.00     0.288 A 
HETATM   11  O2  UNK     1      30.289  -3.515  37.525  1.00  0.00    -0.275 OA
HETATM   12  O4  UNK     1      31.849  -2.111  36.617  1.00  0.00    -0.260 OA
HETATM   13  C12 UNK     1      29.926  -4.820  37.912  1.00  0.00     0.090 A 
HETATM   14  C9  UNK     1      30.800  -5.893  37.738  1.00  0.00     0.009 A 
HETATM   15  C17 UNK     1      28.657  -4.975  38.475  1.00  0.00     0.041 A 
HETATM   16  C13 UNK     1      30.365  -7.160  38.150  1.00  0.00     0.051 A 
HETATM   17  C18 UNK     1      29.096  -7.331  38.716  1.00  0.00     0.069 A 
HETATM   18  C20 UNK     1      28.243  -6.240  38.878  1.00  0.00     0.039 A 
BRANCH  17  19
HETATM   19  O3  UNK     1      28.692  -8.571  39.110  1.00  0.00    -0.351 OA
BRANCH  19  20
HETATM   20  C26 UNK     1      27.361  -8.691  39.609  1.00  0.00     0.171 C 
HETATM   21  C28 UNK     1      27.076 -10.147  39.906  1.00  0.00     0.034 C 
ENDBRANCH  19  20
ENDBRANCH  17  19
ENDBRANCH   7   8
ENDBRANCH   1   7
BRANCH   2  22
HETATM   22  C6  UNK     1      34.006  -9.415  32.034  1.00  0.00     0.334 C 
BRANCH  22  23
HETATM   23  C8  UNK     1      32.928  -8.713  31.272  1.00  0.00     0.095 A 
HETATM   24  C10 UNK     1      33.036  -7.904  30.169  1.00  0.00     0.078 A 
HETATM   25  O1  UNK     1      31.783  -7.491  29.826  1.00  0.00    -0.294 OA
HETATM   26  C16 UNK     1      34.147  -7.426  29.338  1.00  0.00     0.079 C 
HETATM   27  C14 UNK     1      30.988  -8.084  30.757  1.00  0.00     0.180 A 
HETATM   28  N3  UNK     1      31.613  -8.825  31.645  1.00  0.00    -0.224 NA
BRANCH  27  29
HETATM   29  C19 UNK     1      29.584  -7.810  30.626  1.00  0.00     0.023 A 
HETATM   30  C21 UNK     1      29.048  -6.587  31.031  1.00  0.00    -0.048 A 
HETATM   31  C23 UNK     1      27.680  -6.345  30.893  1.00  0.00     0.007 A 
HETATM   32  C24 UNK     1      29.907  -5.513  31.618  1.00  0.00     0.049 C 
HETATM   33  C27 UNK     1      26.851  -7.324  30.349  1.00  0.00     0.001 A 
HETATM   34  C25 UNK     1      27.387  -8.546  29.944  1.00  0.00     0.001 A 
HETATM   35  C22 UNK     1      28.753  -8.789  30.083  1.00  0.00     0.016 A 
ENDBRANCH  27  29
ENDBRANCH  22  23
ENDBRANCH   2  22
TORSDOF 7
ENDMDL
MODEL 8
REMARK VINA RESULT:      -9.0     11.536     14.709
REMARK  7 active torsions:
REMARK  status: ('A' for Active; 'I' for Inactive)
REMARK    1  A    between atoms: C18_25  and  O3_3 
REMARK    2  A    between atoms: C26_33  and  O3_3 
REMARK    3  A    between atoms: C5_12  and  N1_5 
REMARK    4  A    between atoms: C6_13  and  N2_6 
REMARK    5  A    between atoms: C5_12  and  C7_14 
REMARK    6  A    between atoms: C6_13  and  C8_15 
REMARK    7  A    between atoms: C14_21  and  C19_26 
ROOT
HETATM    1  N1  UNK     1      32.330  -8.696  35.875  1.00  0.00     0.096 N 
HETATM    2  N2  UNK     1      32.047 -11.087  34.274  1.00  0.00     0.097 N 
HETATM    3  C1  UNK     1      33.343  -9.072  34.881  1.00  0.00     0.303 C 
HETATM    4  C2  UNK     1      31.662  -9.892  36.403  1.00  0.00     0.303 C 
HETATM    5  C3  UNK     1      32.717  -9.891  33.747  1.00  0.00     0.303 C 
HETATM    6  C4  UNK     1      31.035 -10.711  35.269  1.00  0.00     0.303 C 
ENDROOT
BRANCH   1   7
HETATM    7  C5  UNK     1      32.928  -7.916  36.956  1.00  0.00     0.312 C 
BRANCH   7   8
HETATM    8  C7  UNK     1      32.639  -6.460  36.825  1.00  0.00    -0.011 A 
HETATM    9  C11 UNK     1      33.461  -5.650  36.142  1.00  0.00     0.092 A 
HETATM   10  C15 UNK     1      33.219  -4.206  35.986  1.00  0.00     0.288 A 
HETATM   11  O2  UNK     1      32.078  -3.698  36.586  1.00  0.00    -0.275 OA
HETATM   12  O4  UNK     1      33.993  -3.496  35.353  1.00  0.00    -0.260 OA
HETATM   13  C12 UNK     1      31.196  -4.524  37.310  1.00  0.00     0.090 A 
HETATM   14  C9  UNK     1      31.439  -5.891  37.450  1.00  0.00     0.009 A 
HETATM   15  C17 UNK     1      30.078  -3.904  37.873  1.00  0.00     0.041 A 
HETATM   16  C13 UNK     1      30.514  -6.643  38.188  1.00  0.00     0.051 A 
HETATM   17  C18 UNK     1      29.390  -6.035  38.759  1.00  0.00     0.069 A 
HETATM   18  C20 UNK     1      29.172  -4.667  38.602  1.00  0.00     0.039 A 
BRANCH  17  19
HETATM   19  O3  UNK     1      28.503  -6.785  39.471  1.00  0.00    -0.351 OA
BRANCH  19  20
HETATM   20  C26 UNK     1      27.975  -7.946  38.833  1.00  0.00     0.171 C 
HETATM   21  C28 UNK     1      27.604  -8.963  39.890  1.00  0.00     0.034 C 
ENDBRANCH  19  20
ENDBRANCH  17  19
ENDBRANCH   7   8
ENDBRANCH   1   7
BRANCH   2  22
HETATM   22  C6  UNK     1      31.448 -11.865  33.192  1.00  0.00     0.334 C 
BRANCH  22  23
HETATM   23  C8  UNK     1      30.968 -10.936  32.124  1.00  0.00     0.095 A 
HETATM   24  C10 UNK     1      31.369 -10.843  30.815  1.00  0.00     0.078 A 
HETATM   25  O1  UNK     1      30.649  -9.848  30.225  1.00  0.00    -0.294 OA
HETATM   26  C16 UNK     1      32.346 -11.548  29.977  1.00  0.00     0.079 C 
HETATM   27  C14 UNK     1      29.849  -9.396  31.228  1.00  0.00     0.180 A 
HETATM   28  N3  UNK     1      29.994 -10.006  32.384  1.00  0.00    -0.224 NA
BRANCH  27  29
HETATM   29  C19 UNK     1      28.967  -8.320  30.870  1.00  0.00     0.023 A 
HETATM   30  C21 UNK     1      29.413  -6.999  30.853  1.00  0.00    -0.048 A 
HETATM   31  C23 UNK     1      28.536  -5.972  30.500  1.00  0.00     0.007 A 
HETATM   32  C24 UNK     1      30.822  -6.644  31.205  1.00  0.00     0.049 C 
HETATM   33  C27 UNK     1      27.216  -6.267  30.166  1.00  0.00     0.001 A 
HETATM   34  C25 UNK     1      26.770  -7.588  30.184  1.00  0.00     0.001 A 
HETATM   35  C22 UNK     1      27.645  -8.615  30.536  1.00  0.00     0.016 A 
ENDBRANCH  27  29
ENDBRANCH  22  23
ENDBRANCH   2  22
TORSDOF 7
ENDMDL
MODEL 9
REMARK VINA RESULT:      -8.9     27.025     29.628
REMARK  7 active torsions:
REMARK  status: ('A' for Active; 'I' for Inactive)
REMARK    1  A    between atoms: C18_25  and  O3_3 
REMARK    2  A    between atoms: C26_33  and  O3_3 
REMARK    3  A    between atoms: C5_12  and  N1_5 
REMARK    4  A    between atoms: C6_13  and  N2_6 
REMARK    5  A    between atoms: C5_12  and  C7_14 
REMARK    6  A    between atoms: C6_13  and  C8_15 
REMARK    7  A    between atoms: C14_21  and  C19_26 
ROOT
HETATM    1  N1  UNK     1      15.455   6.805   9.629  1.00  0.00     0.096 N 
HETATM    2  N2  UNK     1      12.865   5.927   8.690  1.00  0.00     0.097 N 
HETATM    3  C1  UNK     1      14.783   5.643  10.223  1.00  0.00     0.303 C 
HETATM    4  C2  UNK     1      14.467   7.760   9.114  1.00  0.00     0.303 C 
HETATM    5  C3  UNK     1      13.854   4.971   9.207  1.00  0.00     0.303 C 
HETATM    6  C4  UNK     1      13.537   7.089   8.097  1.00  0.00     0.303 C 
ENDROOT
BRANCH   1   7
HETATM    7  C5  UNK     1      16.340   7.446  10.599  1.00  0.00     0.312 C 
BRANCH   7   8
HETATM    8  C7  UNK     1      15.855   8.798  10.994  1.00  0.00    -0.011 A 
HETATM    9  C11 UNK     1      14.850   8.945  11.870  1.00  0.00     0.092 A 
HETATM   10  C15 UNK     1      14.336  10.260  12.290  1.00  0.00     0.288 A 
HETATM   11  O2  UNK     1      14.946  11.373  11.733  1.00  0.00    -0.275 OA
HETATM   12  O4  UNK     1      13.416  10.355  13.095  1.00  0.00    -0.260 OA
HETATM   13  C12 UNK     1      16.002  11.251  10.810  1.00  0.00     0.090 A 
HETATM   14  C9  UNK     1      16.479   9.998  10.421  1.00  0.00     0.009 A 
HETATM   15  C17 UNK     1      16.539  12.440  10.313  1.00  0.00     0.041 A 
HETATM   16  C13 UNK     1      17.532   9.961   9.497  1.00  0.00     0.051 A 
HETATM   17  C18 UNK     1      18.079  11.145   8.989  1.00  0.00     0.069 A 
HETATM   18  C20 UNK     1      17.584  12.383   9.396  1.00  0.00     0.039 A 
BRANCH  17  19
HETATM   19  O3  UNK     1      19.103  11.088   8.092  1.00  0.00    -0.351 OA
BRANCH  19  20
HETATM   20  C26 UNK     1      19.928  12.245   7.974  1.00  0.00     0.171 C 
HETATM   21  C28 UNK     1      21.308  11.924   8.503  1.00  0.00     0.034 C 
ENDBRANCH  19  20
ENDBRANCH  17  19
ENDBRANCH   7   8
ENDBRANCH   1   7
BRANCH   2  22
HETATM   22  C6  UNK     1      11.982   5.285   7.719  1.00  0.00     0.334 C 
BRANCH  22  23
HETATM   23  C8  UNK     1      10.589   5.795   7.907  1.00  0.00     0.095 A 
HETATM   24  C10 UNK     1       9.695   6.235   6.963  1.00  0.00     0.078 A 
HETATM   25  O1  UNK     1       8.552   6.602   7.606  1.00  0.00    -0.294 OA
HETATM   26  C16 UNK     1       9.716   6.381   5.503  1.00  0.00     0.079 C 
HETATM   27  C14 UNK     1       8.832   6.358   8.915  1.00  0.00     0.180 A 
HETATM   28  N3  UNK     1      10.031   5.876   9.157  1.00  0.00    -0.224 NA
BRANCH  27  29
HETATM   29  C19 UNK     1       7.771   6.664   9.835  1.00  0.00     0.023 A 
HETATM   30  C21 UNK     1       6.861   5.686  10.236  1.00  0.00    -0.048 A 
HETATM   31  C23 UNK     1       5.840   6.009  11.131  1.00  0.00     0.007 A 
HETATM   32  C24 UNK     1       6.947   4.282   9.728  1.00  0.00     0.049 C 
HETATM   33  C27 UNK     1       5.730   7.308  11.624  1.00  0.00     0.001 A 
HETATM   34  C25 UNK     1       6.640   8.286  11.223  1.00  0.00     0.001 A 
HETATM   35  C22 UNK     1       7.660   7.964  10.329  1.00  0.00     0.016 A 
ENDBRANCH  27  29
ENDBRANCH  22  23
ENDBRANCH   2  22
TORSDOF 7
ENDMDL
MODEL 10
REMARK VINA RESULT:      -8.9      5.040     12.952
REMARK  7 active torsions:
REMARK  status: ('A' for Active; 'I' for Inactive)
REMARK    1  A    between atoms: C18_25  and  O3_3 
REMARK    2  A    between atoms: C26_33  and  O3_3 
REMARK    3  A    between atoms: C5_12  and  N1_5 
REMARK    4  A    between atoms: C6_13  and  N2_6 
REMARK    5  A    between atoms: C5_12  and  C7_14 
REMARK    6  A    between atoms: C6_13  and  C8_15 
REMARK    7  A    between atoms: C14_21  and  C19_26 
ROOT
HETATM    1  N1  UNK     1      17.893   5.862  31.434  1.00  0.00     0.096 N 
HETATM    2  N2  UNK     1      18.959   3.209  31.000  1.00  0.00     0.097 N 
HETATM    3  C1  UNK     1      18.970   5.622  30.465  1.00  0.00     0.303 C 
HETATM    4  C2  UNK     1      17.954   4.877  32.521  1.00  0.00     0.303 C 
HETATM    5  C3  UNK     1      18.899   4.194  29.913  1.00  0.00     0.303 C 
HETATM    6  C4  UNK     1      17.883   3.449  31.969  1.00  0.00     0.303 C 
ENDROOT
BRANCH   1   7
HETATM    7  C5  UNK     1      17.962   7.222  31.961  1.00  0.00     0.312 C 
BRANCH   7   8
HETATM    8  C7  UNK     1      16.626   7.732  32.378  1.00  0.00    -0.011 A 
HETATM    9  C11 UNK     1      15.506   7.054  32.090  1.00  0.00     0.092 A 
HETATM   10  C15 UNK     1      14.163   7.518  32.480  1.00  0.00     0.288 A 
HETATM   11  O2  UNK     1      14.096   8.714  33.176  1.00  0.00    -0.275 OA
HETATM   12  O4  UNK     1      13.161   6.870  32.199  1.00  0.00    -0.260 OA
HETATM   13  C12 UNK     1      15.255   9.449  33.493  1.00  0.00     0.090 A 
HETATM   14  C9  UNK     1      16.521   8.997  33.116  1.00  0.00     0.009 A 
HETATM   15  C17 UNK     1      15.067  10.641  34.196  1.00  0.00     0.041 A 
HETATM   16  C13 UNK     1      17.624   9.787  33.468  1.00  0.00     0.051 A 
HETATM   17  C18 UNK     1      17.451  10.985  34.172  1.00  0.00     0.069 A 
HETATM   18  C20 UNK     1      16.174  11.411  34.535  1.00  0.00     0.039 A 
BRANCH  17  19
HETATM   19  O3  UNK     1      18.537  11.738  34.504  1.00  0.00    -0.351 OA
BRANCH  19  20
HETATM   20  C26 UNK     1      18.326  13.138  34.680  1.00  0.00     0.171 C 
HETATM   21  C28 UNK     1      18.532  13.837  33.354  1.00  0.00     0.034 C 
ENDBRANCH  19  20
ENDBRANCH  17  19
ENDBRANCH   7   8
ENDBRANCH   1   7
BRANCH   2  22
HETATM   22  C6  UNK     1      18.887   1.848  30.471  1.00  0.00     0.334 C 
BRANCH  22  23
HETATM   23  C8  UNK     1      18.956   0.876  31.605  1.00  0.00     0.095 A 
HETATM   24  C10 UNK     1      19.523  -0.373  31.638  1.00  0.00     0.078 A 
HETATM   25  O1  UNK     1      19.339  -0.885  32.888  1.00  0.00    -0.294 OA
HETATM   26  C16 UNK     1      20.241  -1.213  30.672  1.00  0.00     0.079 C 
HETATM   27  C14 UNK     1      18.662   0.100  33.538  1.00  0.00     0.180 A 
HETATM   28  N3  UNK     1      18.405   1.175  32.825  1.00  0.00    -0.224 NA
BRANCH  27  29
HETATM   29  C19 UNK     1      18.332  -0.185  34.906  1.00  0.00     0.023 A 
HETATM   30  C21 UNK     1      18.351   0.818  35.876  1.00  0.00    -0.048 A 
HETATM   31  C23 UNK     1      18.025   0.516  37.199  1.00  0.00     0.007 A 
HETATM   32  C24 UNK     1      18.715   2.228  35.535  1.00  0.00     0.049 C 
HETATM   33  C27 UNK     1      17.682  -0.788  37.551  1.00  0.00     0.001 A 
HETATM   34  C25 UNK     1      17.663  -1.791  36.582  1.00  0.00     0.001 A 
HETATM   35  C22 UNK     1      17.988  -1.490  35.260  1.00  0.00     0.016 A 
ENDBRANCH  27  29
ENDBRANCH  22  23
ENDBRANCH   2  22
TORSDOF 7
ENDMDL
