MODEL 1
REMARK VINA RESULT:      -9.5      0.000      0.000
REMARK  4 active torsions:
REMARK  status: ('A' for Active; 'I' for Inactive)
REMARK    1  A    between atoms: C7_12  and  O2_2 
REMARK    2  A    between atoms: C1_6  and  N1_5 
REMARK       I    between atoms: C8_13  and  N1_5 
REMARK    3  A    between atoms: C1_6  and  C2_7 
REMARK    4  A    between atoms: C4_9  and  C8_13 
ROOT
HETATM    1  O3  UNK     1      18.207   3.385  28.709  1.00  0.00    -0.267 OA
HETATM    2  N1  UNK     1      18.885   4.344  30.722  1.00  0.00    -0.352 N 
HETATM    3  C8  UNK     1      18.635   3.294  29.857  1.00  0.00     0.258 C 
HETATM    4  H3  UNK     1      19.286   4.163  31.637  1.00  0.00     0.163 HD
ENDROOT
BRANCH   3   5
HETATM    5  C4  UNK     1      18.942   1.984  30.445  1.00  0.00     0.108 A 
HETATM    6  C10 UNK     1      18.565   1.640  31.835  1.00  0.00     0.304 A 
HETATM    7  O1  UNK     1      18.909   0.367  32.279  1.00  0.00    -0.274 OA
HETATM    8  O4  UNK     1      17.977   2.433  32.563  1.00  0.00    -0.259 OA
HETATM    9  C6  UNK     1      19.583  -0.552  31.451  1.00  0.00     0.089 A 
HETATM   10  C12 UNK     1      19.885  -1.804  31.984  1.00  0.00     0.038 A 
HETATM   11  C3  UNK     1      19.928  -0.208  30.148  1.00  0.00    -0.001 A 
HETATM   12  C17 UNK     1      20.551  -2.734  31.189  1.00  0.00     0.003 A 
HETATM   13  C16 UNK     1      20.906  -2.406  29.879  1.00  0.00     0.001 A 
HETATM   14  C11 UNK     1      20.596  -1.147  29.358  1.00  0.00     0.014 A 
HETATM   15  C5  UNK     1      19.581   1.115  29.654  1.00  0.00     0.037 A 
ENDBRANCH   3   5
BRANCH   2  16
HETATM   16  C1  UNK     1      18.663   5.727  30.367  1.00  0.00     0.164 C 
BRANCH  16  17
HETATM   17  C2  UNK     1      18.750   6.580  31.595  1.00  0.00    -0.007 A 
HETATM   18  C7  UNK     1      17.722   7.461  31.920  1.00  0.00     0.076 A 
HETATM   19  C13 UNK     1      17.819   8.248  33.067  1.00  0.00     0.037 A 
HETATM   20  C15 UNK     1      18.945   8.152  33.886  1.00  0.00     0.003 A 
HETATM   21  C14 UNK     1      19.973   7.268  33.557  1.00  0.00     0.001 A 
HETATM   22  C9  UNK     1      19.875   6.481  32.409  1.00  0.00     0.011 A 
BRANCH  18  23
HETATM   23  O2  UNK     1      16.615   7.568  31.131  1.00  0.00    -0.355 OA
HETATM   24  C18 UNK     1      15.348   7.520  31.783  1.00  0.00     0.210 C 
ENDBRANCH  18  23
ENDBRANCH  16  17
ENDBRANCH   2  16
TORSDOF 4
ENDMDL
MODEL 2
REMARK VINA RESULT:      -8.9      1.108      1.936
REMARK  4 active torsions:
REMARK  status: ('A' for Active; 'I' for Inactive)
REMARK    1  A    between atoms: C7_12  and  O2_2 
REMARK    2  A    between atoms: C1_6  and  N1_5 
REMARK       I    between atoms: C8_13  and  N1_5 
REMARK    3  A    between atoms: C1_6  and  C2_7 
REMARK    4  A    between atoms: C4_9  and  C8_13 
ROOT
HETATM    1  O3  UNK     1      18.230   3.913  28.760  1.00  0.00    -0.267 OA
HETATM    2  N1  UNK     1      19.145   4.783  30.719  1.00  0.00    -0.352 N 
HETATM    3  C8  UNK     1      18.716   3.771  29.880  1.00  0.00     0.258 C 
HETATM    4  H3  UNK     1      19.578   4.556  31.609  1.00  0.00     0.163 HD
ENDROOT
BRANCH   3   5
HETATM    5  C4  UNK     1      18.899   2.433  30.458  1.00  0.00     0.108 A 
HETATM    6  C10 UNK     1      18.455   2.104  31.832  1.00  0.00     0.304 A 
HETATM    7  O1  UNK     1      18.683   0.802  32.266  1.00  0.00    -0.274 OA
HETATM    8  O4  UNK     1      17.911   2.933  32.553  1.00  0.00    -0.259 OA
HETATM    9  C6  UNK     1      19.306  -0.158  31.445  1.00  0.00     0.089 A 
HETATM   10  C12 UNK     1      19.491  -1.436  31.968  1.00  0.00     0.038 A 
HETATM   11  C3  UNK     1      19.716   0.173  30.157  1.00  0.00    -0.001 A 
HETATM   12  C17 UNK     1      20.104  -2.407  31.179  1.00  0.00     0.003 A 
HETATM   13  C16 UNK     1      20.523  -2.093  29.884  1.00  0.00     0.001 A 
HETATM   14  C11 UNK     1      20.331  -0.807  29.373  1.00  0.00     0.014 A 
HETATM   15  C5  UNK     1      19.491   1.526  29.673  1.00  0.00     0.037 A 
ENDBRANCH   3   5
BRANCH   2  16
HETATM   16  C1  UNK     1      19.069   6.183  30.369  1.00  0.00     0.164 C 
BRANCH  16  17
HETATM   17  C2  UNK     1      18.221   6.906  31.370  1.00  0.00    -0.007 A 
HETATM   18  C7  UNK     1      18.664   7.083  32.678  1.00  0.00     0.076 A 
HETATM   19  C13 UNK     1      17.861   7.758  33.597  1.00  0.00     0.037 A 
HETATM   20  C15 UNK     1      16.618   8.256  33.204  1.00  0.00     0.003 A 
HETATM   21  C14 UNK     1      16.178   8.078  31.893  1.00  0.00     0.001 A 
HETATM   22  C9  UNK     1      16.981   7.401  30.974  1.00  0.00     0.011 A 
BRANCH  18  23
HETATM   23  O2  UNK     1      19.875   6.602  33.079  1.00  0.00    -0.355 OA
HETATM   24  C18 UNK     1      19.878   5.685  34.170  1.00  0.00     0.210 C 
ENDBRANCH  18  23
ENDBRANCH  16  17
ENDBRANCH   2  16
TORSDOF 4
ENDMDL
MODEL 3
REMARK VINA RESULT:      -8.9      1.763      7.409
REMARK  4 active torsions:
REMARK  status: ('A' for Active; 'I' for Inactive)
REMARK    1  A    between atoms: C7_12  and  O2_2 
REMARK    2  A    between atoms: C1_6  and  N1_5 
REMARK       I    between atoms: C8_13  and  N1_5 
REMARK    3  A    between atoms: C1_6  and  C2_7 
REMARK    4  A    between atoms: C4_9  and  C8_13 
ROOT
HETATM    1  O3  UNK     1      18.663   4.756  28.908  1.00  0.00    -0.267 OA
HETATM    2  N1  UNK     1      19.057   2.984  30.369  1.00  0.00    -0.352 N 
HETATM    3  C8  UNK     1      18.909   4.316  30.028  1.00  0.00     0.258 C 
HETATM    4  H3  UNK     1      19.212   2.721  31.337  1.00  0.00     0.163 HD
ENDROOT
BRANCH   3   5
HETATM    5  C4  UNK     1      19.075   5.220  31.174  1.00  0.00     0.108 A 
HETATM    6  C10 UNK     1      20.375   5.853  31.493  1.00  0.00     0.304 A 
HETATM    7  O1  UNK     1      20.404   6.691  32.604  1.00  0.00    -0.274 OA
HETATM    8  O4  UNK     1      21.377   5.653  30.816  1.00  0.00    -0.259 OA
HETATM    9  C6  UNK     1      19.259   6.927  33.388  1.00  0.00     0.089 A 
HETATM   10  C12 UNK     1      19.387   7.782  34.481  1.00  0.00     0.038 A 
HETATM   11  C3  UNK     1      18.048   6.322  33.070  1.00  0.00    -0.001 A 
HETATM   12  C17 UNK     1      18.271   8.036  35.276  1.00  0.00     0.003 A 
HETATM   13  C16 UNK     1      17.047   7.436  34.972  1.00  0.00     0.001 A 
HETATM   14  C11 UNK     1      16.933   6.581  33.873  1.00  0.00     0.014 A 
HETATM   15  C5  UNK     1      17.983   5.441  31.915  1.00  0.00     0.037 A 
ENDBRANCH   3   5
BRANCH   2  16
HETATM   16  C1  UNK     1      18.936   1.907  29.412  1.00  0.00     0.164 C 
BRANCH  16  17
HETATM   17  C2  UNK     1      19.446   0.636  30.018  1.00  0.00    -0.007 A 
HETATM   18  C7  UNK     1      19.137   0.305  31.334  1.00  0.00     0.076 A 
HETATM   19  C13 UNK     1      19.621  -0.883  31.883  1.00  0.00     0.037 A 
HETATM   20  C15 UNK     1      20.412  -1.736  31.113  1.00  0.00     0.003 A 
HETATM   21  C14 UNK     1      20.720  -1.400  29.794  1.00  0.00     0.001 A 
HETATM   22  C9  UNK     1      20.236  -0.212  29.246  1.00  0.00     0.011 A 
BRANCH  18  23
HETATM   23  O2  UNK     1      18.366   1.126  32.101  1.00  0.00    -0.355 OA
HETATM   24  C18 UNK     1      18.392   0.910  33.510  1.00  0.00     0.210 C 
ENDBRANCH  18  23
ENDBRANCH  16  17
ENDBRANCH   2  16
TORSDOF 4
ENDMDL
MODEL 4
REMARK VINA RESULT:      -8.8      1.535      2.832
REMARK  4 active torsions:
REMARK  status: ('A' for Active; 'I' for Inactive)
REMARK    1  A    between atoms: C7_12  and  O2_2 
REMARK    2  A    between atoms: C1_6  and  N1_5 
REMARK       I    between atoms: C8_13  and  N1_5 
REMARK    3  A    between atoms: C1_6  and  C2_7 
REMARK    4  A    between atoms: C4_9  and  C8_13 
ROOT
HETATM    1  O3  UNK     1      17.457   3.595  31.692  1.00  0.00    -0.267 OA
HETATM    2  N1  UNK     1      18.681   4.519  29.937  1.00  0.00    -0.352 N 
HETATM    3  C8  UNK     1      18.202   3.485  30.721  1.00  0.00     0.258 C 
HETATM    4  H3  UNK     1      19.254   4.317  29.124  1.00  0.00     0.163 HD
ENDROOT
BRANCH   3   5
HETATM    5  C4  UNK     1      18.674   2.167  30.278  1.00  0.00     0.108 A 
HETATM    6  C10 UNK     1      18.567   1.728  28.869  1.00  0.00     0.304 A 
HETATM    7  O1  UNK     1      19.052   0.457  28.573  1.00  0.00    -0.274 OA
HETATM    8  O4  UNK     1      18.078   2.444  28.001  1.00  0.00    -0.259 OA
HETATM    9  C6  UNK     1      19.616  -0.373  29.561  1.00  0.00     0.089 A 
HETATM   10  C12 UNK     1      20.074  -1.629  29.168  1.00  0.00     0.038 A 
HETATM   11  C3  UNK     1      19.706   0.060  30.880  1.00  0.00    -0.001 A 
HETATM   12  C17 UNK     1      20.637  -2.472  30.123  1.00  0.00     0.003 A 
HETATM   13  C16 UNK     1      20.735  -2.055  31.452  1.00  0.00     0.001 A 
HETATM   14  C11 UNK     1      20.272  -0.793  31.832  1.00  0.00     0.014 A 
HETATM   15  C5  UNK     1      19.210   1.383  31.221  1.00  0.00     0.037 A 
ENDBRANCH   3   5
BRANCH   2  16
HETATM   16  C1  UNK     1      18.352   5.907  30.175  1.00  0.00     0.164 C 
BRANCH  16  17
HETATM   17  C2  UNK     1      18.855   6.318  31.524  1.00  0.00    -0.007 A 
HETATM   18  C7  UNK     1      20.204   6.198  31.844  1.00  0.00     0.076 A 
HETATM   19  C13 UNK     1      20.655   6.586  33.106  1.00  0.00     0.037 A 
HETATM   20  C15 UNK     1      19.755   7.093  34.043  1.00  0.00     0.003 A 
HETATM   21  C14 UNK     1      18.404   7.212  33.719  1.00  0.00     0.001 A 
HETATM   22  C9  UNK     1      17.952   6.823  32.457  1.00  0.00     0.011 A 
BRANCH  18  23
HETATM   23  O2  UNK     1      21.098   5.705  30.941  1.00  0.00    -0.355 OA
HETATM   24  C18 UNK     1      22.477   5.761  31.297  1.00  0.00     0.210 C 
ENDBRANCH  18  23
ENDBRANCH  16  17
ENDBRANCH   2  16
TORSDOF 4
ENDMDL
MODEL 5
REMARK VINA RESULT:      -8.7     14.391     16.606
REMARK  4 active torsions:
REMARK  status: ('A' for Active; 'I' for Inactive)
REMARK    1  A    between atoms: C7_12  and  O2_2 
REMARK    2  A    between atoms: C1_6  and  N1_5 
REMARK       I    between atoms: C8_13  and  N1_5 
REMARK    3  A    between atoms: C1_6  and  C2_7 
REMARK    4  A    between atoms: C4_9  and  C8_13 
ROOT
HETATM    1  O3  UNK     1      16.949  -2.122  16.683  1.00  0.00    -0.267 OA
HETATM    2  N1  UNK     1      19.097  -1.240  16.879  1.00  0.00    -0.352 N 
HETATM    3  C8  UNK     1      18.084  -1.940  16.249  1.00  0.00     0.258 C 
HETATM    4  H3  UNK     1      19.989  -1.107  16.411  1.00  0.00     0.163 HD
ENDROOT
BRANCH   3   5
HETATM    5  C4  UNK     1      18.488  -2.481  14.945  1.00  0.00     0.108 A 
HETATM    6  C10 UNK     1      19.111  -1.633  13.903  1.00  0.00     0.304 A 
HETATM    7  O1  UNK     1      19.451  -2.261  12.709  1.00  0.00    -0.274 OA
HETATM    8  O4  UNK     1      19.321  -0.437  14.079  1.00  0.00    -0.259 OA
HETATM    9  C6  UNK     1      19.217  -3.633  12.497  1.00  0.00     0.089 A 
HETATM   10  C12 UNK     1      19.592  -4.173  11.268  1.00  0.00     0.038 A 
HETATM   11  C3  UNK     1      18.629  -4.411  13.489  1.00  0.00    -0.001 A 
HETATM   12  C17 UNK     1      19.372  -5.527  11.029  1.00  0.00     0.003 A 
HETATM   13  C16 UNK     1      18.783  -6.324  12.013  1.00  0.00     0.001 A 
HETATM   14  C11 UNK     1      18.412  -5.769  13.241  1.00  0.00     0.014 A 
HETATM   15  C5  UNK     1      18.263  -3.785  14.750  1.00  0.00     0.037 A 
ENDBRANCH   3   5
BRANCH   2  16
HETATM   16  C1  UNK     1      18.938  -0.614  18.172  1.00  0.00     0.164 C 
BRANCH  16  17
HETATM   17  C2  UNK     1      19.158   0.862  18.046  1.00  0.00    -0.007 A 
HETATM   18  C7  UNK     1      19.288   1.658  19.181  1.00  0.00     0.076 A 
HETATM   19  C13 UNK     1      19.492   3.031  19.045  1.00  0.00     0.037 A 
HETATM   20  C15 UNK     1      19.566   3.604  17.775  1.00  0.00     0.003 A 
HETATM   21  C14 UNK     1      19.436   2.802  16.640  1.00  0.00     0.001 A 
HETATM   22  C9  UNK     1      19.231   1.429  16.776  1.00  0.00     0.011 A 
BRANCH  18  23
HETATM   23  O2  UNK     1      19.217   1.116  20.429  1.00  0.00    -0.355 OA
HETATM   24  C18 UNK     1      19.695   1.914  21.509  1.00  0.00     0.210 C 
ENDBRANCH  18  23
ENDBRANCH  16  17
ENDBRANCH   2  16
TORSDOF 4
ENDMDL
MODEL 6
REMARK VINA RESULT:      -8.6     14.529     16.719
REMARK  4 active torsions:
REMARK  status: ('A' for Active; 'I' for Inactive)
REMARK    1  A    between atoms: C7_12  and  O2_2 
REMARK    2  A    between atoms: C1_6  and  N1_5 
REMARK       I    between atoms: C8_13  and  N1_5 
REMARK    3  A    between atoms: C1_6  and  C2_7 
REMARK    4  A    between atoms: C4_9  and  C8_13 
ROOT
HETATM    1  O3  UNK     1      16.881  -2.101  16.648  1.00  0.00    -0.267 OA
HETATM    2  N1  UNK     1      19.078  -1.360  16.887  1.00  0.00    -0.352 N 
HETATM    3  C8  UNK     1      18.040  -2.013  16.248  1.00  0.00     0.258 C 
HETATM    4  H3  UNK     1      19.991  -1.305  16.447  1.00  0.00     0.163 HD
ENDROOT
BRANCH   3   5
HETATM    5  C4  UNK     1      18.448  -2.627  14.978  1.00  0.00     0.108 A 
HETATM    6  C10 UNK     1      18.070  -4.014  14.620  1.00  0.00     0.304 A 
HETATM    7  O1  UNK     1      18.516  -4.483  13.387  1.00  0.00    -0.274 OA
HETATM    8  O4  UNK     1      17.398  -4.717  15.366  1.00  0.00    -0.259 OA
HETATM    9  C6  UNK     1      19.288  -3.683  12.522  1.00  0.00     0.089 A 
HETATM   10  C12 UNK     1      19.687  -4.240  11.309  1.00  0.00     0.038 A 
HETATM   11  C3  UNK     1      19.631  -2.384  12.879  1.00  0.00    -0.001 A 
HETATM   12  C17 UNK     1      20.451  -3.474  10.432  1.00  0.00     0.003 A 
HETATM   13  C16 UNK     1      20.807  -2.168  10.774  1.00  0.00     0.001 A 
HETATM   14  C11 UNK     1      20.399  -1.622  11.994  1.00  0.00     0.014 A 
HETATM   15  C5  UNK     1      19.180  -1.863  14.160  1.00  0.00     0.037 A 
ENDBRANCH   3   5
BRANCH   2  16
HETATM   16  C1  UNK     1      18.921  -0.677  18.151  1.00  0.00     0.164 C 
BRANCH  16  17
HETATM   17  C2  UNK     1      19.110   0.795  17.954  1.00  0.00    -0.007 A 
HETATM   18  C7  UNK     1      19.136   1.659  19.046  1.00  0.00     0.076 A 
HETATM   19  C13 UNK     1      19.312   3.027  18.844  1.00  0.00     0.037 A 
HETATM   20  C15 UNK     1      19.464   3.528  17.550  1.00  0.00     0.003 A 
HETATM   21  C14 UNK     1      19.437   2.660  16.459  1.00  0.00     0.001 A 
HETATM   22  C9  UNK     1      19.260   1.291  16.661  1.00  0.00     0.011 A 
BRANCH  18  23
HETATM   23  O2  UNK     1      18.990   1.187  20.316  1.00  0.00    -0.355 OA
HETATM   24  C18 UNK     1      19.738   1.839  21.339  1.00  0.00     0.210 C 
ENDBRANCH  18  23
ENDBRANCH  16  17
ENDBRANCH   2  16
TORSDOF 4
ENDMDL
MODEL 7
REMARK VINA RESULT:      -8.5     22.359     24.550
REMARK  4 active torsions:
REMARK  status: ('A' for Active; 'I' for Inactive)
REMARK    1  A    between atoms: C7_12  and  O2_2 
REMARK    2  A    between atoms: C1_6  and  N1_5 
REMARK       I    between atoms: C8_13  and  N1_5 
REMARK    3  A    between atoms: C1_6  and  C2_7 
REMARK    4  A    between atoms: C4_9  and  C8_13 
ROOT
HETATM    1  O3  UNK     1      11.894   8.158  10.208  1.00  0.00    -0.267 OA
HETATM    2  N1  UNK     1      13.000   6.309   9.320  1.00  0.00    -0.352 N 
HETATM    3  C8  UNK     1      12.902   7.616   9.760  1.00  0.00     0.258 C 
HETATM    4  H3  UNK     1      13.896   5.942   9.012  1.00  0.00     0.163 HD
ENDROOT
BRANCH   3   5
HETATM    5  C4  UNK     1      14.168   8.352   9.651  1.00  0.00     0.108 A 
HETATM    6  C10 UNK     1      15.350   8.008  10.474  1.00  0.00     0.304 A 
HETATM    7  O1  UNK     1      16.492   8.778  10.279  1.00  0.00    -0.274 OA
HETATM    8  O4  UNK     1      15.329   7.091  11.288  1.00  0.00    -0.259 OA
HETATM    9  C6  UNK     1      16.528   9.833   9.346  1.00  0.00     0.089 A 
HETATM   10  C12 UNK     1      17.718  10.547   9.220  1.00  0.00     0.038 A 
HETATM   11  C3  UNK     1      15.406  10.139   8.583  1.00  0.00    -0.001 A 
HETATM   12  C17 UNK     1      17.784  11.596   8.306  1.00  0.00     0.003 A 
HETATM   13  C16 UNK     1      16.667  11.919   7.532  1.00  0.00     0.001 A 
HETATM   14  C11 UNK     1      15.480  11.193   7.669  1.00  0.00     0.014 A 
HETATM   15  C5  UNK     1      14.196   9.353   8.763  1.00  0.00     0.037 A 
ENDBRANCH   3   5
BRANCH   2  16
HETATM   16  C1  UNK     1      11.887   5.387   9.331  1.00  0.00     0.164 C 
BRANCH  16  17
HETATM   17  C2  UNK     1      10.936   5.734   8.227  1.00  0.00    -0.007 A 
HETATM   18  C7  UNK     1       9.593   5.980   8.499  1.00  0.00     0.076 A 
HETATM   19  C13 UNK     1       8.722   6.301   7.458  1.00  0.00     0.037 A 
HETATM   20  C15 UNK     1       9.197   6.377   6.149  1.00  0.00     0.003 A 
HETATM   21  C14 UNK     1      10.543   6.130   5.880  1.00  0.00     0.001 A 
HETATM   22  C9  UNK     1      11.415   5.808   6.921  1.00  0.00     0.011 A 
BRANCH  18  23
HETATM   23  O2  UNK     1       9.112   5.910   9.772  1.00  0.00    -0.355 OA
HETATM   24  C18 UNK     1       8.219   4.840  10.069  1.00  0.00     0.210 C 
ENDBRANCH  18  23
ENDBRANCH  16  17
ENDBRANCH   2  16
TORSDOF 4
ENDMDL
MODEL 8
REMARK VINA RESULT:      -8.4      6.875     10.122
REMARK  4 active torsions:
REMARK  status: ('A' for Active; 'I' for Inactive)
REMARK    1  A    between atoms: C7_12  and  O2_2 
REMARK    2  A    between atoms: C1_6  and  N1_5 
REMARK       I    between atoms: C8_13  and  N1_5 
REMARK    3  A    between atoms: C1_6  and  C2_7 
REMARK    4  A    between atoms: C4_9  and  C8_13 
ROOT
HETATM    1  O3  UNK     1      21.562  -4.060  37.335  1.00  0.00    -0.267 OA
HETATM    2  N1  UNK     1      19.576  -3.833  36.137  1.00  0.00    -0.352 N 
HETATM    3  C8  UNK     1      20.569  -4.538  36.793  1.00  0.00     0.258 C 
HETATM    4  H3  UNK     1      18.768  -4.321  35.763  1.00  0.00     0.163 HD
ENDROOT
BRANCH   3   5
HETATM    5  C4  UNK     1      20.332  -5.987  36.796  1.00  0.00     0.108 A 
HETATM    6  C10 UNK     1      20.248  -6.772  35.543  1.00  0.00     0.304 A 
HETATM    7  O1  UNK     1      20.021  -8.139  35.677  1.00  0.00    -0.274 OA
HETATM    8  O4  UNK     1      20.372  -6.249  34.441  1.00  0.00    -0.259 OA
HETATM    9  C6  UNK     1      19.879  -8.749  36.938  1.00  0.00     0.089 A 
HETATM   10  C12 UNK     1      19.655 -10.124  36.971  1.00  0.00     0.038 A 
HETATM   11  C3  UNK     1      19.961  -7.993  38.102  1.00  0.00    -0.001 A 
HETATM   12  C17 UNK     1      19.509 -10.756  38.204  1.00  0.00     0.003 A 
HETATM   13  C16 UNK     1      19.588 -10.013  39.383  1.00  0.00     0.001 A 
HETATM   14  C11 UNK     1      19.813  -8.634  39.335  1.00  0.00     0.014 A 
HETATM   15  C5  UNK     1      20.198  -6.562  37.997  1.00  0.00     0.037 A 
ENDBRANCH   3   5
BRANCH   2  16
HETATM   16  C1  UNK     1      19.587  -2.393  36.005  1.00  0.00     0.164 C 
BRANCH  16  17
HETATM   17  C2  UNK     1      19.595  -2.022  34.554  1.00  0.00    -0.007 A 
HETATM   18  C7  UNK     1      18.695  -1.083  34.058  1.00  0.00     0.076 A 
HETATM   19  C13 UNK     1      18.716  -0.750  32.703  1.00  0.00     0.037 A 
HETATM   20  C15 UNK     1      19.639  -1.356  31.850  1.00  0.00     0.003 A 
HETATM   21  C14 UNK     1      20.539  -2.296  32.351  1.00  0.00     0.001 A 
HETATM   22  C9  UNK     1      20.517  -2.630  33.705  1.00  0.00     0.011 A 
BRANCH  18  23
HETATM   23  O2  UNK     1      17.787  -0.482  34.877  1.00  0.00    -0.355 OA
HETATM   24  C18 UNK     1      16.436  -0.927  34.783  1.00  0.00     0.210 C 
ENDBRANCH  18  23
ENDBRANCH  16  17
ENDBRANCH   2  16
TORSDOF 4
ENDMDL
MODEL 9
REMARK VINA RESULT:      -8.4      1.514      2.416
REMARK  4 active torsions:
REMARK  status: ('A' for Active; 'I' for Inactive)
REMARK    1  A    between atoms: C7_12  and  O2_2 
REMARK    2  A    between atoms: C1_6  and  N1_5 
REMARK       I    between atoms: C8_13  and  N1_5 
REMARK    3  A    between atoms: C1_6  and  C2_7 
REMARK    4  A    between atoms: C4_9  and  C8_13 
ROOT
HETATM    1  O3  UNK     1      17.901   3.137  33.528  1.00  0.00    -0.267 OA
HETATM    2  N1  UNK     1      17.628   4.529  31.679  1.00  0.00    -0.352 N 
HETATM    3  C8  UNK     1      18.005   3.366  32.326  1.00  0.00     0.258 C 
HETATM    4  H3  UNK     1      17.713   4.600  30.670  1.00  0.00     0.163 HD
ENDROOT
BRANCH   3   5
HETATM    5  C4  UNK     1      18.569   2.363  31.413  1.00  0.00     0.108 A 
HETATM    6  C10 UNK     1      18.830   2.659  29.986  1.00  0.00     0.304 A 
HETATM    7  O1  UNK     1      19.368   1.626  29.223  1.00  0.00    -0.274 OA
HETATM    8  O4  UNK     1      18.587   3.756  29.496  1.00  0.00    -0.259 OA
HETATM    9  C6  UNK     1      19.651   0.363  29.776  1.00  0.00     0.089 A 
HETATM   10  C12 UNK     1      20.189  -0.608  28.933  1.00  0.00     0.038 A 
HETATM   11  C3  UNK     1      19.398   0.106  31.120  1.00  0.00    -0.001 A 
HETATM   12  C17 UNK     1      20.480  -1.868  29.451  1.00  0.00     0.003 A 
HETATM   13  C16 UNK     1      20.232  -2.143  30.798  1.00  0.00     0.001 A 
HETATM   14  C11 UNK     1      19.693  -1.160  31.632  1.00  0.00     0.014 A 
HETATM   15  C5  UNK     1      18.837   1.165  31.944  1.00  0.00     0.037 A 
ENDBRANCH   3   5
BRANCH   2  16
HETATM   16  C1  UNK     1      17.045   5.660  32.366  1.00  0.00     0.164 C 
BRANCH  16  17
HETATM   17  C2  UNK     1      18.126   6.459  33.025  1.00  0.00    -0.007 A 
HETATM   18  C7  UNK     1      17.851   7.232  34.150  1.00  0.00     0.076 A 
HETATM   19  C13 UNK     1      18.870   7.971  34.750  1.00  0.00     0.037 A 
HETATM   20  C15 UNK     1      20.162   7.934  34.224  1.00  0.00     0.003 A 
HETATM   21  C14 UNK     1      20.434   7.159  33.097  1.00  0.00     0.001 A 
HETATM   22  C9  UNK     1      19.414   6.420  32.496  1.00  0.00     0.011 A 
BRANCH  18  23
HETATM   23  O2  UNK     1      16.595   7.280  34.677  1.00  0.00    -0.355 OA
HETATM   24  C18 UNK     1      15.802   8.420  34.357  1.00  0.00     0.210 C 
ENDBRANCH  18  23
ENDBRANCH  16  17
ENDBRANCH   2  16
TORSDOF 4
ENDMDL
MODEL 10
REMARK VINA RESULT:      -8.2      2.630      8.016
REMARK  4 active torsions:
REMARK  status: ('A' for Active; 'I' for Inactive)
REMARK    1  A    between atoms: C7_12  and  O2_2 
REMARK    2  A    between atoms: C1_6  and  N1_5 
REMARK       I    between atoms: C8_13  and  N1_5 
REMARK    3  A    between atoms: C1_6  and  C2_7 
REMARK    4  A    between atoms: C4_9  and  C8_13 
ROOT
HETATM    1  O3  UNK     1      18.634   4.096  31.062  1.00  0.00    -0.267 OA
HETATM    2  N1  UNK     1      18.034   3.496  33.232  1.00  0.00    -0.352 N 
HETATM    3  C8  UNK     1      18.316   4.387  32.212  1.00  0.00     0.258 C 
HETATM    4  H3  UNK     1      17.732   3.840  34.139  1.00  0.00     0.163 HD
ENDROOT
BRANCH   3   5
HETATM    5  C4  UNK     1      18.197   5.789  32.630  1.00  0.00     0.108 A 
HETATM    6  C10 UNK     1      16.916   6.528  32.544  1.00  0.00     0.304 A 
HETATM    7  O1  UNK     1      16.930   7.852  32.971  1.00  0.00    -0.274 OA
HETATM    8  O4  UNK     1      15.893   6.004  32.119  1.00  0.00    -0.259 OA
HETATM    9  C6  UNK     1      18.100   8.463  33.462  1.00  0.00     0.089 A 
HETATM   10  C12 UNK     1      18.015   9.794  33.868  1.00  0.00     0.038 A 
HETATM   11  C3  UNK     1      19.292   7.751  33.535  1.00  0.00    -0.001 A 
HETATM   12  C17 UNK     1      19.155  10.426  34.358  1.00  0.00     0.003 A 
HETATM   13  C16 UNK     1      20.362   9.727  34.437  1.00  0.00     0.001 A 
HETATM   14  C11 UNK     1      20.432   8.392  34.027  1.00  0.00     0.014 A 
HETATM   15  C5  UNK     1      19.311   6.364  33.096  1.00  0.00     0.037 A 
ENDBRANCH   3   5
BRANCH   2  16
HETATM   16  C1  UNK     1      18.082   2.061  33.062  1.00  0.00     0.164 C 
BRANCH  16  17
HETATM   17  C2  UNK     1      18.024   1.394  34.401  1.00  0.00    -0.007 A 
HETATM   18  C7  UNK     1      17.830   0.019  34.500  1.00  0.00     0.076 A 
HETATM   19  C13 UNK     1      17.778  -0.586  35.756  1.00  0.00     0.037 A 
HETATM   20  C15 UNK     1      17.923   0.186  36.909  1.00  0.00     0.003 A 
HETATM   21  C14 UNK     1      18.118   1.563  36.806  1.00  0.00     0.001 A 
HETATM   22  C9  UNK     1      18.168   2.169  35.550  1.00  0.00     0.011 A 
BRANCH  18  23
HETATM   23  O2  UNK     1      17.686  -0.751  33.384  1.00  0.00    -0.355 OA
HETATM   24  C18 UNK     1      18.870  -1.329  32.840  1.00  0.00     0.210 C 
ENDBRANCH  18  23
ENDBRANCH  16  17
ENDBRANCH   2  16
TORSDOF 4
ENDMDL
