MODEL 1
REMARK VINA RESULT:     -10.7      0.000      0.000
REMARK  5 active torsions:
REMARK  status: ('A' for Active; 'I' for Inactive)
REMARK    1  A    between atoms: C5_12  and  N1_5 
REMARK    2  A    between atoms: C6_13  and  N2_6 
REMARK    3  A    between atoms: C17_24  and  N3_7 
REMARK       I    between atoms: C9_16  and  N3_7 
REMARK    4  A    between atoms: C5_12  and  C7_14 
REMARK    5  A    between atoms: C6_13  and  C9_16 
ROOT
HETATM    1  N1  UNK     1      19.252  -3.142  36.117  1.00  0.00     0.096 N 
HETATM    2  N2  UNK     1      18.302  -0.541  35.286  1.00  0.00     0.100 N 
HETATM    3  C1  UNK     1      20.045  -2.290  35.222  1.00  0.00     0.303 C 
HETATM    4  C2  UNK     1      18.414  -2.319  36.998  1.00  0.00     0.303 C 
HETATM    5  C3  UNK     1      19.137  -1.364  34.404  1.00  0.00     0.303 C 
HETATM    6  C4  UNK     1      17.508  -1.393  36.181  1.00  0.00     0.303 C 
ENDROOT
BRANCH   1   7
HETATM    7  C5  UNK     1      20.119  -4.023  36.898  1.00  0.00     0.312 C 
BRANCH   7   8
HETATM    8  C7  UNK     1      20.150  -5.408  36.353  1.00  0.00    -0.011 A 
HETATM    9  C10 UNK     1      20.252  -5.633  35.036  1.00  0.00     0.092 A 
HETATM   10  C13 UNK     1      20.287  -6.984  34.451  1.00  0.00     0.288 A 
HETATM   11  O1  UNK     1      20.208  -8.047  35.337  1.00  0.00    -0.275 OA
HETATM   12  O3  UNK     1      20.380  -7.150  33.240  1.00  0.00    -0.260 OA
HETATM   13  C11 UNK     1      20.100  -7.843  36.727  1.00  0.00     0.090 A 
HETATM   14  C8  UNK     1      20.069  -6.556  37.266  1.00  0.00     0.006 A 
HETATM   15  C14 UNK     1      20.028  -8.988  37.523  1.00  0.00     0.045 A 
HETATM   16  C12 UNK     1      19.959  -6.438  38.659  1.00  0.00     0.015 A 
HETATM   17  C16 UNK     1      19.886  -7.576  39.470  1.00  0.00     0.007 A 
HETATM   18  C15 UNK     1      19.921  -8.849  38.903  1.00  0.00    -0.059 A 
HETATM   19  C19 UNK     1      19.842 -10.057  39.773  1.00  0.00     0.048 C 
ENDBRANCH   7   8
ENDBRANCH   1   7
BRANCH   2  20
HETATM   20  C6  UNK     1      17.436   0.341  34.506  1.00  0.00     0.375 C 
BRANCH  20  21
HETATM   21  C9  UNK     1      18.183   1.622  34.179  1.00  0.00     0.250 C 
HETATM   22  O2  UNK     1      19.048   2.090  34.913  1.00  0.00    -0.271 OA
HETATM   23  N3  UNK     1      17.742   2.141  32.963  1.00  0.00    -0.325 N 
HETATM   24  H15 UNK     1      17.018   1.622  32.474  1.00  0.00     0.169 HD
BRANCH  23  25
HETATM   25  C17 UNK     1      18.188   3.316  32.313  1.00  0.00     0.042 A 
HETATM   26  C18 UNK     1      18.600   3.283  30.980  1.00  0.00    -0.035 A 
HETATM   27  C21 UNK     1      19.035   4.452  30.356  1.00  0.00     0.011 A 
HETATM   28  C22 UNK     1      18.585   2.010  30.198  1.00  0.00     0.050 C 
HETATM   29  C24 UNK     1      19.059   5.654  31.064  1.00  0.00     0.024 A 
HETATM   30  C23 UNK     1      18.647   5.686  32.397  1.00  0.00     0.036 A 
HETATM   31  C20 UNK     1      18.212   4.517  33.021  1.00  0.00     0.053 A 
HETATM   32 Cl1  UNK     1      18.677   7.169  33.269  1.00  0.00    -0.084 Cl
ENDBRANCH  23  25
ENDBRANCH  20  21
ENDBRANCH   2  20
TORSDOF 5
ENDMDL
MODEL 2
REMARK VINA RESULT:     -10.0      5.986     12.781
REMARK  5 active torsions:
REMARK  status: ('A' for Active; 'I' for Inactive)
REMARK    1  A    between atoms: C5_12  and  N1_5 
REMARK    2  A    between atoms: C6_13  and  N2_6 
REMARK    3  A    between atoms: C17_24  and  N3_7 
REMARK       I    between atoms: C9_16  and  N3_7 
REMARK    4  A    between atoms: C5_12  and  C7_14 
REMARK    5  A    between atoms: C6_13  and  C9_16 
ROOT
HETATM    1  N1  UNK     1      18.280   6.235  32.211  1.00  0.00     0.096 N 
HETATM    2  N2  UNK     1      19.019   4.162  30.337  1.00  0.00     0.100 N 
HETATM    3  C1  UNK     1      18.211   4.816  32.578  1.00  0.00     0.303 C 
HETATM    4  C2  UNK     1      19.326   6.455  31.205  1.00  0.00     0.303 C 
HETATM    5  C3  UNK     1      17.971   3.943  31.341  1.00  0.00     0.303 C 
HETATM    6  C4  UNK     1      19.088   5.582  29.969  1.00  0.00     0.303 C 
ENDROOT
BRANCH   1   7
HETATM    7  C5  UNK     1      18.511   7.066  33.391  1.00  0.00     0.312 C 
BRANCH   7   8
HETATM    8  C7  UNK     1      17.352   7.953  33.689  1.00  0.00    -0.011 A 
HETATM    9  C10 UNK     1      16.105   7.466  33.755  1.00  0.00     0.092 A 
HETATM   10  C13 UNK     1      14.930   8.304  34.047  1.00  0.00     0.288 A 
HETATM   11  O1  UNK     1      15.164   9.653  34.259  1.00  0.00    -0.275 OA
HETATM   12  O3  UNK     1      13.803   7.822  34.097  1.00  0.00    -0.260 OA
HETATM   13  C11 UNK     1      16.463  10.194  34.197  1.00  0.00     0.090 A 
HETATM   14  C8  UNK     1      17.568   9.388  33.919  1.00  0.00     0.006 A 
HETATM   15  C14 UNK     1      16.581  11.567  34.427  1.00  0.00     0.045 A 
HETATM   16  C12 UNK     1      18.827  10.003  33.875  1.00  0.00     0.015 A 
HETATM   17  C16 UNK     1      18.960  11.378  34.104  1.00  0.00     0.007 A 
HETATM   18  C15 UNK     1      17.839  12.158  34.380  1.00  0.00    -0.059 A 
HETATM   19  C19 UNK     1      17.988  13.621  34.622  1.00  0.00     0.048 C 
ENDBRANCH   7   8
ENDBRANCH   1   7
BRANCH   2  20
HETATM   20  C6  UNK     1      18.790   3.330  29.158  1.00  0.00     0.375 C 
BRANCH  20  21
HETATM   21  C9  UNK     1      18.521   1.900  29.592  1.00  0.00     0.250 C 
HETATM   22  O2  UNK     1      17.497   1.297  29.287  1.00  0.00    -0.271 OA
HETATM   23  N3  UNK     1      19.586   1.418  30.350  1.00  0.00    -0.325 N 
HETATM   24  H15 UNK     1      20.367   2.049  30.505  1.00  0.00     0.169 HD
BRANCH  23  25
HETATM   25  C17 UNK     1      19.719   0.137  30.936  1.00  0.00     0.042 A 
HETATM   26  C18 UNK     1      20.302  -0.916  30.230  1.00  0.00    -0.035 A 
HETATM   27  C21 UNK     1      20.424  -2.171  30.825  1.00  0.00     0.011 A 
HETATM   28  C22 UNK     1      20.803  -0.727  28.835  1.00  0.00     0.050 C 
HETATM   29  C24 UNK     1      19.964  -2.375  32.125  1.00  0.00     0.024 A 
HETATM   30  C23 UNK     1      19.381  -1.323  32.831  1.00  0.00     0.036 A 
HETATM   31  C20 UNK     1      19.258  -0.067  32.237  1.00  0.00     0.053 A 
HETATM   32 Cl1  UNK     1      18.812  -1.575  34.436  1.00  0.00    -0.084 Cl
ENDBRANCH  23  25
ENDBRANCH  20  21
ENDBRANCH   2  20
TORSDOF 5
ENDMDL
MODEL 3
REMARK VINA RESULT:      -9.5      4.792      8.046
REMARK  5 active torsions:
REMARK  status: ('A' for Active; 'I' for Inactive)
REMARK    1  A    between atoms: C5_12  and  N1_5 
REMARK    2  A    between atoms: C6_13  and  N2_6 
REMARK    3  A    between atoms: C17_24  and  N3_7 
REMARK       I    between atoms: C9_16  and  N3_7 
REMARK    4  A    between atoms: C5_12  and  C7_14 
REMARK    5  A    between atoms: C6_13  and  C9_16 
ROOT
HETATM    1  N1  UNK     1      18.825   3.635  31.382  1.00  0.00     0.096 N 
HETATM    2  N2  UNK     1      19.217   6.312  32.401  1.00  0.00     0.100 N 
HETATM    3  C1  UNK     1      18.005   4.161  32.479  1.00  0.00     0.303 C 
HETATM    4  C2  UNK     1      19.271   4.727  30.507  1.00  0.00     0.303 C 
HETATM    5  C3  UNK     1      18.774   5.221  33.276  1.00  0.00     0.303 C 
HETATM    6  C4  UNK     1      20.038   5.787  31.303  1.00  0.00     0.303 C 
ENDROOT
BRANCH   1   7
HETATM    7  C5  UNK     1      18.089   2.627  30.621  1.00  0.00     0.312 C 
BRANCH   7   8
HETATM    8  C7  UNK     1      18.825   1.335  30.543  1.00  0.00    -0.011 A 
HETATM    9  C10 UNK     1      19.405   0.934  29.403  1.00  0.00     0.092 A 
HETATM   10  C13 UNK     1      20.143  -0.334  29.279  1.00  0.00     0.288 A 
HETATM   11  O1  UNK     1      20.219  -1.124  30.416  1.00  0.00    -0.275 OA
HETATM   12  O3  UNK     1      20.660  -0.668  28.219  1.00  0.00    -0.260 OA
HETATM   13  C11 UNK     1      19.620  -0.730  31.629  1.00  0.00     0.090 A 
HETATM   14  C8  UNK     1      18.924   0.476  31.731  1.00  0.00     0.006 A 
HETATM   15  C14 UNK     1      19.761  -1.604  32.709  1.00  0.00     0.045 A 
HETATM   16  C12 UNK     1      18.356   0.795  32.973  1.00  0.00     0.015 A 
HETATM   17  C16 UNK     1      18.489  -0.071  34.064  1.00  0.00     0.007 A 
HETATM   18  C15 UNK     1      19.191  -1.268  33.932  1.00  0.00    -0.059 A 
HETATM   19  C19 UNK     1      19.329  -2.186  35.099  1.00  0.00     0.048 C 
ENDBRANCH   7   8
ENDBRANCH   1   7
BRANCH   2  20
HETATM   20  C6  UNK     1      19.951   7.322  33.161  1.00  0.00     0.375 C 
BRANCH  20  21
HETATM   21  C9  UNK     1      19.002   8.025  34.115  1.00  0.00     0.250 C 
HETATM   22  O2  UNK     1      19.157   8.012  35.332  1.00  0.00    -0.271 OA
HETATM   23  N3  UNK     1      17.984   8.658  33.404  1.00  0.00    -0.325 N 
HETATM   24  H15 UNK     1      18.007   8.575  32.392  1.00  0.00     0.169 HD
BRANCH  23  25
HETATM   25  C17 UNK     1      16.909   9.416  33.925  1.00  0.00     0.042 A 
HETATM   26  C18 UNK     1      15.649   8.844  34.099  1.00  0.00    -0.035 A 
HETATM   27  C21 UNK     1      14.601   9.607  34.615  1.00  0.00     0.011 A 
HETATM   28  C22 UNK     1      15.393   7.416  33.742  1.00  0.00     0.050 C 
HETATM   29  C24 UNK     1      14.813  10.943  34.956  1.00  0.00     0.024 A 
HETATM   30  C23 UNK     1      16.073  11.515  34.782  1.00  0.00     0.036 A 
HETATM   31  C20 UNK     1      17.121  10.752  34.266  1.00  0.00     0.053 A 
HETATM   32 Cl1  UNK     1      16.334  13.163  35.202  1.00  0.00    -0.084 Cl
ENDBRANCH  23  25
ENDBRANCH  20  21
ENDBRANCH   2  20
TORSDOF 5
ENDMDL
MODEL 4
REMARK VINA RESULT:      -9.4     11.790     13.788
REMARK  5 active torsions:
REMARK  status: ('A' for Active; 'I' for Inactive)
REMARK    1  A    between atoms: C5_12  and  N1_5 
REMARK    2  A    between atoms: C6_13  and  N2_6 
REMARK    3  A    between atoms: C17_24  and  N3_7 
REMARK       I    between atoms: C9_16  and  N3_7 
REMARK    4  A    between atoms: C5_12  and  C7_14 
REMARK    5  A    between atoms: C6_13  and  C9_16 
ROOT
HETATM    1  N1  UNK     1      32.321  -6.694  36.344  1.00  0.00     0.096 N 
HETATM    2  N2  UNK     1      33.287  -6.844  33.623  1.00  0.00     0.100 N 
HETATM    3  C1  UNK     1      33.462  -7.545  35.985  1.00  0.00     0.303 C 
HETATM    4  C2  UNK     1      32.239  -5.539  35.440  1.00  0.00     0.303 C 
HETATM    5  C3  UNK     1      33.366  -7.999  34.524  1.00  0.00     0.303 C 
HETATM    6  C4  UNK     1      32.145  -5.993  33.980  1.00  0.00     0.303 C 
ENDROOT
BRANCH   1   7
HETATM    7  C5  UNK     1      32.415  -6.259  37.736  1.00  0.00     0.312 C 
BRANCH   7   8
HETATM    8  C7  UNK     1      31.077  -5.991  38.332  1.00  0.00    -0.011 A 
HETATM    9  C10 UNK     1      30.724  -4.757  38.719  1.00  0.00     0.092 A 
HETATM   10  C13 UNK     1      29.414  -4.445  39.312  1.00  0.00     0.288 A 
HETATM   11  O1  UNK     1      28.530  -5.502  39.462  1.00  0.00    -0.275 OA
HETATM   12  O3  UNK     1      29.127  -3.303  39.655  1.00  0.00    -0.260 OA
HETATM   13  C11 UNK     1      28.871  -6.810  39.065  1.00  0.00     0.090 A 
HETATM   14  C8  UNK     1      30.118  -7.091  38.503  1.00  0.00     0.006 A 
HETATM   15  C14 UNK     1      27.903  -7.797  39.262  1.00  0.00     0.045 A 
HETATM   16  C12 UNK     1      30.381  -8.418  38.135  1.00  0.00     0.015 A 
HETATM   17  C16 UNK     1      29.420  -9.418  38.327  1.00  0.00     0.007 A 
HETATM   18  C15 UNK     1      28.182  -9.107  38.889  1.00  0.00    -0.059 A 
HETATM   19  C19 UNK     1      27.164 -10.177  39.091  1.00  0.00     0.048 C 
ENDBRANCH   7   8
ENDBRANCH   1   7
BRANCH   2  20
HETATM   20  C6  UNK     1      33.195  -7.278  32.230  1.00  0.00     0.375 C 
BRANCH  20  21
HETATM   21  C9  UNK     1      31.865  -7.973  32.004  1.00  0.00     0.250 C 
HETATM   22  O2  UNK     1      31.645  -9.120  32.380  1.00  0.00    -0.271 OA
HETATM   23  N3  UNK     1      30.984  -7.124  31.337  1.00  0.00    -0.325 N 
HETATM   24  H15 UNK     1      31.325  -6.196  31.102  1.00  0.00     0.169 HD
BRANCH  23  25
HETATM   25  C17 UNK     1      29.652  -7.396  30.944  1.00  0.00     0.042 A 
HETATM   26  C18 UNK     1      28.587  -6.666  31.472  1.00  0.00    -0.035 A 
HETATM   27  C21 UNK     1      27.281  -6.949  31.072  1.00  0.00     0.011 A 
HETATM   28  C22 UNK     1      28.816  -5.576  32.468  1.00  0.00     0.050 C 
HETATM   29  C24 UNK     1      27.040  -7.962  30.144  1.00  0.00     0.024 A 
HETATM   30  C23 UNK     1      28.105  -8.692  29.616  1.00  0.00     0.036 A 
HETATM   31  C20 UNK     1      29.410  -8.409  30.016  1.00  0.00     0.053 A 
HETATM   32 Cl1  UNK     1      27.806  -9.942  28.472  1.00  0.00    -0.084 Cl
ENDBRANCH  23  25
ENDBRANCH  20  21
ENDBRANCH   2  20
TORSDOF 5
ENDMDL
MODEL 5
REMARK VINA RESULT:      -9.3     14.420     17.341
REMARK  5 active torsions:
REMARK  status: ('A' for Active; 'I' for Inactive)
REMARK    1  A    between atoms: C5_12  and  N1_5 
REMARK    2  A    between atoms: C6_13  and  N2_6 
REMARK    3  A    between atoms: C17_24  and  N3_7 
REMARK       I    between atoms: C9_16  and  N3_7 
REMARK    4  A    between atoms: C5_12  and  C7_14 
REMARK    5  A    between atoms: C6_13  and  C9_16 
ROOT
HETATM    1  N1  UNK     1      32.168  -6.043  35.961  1.00  0.00     0.096 N 
HETATM    2  N2  UNK     1      34.795  -6.561  34.869  1.00  0.00     0.100 N 
HETATM    3  C1  UNK     1      33.054  -4.947  35.551  1.00  0.00     0.303 C 
HETATM    4  C2  UNK     1      32.439  -7.246  35.164  1.00  0.00     0.303 C 
HETATM    5  C3  UNK     1      34.525  -5.360  35.668  1.00  0.00     0.303 C 
HETATM    6  C4  UNK     1      33.910  -7.659  35.280  1.00  0.00     0.303 C 
ENDROOT
BRANCH   1   7
HETATM    7  C5  UNK     1      30.766  -5.649  35.846  1.00  0.00     0.312 C 
BRANCH   7   8
HETATM    8  C7  UNK     1      30.081  -5.617  37.169  1.00  0.00    -0.011 A 
HETATM    9  C10 UNK     1      30.110  -4.519  37.937  1.00  0.00     0.092 A 
HETATM   10  C13 UNK     1      29.448  -4.441  39.251  1.00  0.00     0.288 A 
HETATM   11  O1  UNK     1      28.774  -5.575  39.677  1.00  0.00    -0.275 OA
HETATM   12  O3  UNK     1      29.497  -3.419  39.927  1.00  0.00    -0.260 OA
HETATM   13  C11 UNK     1      28.726  -6.743  38.891  1.00  0.00     0.090 A 
HETATM   14  C8  UNK     1      29.358  -6.802  37.648  1.00  0.00     0.006 A 
HETATM   15  C14 UNK     1      28.018  -7.824  39.420  1.00  0.00     0.045 A 
HETATM   16  C12 UNK     1      29.264  -8.002  36.928  1.00  0.00     0.015 A 
HETATM   17  C16 UNK     1      28.558  -9.094  37.445  1.00  0.00     0.007 A 
HETATM   18  C15 UNK     1      27.936  -9.005  38.689  1.00  0.00    -0.059 A 
HETATM   19  C19 UNK     1      27.186 -10.172  39.235  1.00  0.00     0.048 C 
ENDBRANCH   7   8
ENDBRANCH   1   7
BRANCH   2  20
HETATM   20  C6  UNK     1      36.197  -6.955  34.981  1.00  0.00     0.375 C 
BRANCH  20  21
HETATM   21  C9  UNK     1      36.619  -7.689  33.721  1.00  0.00     0.250 C 
HETATM   22  O2  UNK     1      36.679  -7.142  32.625  1.00  0.00    -0.271 OA
HETATM   23  N3  UNK     1      36.916  -9.019  34.015  1.00  0.00    -0.325 N 
HETATM   24  H15 UNK     1      36.821  -9.312  34.983  1.00  0.00     0.169 HD
BRANCH  23  25
HETATM   25  C17 UNK     1      37.344 -10.026  33.118  1.00  0.00     0.042 A 
HETATM   26  C18 UNK     1      36.440 -10.952  32.598  1.00  0.00    -0.035 A 
HETATM   27  C21 UNK     1      36.880 -11.938  31.716  1.00  0.00     0.011 A 
HETATM   28  C22 UNK     1      34.993 -10.912  32.971  1.00  0.00     0.050 C 
HETATM   29  C24 UNK     1      38.226 -11.999  31.353  1.00  0.00     0.024 A 
HETATM   30  C23 UNK     1      39.130 -11.073  31.873  1.00  0.00     0.036 A 
HETATM   31  C20 UNK     1      38.690 -10.087  32.755  1.00  0.00     0.053 A 
HETATM   32 Cl1  UNK     1      40.790 -11.148  31.424  1.00  0.00    -0.084 Cl
ENDBRANCH  23  25
ENDBRANCH  20  21
ENDBRANCH   2  20
TORSDOF 5
ENDMDL
MODEL 6
REMARK VINA RESULT:      -9.3      6.336      9.359
REMARK  5 active torsions:
REMARK  status: ('A' for Active; 'I' for Inactive)
REMARK    1  A    between atoms: C5_12  and  N1_5 
REMARK    2  A    between atoms: C6_13  and  N2_6 
REMARK    3  A    between atoms: C17_24  and  N3_7 
REMARK       I    between atoms: C9_16  and  N3_7 
REMARK    4  A    between atoms: C5_12  and  C7_14 
REMARK    5  A    between atoms: C6_13  and  C9_16 
ROOT
HETATM    1  N1  UNK     1      18.471   4.940  32.603  1.00  0.00     0.096 N 
HETATM    2  N2  UNK     1      18.690   7.734  33.310  1.00  0.00     0.100 N 
HETATM    3  C1  UNK     1      17.281   5.751  32.883  1.00  0.00     0.303 C 
HETATM    4  C2  UNK     1      19.550   5.780  32.067  1.00  0.00     0.303 C 
HETATM    5  C3  UNK     1      17.614   6.895  33.848  1.00  0.00     0.303 C 
HETATM    6  C4  UNK     1      19.882   6.923  33.031  1.00  0.00     0.303 C 
ENDROOT
BRANCH   1   7
HETATM    7  C5  UNK     1      18.153   3.851  31.681  1.00  0.00     0.312 C 
BRANCH   7   8
HETATM    8  C7  UNK     1      18.365   2.512  32.297  1.00  0.00    -0.011 A 
HETATM    9  C10 UNK     1      18.054   2.283  33.580  1.00  0.00     0.092 A 
HETATM   10  C13 UNK     1      18.246   0.976  34.232  1.00  0.00     0.288 A 
HETATM   11  O1  UNK     1      18.775  -0.038  33.449  1.00  0.00    -0.275 OA
HETATM   12  O3  UNK     1      17.950   0.803  35.409  1.00  0.00    -0.260 OA
HETATM   13  C11 UNK     1      19.112   0.173  32.098  1.00  0.00     0.090 A 
HETATM   14  C8  UNK     1      18.924   1.417  31.493  1.00  0.00     0.006 A 
HETATM   15  C14 UNK     1      19.637  -0.921  31.406  1.00  0.00     0.045 A 
HETATM   16  C12 UNK     1      19.285   1.545  30.144  1.00  0.00     0.015 A 
HETATM   17  C16 UNK     1      19.812   0.458  29.438  1.00  0.00     0.007 A 
HETATM   18  C15 UNK     1      19.988  -0.773  30.068  1.00  0.00    -0.059 A 
HETATM   19  C19 UNK     1      20.550  -1.926  29.310  1.00  0.00     0.048 C 
ENDBRANCH   7   8
ENDBRANCH   1   7
BRANCH   2  20
HETATM   20  C6  UNK     1      19.008   8.824  34.231  1.00  0.00     0.375 C 
BRANCH  20  21
HETATM   21  C9  UNK     1      18.079   9.996  33.967  1.00  0.00     0.250 C 
HETATM   22  O2  UNK     1      18.441  11.007  33.374  1.00  0.00    -0.271 OA
HETATM   23  N3  UNK     1      16.811   9.732  34.483  1.00  0.00    -0.325 N 
HETATM   24  H15 UNK     1      16.676   8.836  34.943  1.00  0.00     0.169 HD
BRANCH  23  25
HETATM   25  C17 UNK     1      15.671  10.569  34.441  1.00  0.00     0.042 A 
HETATM   26  C18 UNK     1      14.511  10.164  33.781  1.00  0.00    -0.035 A 
HETATM   27  C21 UNK     1      13.397  11.002  33.751  1.00  0.00     0.011 A 
HETATM   28  C22 UNK     1      14.434   8.838  33.096  1.00  0.00     0.050 C 
HETATM   29  C24 UNK     1      13.442  12.246  34.381  1.00  0.00     0.024 A 
HETATM   30  C23 UNK     1      14.602  12.651  35.042  1.00  0.00     0.036 A 
HETATM   31  C20 UNK     1      15.716  11.812  35.071  1.00  0.00     0.053 A 
HETATM   32 Cl1  UNK     1      14.657  14.185  35.819  1.00  0.00    -0.084 Cl
ENDBRANCH  23  25
ENDBRANCH  20  21
ENDBRANCH   2  20
TORSDOF 5
ENDMDL
MODEL 7
REMARK VINA RESULT:      -9.2      6.101     13.191
REMARK  5 active torsions:
REMARK  status: ('A' for Active; 'I' for Inactive)
REMARK    1  A    between atoms: C5_12  and  N1_5 
REMARK    2  A    between atoms: C6_13  and  N2_6 
REMARK    3  A    between atoms: C17_24  and  N3_7 
REMARK       I    between atoms: C9_16  and  N3_7 
REMARK    4  A    between atoms: C5_12  and  C7_14 
REMARK    5  A    between atoms: C6_13  and  C9_16 
ROOT
HETATM    1  N1  UNK     1      17.888   6.612  32.606  1.00  0.00     0.096 N 
HETATM    2  N2  UNK     1      18.169   4.617  30.532  1.00  0.00     0.100 N 
HETATM    3  C1  UNK     1      17.733   6.958  31.188  1.00  0.00     0.303 C 
HETATM    4  C2  UNK     1      17.506   5.213  32.836  1.00  0.00     0.303 C 
HETATM    5  C3  UNK     1      18.554   6.014  30.302  1.00  0.00     0.303 C 
HETATM    6  C4  UNK     1      18.326   4.269  31.950  1.00  0.00     0.303 C 
ENDROOT
BRANCH   1   7
HETATM    7  C5  UNK     1      17.104   7.511  33.449  1.00  0.00     0.312 C 
BRANCH   7   8
HETATM    8  C7  UNK     1      17.853   8.749  33.800  1.00  0.00    -0.011 A 
HETATM    9  C10 UNK     1      19.169   8.716  34.048  1.00  0.00     0.092 A 
HETATM   10  C13 UNK     1      19.952   9.914  34.398  1.00  0.00     0.288 A 
HETATM   11  O1  UNK     1      19.259  11.112  34.465  1.00  0.00    -0.275 OA
HETATM   12  O3  UNK     1      21.156   9.844  34.619  1.00  0.00    -0.260 OA
HETATM   13  C11 UNK     1      17.875  11.179  34.210  1.00  0.00     0.090 A 
HETATM   14  C8  UNK     1      17.147  10.035  33.879  1.00  0.00     0.006 A 
HETATM   15  C14 UNK     1      17.281  12.439  34.306  1.00  0.00     0.045 A 
HETATM   16  C12 UNK     1      15.773  10.185  33.641  1.00  0.00     0.015 A 
HETATM   17  C16 UNK     1      15.164  11.442  33.733  1.00  0.00     0.007 A 
HETATM   18  C15 UNK     1      15.917  12.567  34.065  1.00  0.00    -0.059 A 
HETATM   19  C19 UNK     1      15.262  13.903  34.162  1.00  0.00     0.048 C 
ENDBRANCH   7   8
ENDBRANCH   1   7
BRANCH   2  20
HETATM   20  C6  UNK     1      18.952   3.718  29.687  1.00  0.00     0.375 C 
BRANCH  20  21
HETATM   21  C9  UNK     1      18.585   2.279  30.004  1.00  0.00     0.250 C 
HETATM   22  O2  UNK     1      17.464   1.822  29.804  1.00  0.00    -0.271 OA
HETATM   23  N3  UNK     1      19.686   1.604  30.527  1.00  0.00    -0.325 N 
HETATM   24  H15 UNK     1      20.550   2.131  30.622  1.00  0.00     0.169 HD
BRANCH  23  25
HETATM   25  C17 UNK     1      19.754   0.254  30.945  1.00  0.00     0.042 A 
HETATM   26  C18 UNK     1      20.222  -0.739  30.083  1.00  0.00    -0.035 A 
HETATM   27  C21 UNK     1      20.281  -2.064  30.513  1.00  0.00     0.011 A 
HETATM   28  C22 UNK     1      20.666  -0.411  28.695  1.00  0.00     0.050 C 
HETATM   29  C24 UNK     1      19.872  -2.398  31.804  1.00  0.00     0.024 A 
HETATM   30  C23 UNK     1      19.403  -1.406  32.666  1.00  0.00     0.036 A 
HETATM   31  C20 UNK     1      19.344  -0.080  32.236  1.00  0.00     0.053 A 
HETATM   32 Cl1  UNK     1      18.899  -1.818  34.258  1.00  0.00    -0.084 Cl
ENDBRANCH  23  25
ENDBRANCH  20  21
ENDBRANCH   2  20
TORSDOF 5
ENDMDL
MODEL 8
REMARK VINA RESULT:      -9.1     27.500     29.884
REMARK  5 active torsions:
REMARK  status: ('A' for Active; 'I' for Inactive)
REMARK    1  A    between atoms: C5_12  and  N1_5 
REMARK    2  A    between atoms: C6_13  and  N2_6 
REMARK    3  A    between atoms: C17_24  and  N3_7 
REMARK       I    between atoms: C9_16  and  N3_7 
REMARK    4  A    between atoms: C5_12  and  C7_14 
REMARK    5  A    between atoms: C6_13  and  C9_16 
ROOT
HETATM    1  N1  UNK     1      16.927   9.588   9.548  1.00  0.00     0.096 N 
HETATM    2  N2  UNK     1      15.134   7.328   9.738  1.00  0.00     0.100 N 
HETATM    3  C1  UNK     1      15.470   9.767   9.534  1.00  0.00     0.303 C 
HETATM    4  C2  UNK     1      17.289   8.390  10.316  1.00  0.00     0.303 C 
HETATM    5  C3  UNK     1      14.773   8.525   8.969  1.00  0.00     0.303 C 
HETATM    6  C4  UNK     1      16.591   7.148   9.751  1.00  0.00     0.303 C 
ENDROOT
BRANCH   1   7
HETATM    7  C5  UNK     1      17.591  10.772  10.090  1.00  0.00     0.312 C 
BRANCH   7   8
HETATM    8  C7  UNK     1      18.528  11.389   9.111  1.00  0.00    -0.011 A 
HETATM    9  C10 UNK     1      18.171  11.575   7.833  1.00  0.00     0.092 A 
HETATM   10  C13 UNK     1      19.063  12.180   6.830  1.00  0.00     0.288 A 
HETATM   11  O1  UNK     1      20.322  12.562   7.266  1.00  0.00    -0.275 OA
HETATM   12  O3  UNK     1      18.702  12.334   5.668  1.00  0.00    -0.260 OA
HETATM   13  C11 UNK     1      20.726  12.379   8.603  1.00  0.00     0.090 A 
HETATM   14  C8  UNK     1      19.869  11.804   9.543  1.00  0.00     0.006 A 
HETATM   15  C14 UNK     1      22.016  12.802   8.930  1.00  0.00     0.045 A 
HETATM   16  C12 UNK     1      20.347  11.657  10.853  1.00  0.00     0.015 A 
HETATM   17  C16 UNK     1      21.638  12.075  11.195  1.00  0.00     0.007 A 
HETATM   18  C15 UNK     1      22.471  12.648  10.235  1.00  0.00    -0.059 A 
HETATM   19  C19 UNK     1      23.845  13.091  10.607  1.00  0.00     0.048 C 
ENDBRANCH   7   8
ENDBRANCH   1   7
BRANCH   2  20
HETATM   20  C6  UNK     1      14.469   6.144   9.198  1.00  0.00     0.375 C 
BRANCH  20  21
HETATM   21  C9  UNK     1      12.984   6.213   9.506  1.00  0.00     0.250 C 
HETATM   22  O2  UNK     1      12.551   6.527  10.610  1.00  0.00    -0.271 OA
HETATM   23  N3  UNK     1      12.240   5.882   8.375  1.00  0.00    -0.325 N 
HETATM   24  H15 UNK     1      12.759   5.652   7.532  1.00  0.00     0.169 HD
BRANCH  23  25
HETATM   25  C17 UNK     1      10.832   5.830   8.252  1.00  0.00     0.042 A 
HETATM   26  C18 UNK     1      10.202   6.226   7.072  1.00  0.00    -0.035 A 
HETATM   27  C21 UNK     1       8.812   6.167   6.969  1.00  0.00     0.011 A 
HETATM   28  C22 UNK     1      10.991   6.719   5.903  1.00  0.00     0.050 C 
HETATM   29  C24 UNK     1       8.052   5.713   8.046  1.00  0.00     0.024 A 
HETATM   30  C23 UNK     1       8.682   5.316   9.226  1.00  0.00     0.036 A 
HETATM   31  C20 UNK     1      10.071   5.375   9.329  1.00  0.00     0.053 A 
HETATM   32 Cl1  UNK     1       7.743   4.755  10.555  1.00  0.00    -0.084 Cl
ENDBRANCH  23  25
ENDBRANCH  20  21
ENDBRANCH   2  20
TORSDOF 5
ENDMDL
MODEL 9
REMARK VINA RESULT:      -9.0      6.619     10.091
REMARK  5 active torsions:
REMARK  status: ('A' for Active; 'I' for Inactive)
REMARK    1  A    between atoms: C5_12  and  N1_5 
REMARK    2  A    between atoms: C6_13  and  N2_6 
REMARK    3  A    between atoms: C17_24  and  N3_7 
REMARK       I    between atoms: C9_16  and  N3_7 
REMARK    4  A    between atoms: C5_12  and  C7_14 
REMARK    5  A    between atoms: C6_13  and  C9_16 
ROOT
HETATM    1  N1  UNK     1      18.256   5.318  32.632  1.00  0.00     0.096 N 
HETATM    2  N2  UNK     1      18.454   8.111  33.355  1.00  0.00     0.100 N 
HETATM    3  C1  UNK     1      17.057   6.134  32.861  1.00  0.00     0.303 C 
HETATM    4  C2  UNK     1      19.360   6.155  32.147  1.00  0.00     0.303 C 
HETATM    5  C3  UNK     1      17.351   7.274  33.843  1.00  0.00     0.303 C 
HETATM    6  C4  UNK     1      19.654   7.295  33.128  1.00  0.00     0.303 C 
ENDROOT
BRANCH   1   7
HETATM    7  C5  UNK     1      17.975   4.233  31.694  1.00  0.00     0.312 C 
BRANCH   7   8
HETATM    8  C7  UNK     1      18.274   2.896  32.276  1.00  0.00    -0.011 A 
HETATM    9  C10 UNK     1      18.069   2.644  33.576  1.00  0.00     0.092 A 
HETATM   10  C13 UNK     1      18.350   1.338  34.196  1.00  0.00     0.288 A 
HETATM   11  O1  UNK     1      18.847   0.348  33.363  1.00  0.00    -0.275 OA
HETATM   12  O3  UNK     1      18.151   1.145  35.391  1.00  0.00    -0.260 OA
HETATM   13  C11 UNK     1      19.072   0.582  31.992  1.00  0.00     0.090 A 
HETATM   14  C8  UNK     1      18.801   1.825  31.419  1.00  0.00     0.006 A 
HETATM   15  C14 UNK     1      19.574  -0.489  31.249  1.00  0.00     0.045 A 
HETATM   16  C12 UNK     1      19.053   1.978  30.048  1.00  0.00     0.015 A 
HETATM   17  C16 UNK     1      19.556   0.914  29.290  1.00  0.00     0.007 A 
HETATM   18  C15 UNK     1      19.816  -0.317  29.890  1.00  0.00    -0.059 A 
HETATM   19  C19 UNK     1      20.353  -1.446  29.077  1.00  0.00     0.048 C 
ENDBRANCH   7   8
ENDBRANCH   1   7
BRANCH   2  20
HETATM   20  C6  UNK     1      18.734   9.197  34.292  1.00  0.00     0.375 C 
BRANCH  20  21
HETATM   21  C9  UNK     1      17.982  10.443  33.860  1.00  0.00     0.250 C 
HETATM   22  O2  UNK     1      16.846  10.405  33.400  1.00  0.00    -0.271 OA
HETATM   23  N3  UNK     1      18.765  11.576  34.073  1.00  0.00    -0.325 N 
HETATM   24  H15 UNK     1      19.689  11.432  34.471  1.00  0.00     0.169 HD
BRANCH  23  25
HETATM   25  C17 UNK     1      18.427  12.923  33.802  1.00  0.00     0.042 A 
HETATM   26  C18 UNK     1      17.571  13.629  34.648  1.00  0.00    -0.035 A 
HETATM   27  C21 UNK     1      17.249  14.956  34.365  1.00  0.00     0.011 A 
HETATM   28  C22 UNK     1      16.983  12.988  35.863  1.00  0.00     0.050 C 
HETATM   29  C24 UNK     1      17.783  15.578  33.237  1.00  0.00     0.024 A 
HETATM   30  C23 UNK     1      18.639  14.873  32.391  1.00  0.00     0.036 A 
HETATM   31  C20 UNK     1      18.961  13.545  32.674  1.00  0.00     0.053 A 
HETATM   32 Cl1  UNK     1      19.297  15.640  30.999  1.00  0.00    -0.084 Cl
ENDBRANCH  23  25
ENDBRANCH  20  21
ENDBRANCH   2  20
TORSDOF 5
ENDMDL
MODEL 10
REMARK VINA RESULT:      -8.9      4.847     10.763
REMARK  5 active torsions:
REMARK  status: ('A' for Active; 'I' for Inactive)
REMARK    1  A    between atoms: C5_12  and  N1_5 
REMARK    2  A    between atoms: C6_13  and  N2_6 
REMARK    3  A    between atoms: C17_24  and  N3_7 
REMARK       I    between atoms: C9_16  and  N3_7 
REMARK    4  A    between atoms: C5_12  and  C7_14 
REMARK    5  A    between atoms: C6_13  and  C9_16 
ROOT
HETATM    1  N1  UNK     1      19.867  -3.887  36.634  1.00  0.00     0.096 N 
HETATM    2  N2  UNK     1      19.747  -6.642  37.500  1.00  0.00     0.100 N 
HETATM    3  C1  UNK     1      18.583  -4.572  36.823  1.00  0.00     0.303 C 
HETATM    4  C2  UNK     1      20.885  -4.449  37.530  1.00  0.00     0.303 C 
HETATM    5  C3  UNK     1      18.731  -6.081  36.603  1.00  0.00     0.303 C 
HETATM    6  C4  UNK     1      21.032  -5.958  37.311  1.00  0.00     0.303 C 
ENDROOT
BRANCH   1   7
HETATM    7  C5  UNK     1      19.725  -2.448  36.847  1.00  0.00     0.312 C 
BRANCH   7   8
HETATM    8  C7  UNK     1      18.910  -1.800  35.782  1.00  0.00    -0.011 A 
HETATM    9  C10 UNK     1      17.764  -1.169  36.073  1.00  0.00     0.092 A 
HETATM   10  C13 UNK     1      16.927  -0.514  35.054  1.00  0.00     0.288 A 
HETATM   11  O1  UNK     1      17.377  -0.574  33.745  1.00  0.00    -0.275 OA
HETATM   12  O3  UNK     1      15.883   0.054  35.358  1.00  0.00    -0.260 OA
HETATM   13  C11 UNK     1      18.578  -1.230  33.408  1.00  0.00     0.090 A 
HETATM   14  C8  UNK     1      19.361  -1.846  34.385  1.00  0.00     0.006 A 
HETATM   15  C14 UNK     1      18.934  -1.227  32.057  1.00  0.00     0.045 A 
HETATM   16  C12 UNK     1      20.542  -2.478  33.968  1.00  0.00     0.015 A 
HETATM   17  C16 UNK     1      20.912  -2.484  32.618  1.00  0.00     0.007 A 
HETATM   18  C15 UNK     1      20.109  -1.859  31.664  1.00  0.00    -0.059 A 
HETATM   19  C19 UNK     1      20.510  -1.869  30.229  1.00  0.00     0.048 C 
ENDBRANCH   7   8
ENDBRANCH   1   7
BRANCH   2  20
HETATM   20  C6  UNK     1      19.888  -8.081  37.289  1.00  0.00     0.375 C 
BRANCH  20  21
HETATM   21  C9  UNK     1      21.245  -8.536  37.796  1.00  0.00     0.250 C 
HETATM   22  O2  UNK     1      21.524  -8.584  38.990  1.00  0.00    -0.271 OA
HETATM   23  N3  UNK     1      22.071  -8.877  36.726  1.00  0.00    -0.325 N 
HETATM   24  H15 UNK     1      21.680  -8.785  35.793  1.00  0.00     0.169 HD
BRANCH  23  25
HETATM   25  C17 UNK     1      23.405  -9.345  36.780  1.00  0.00     0.042 A 
HETATM   26  C18 UNK     1      23.761 -10.559  36.191  1.00  0.00    -0.035 A 
HETATM   27  C21 UNK     1      25.081 -11.003  36.254  1.00  0.00     0.011 A 
HETATM   28  C22 UNK     1      22.748 -11.403  35.489  1.00  0.00     0.050 C 
HETATM   29  C24 UNK     1      26.046 -10.235  36.905  1.00  0.00     0.024 A 
HETATM   30  C23 UNK     1      25.690  -9.021  37.493  1.00  0.00     0.036 A 
HETATM   31  C20 UNK     1      24.370  -8.576  37.430  1.00  0.00     0.053 A 
HETATM   32 Cl1  UNK     1      26.881  -8.074  38.295  1.00  0.00    -0.084 Cl
ENDBRANCH  23  25
ENDBRANCH  20  21
ENDBRANCH   2  20
TORSDOF 5
ENDMDL
