MODEL 1
REMARK VINA RESULT:      -9.4      0.000      0.000
REMARK  3 active torsions:
REMARK  status: ('A' for Active; 'I' for Inactive)
REMARK    1  A    between atoms: C2_6  and  N1_4 
REMARK       I    between atoms: C8_12  and  N1_4 
REMARK    2  A    between atoms: C2_6  and  C5_9 
REMARK    3  A    between atoms: C4_8  and  C8_12 
ROOT
HETATM    1  O1  UNK     1      18.968   0.766  31.650  1.00  0.00    -0.304 OA
HETATM    2  O2  UNK     1      20.509  -0.712  28.175  1.00  0.00    -0.287 OA
HETATM    3  C1  UNK     1      20.097  -1.042  30.482  1.00  0.00     0.048 A 
HETATM    4  C3  UNK     1      19.551  -0.477  31.635  1.00  0.00     0.090 A 
HETATM    5  C4  UNK     1      18.928   1.472  30.467  1.00  0.00     0.147 A 
HETATM    6  C6  UNK     1      20.050  -0.278  29.222  1.00  0.00     0.187 A 
HETATM    7  C7  UNK     1      19.412   1.053  29.291  1.00  0.00     0.098 A 
HETATM    8  C9  UNK     1      20.680  -2.310  30.523  1.00  0.00     0.018 A 
HETATM    9  C10 UNK     1      19.586  -1.181  32.838  1.00  0.00     0.038 A 
HETATM   10  C13 UNK     1      20.713  -3.012  31.729  1.00  0.00     0.001 A 
HETATM   11  C14 UNK     1      20.166  -2.449  32.884  1.00  0.00     0.003 A 
ENDROOT
BRANCH   5  12
HETATM   12  C8  UNK     1      18.301   2.794  30.504  1.00  0.00     0.275 C 
HETATM   13  O3  UNK     1      17.139   2.937  30.885  1.00  0.00    -0.265 OA
HETATM   14  N1  UNK     1      19.144   3.805  30.073  1.00  0.00    -0.351 N 
HETATM   15  H3  UNK     1      20.085   3.572  29.765  1.00  0.00     0.163 HD
BRANCH  14  16
HETATM   16  C2  UNK     1      18.750   5.194  30.017  1.00  0.00     0.161 C 
BRANCH  16  17
HETATM   17  C5  UNK     1      19.135   5.938  31.263  1.00  0.00    -0.041 A 
HETATM   18  C11 UNK     1      20.449   5.893  31.712  1.00  0.00     0.009 A 
HETATM   19  C15 UNK     1      20.808   6.584  32.870  1.00  0.00     0.001 A 
HETATM   20  C17 UNK     1      19.848   7.314  33.571  1.00  0.00     0.000 A 
HETATM   21  C16 UNK     1      18.531   7.354  33.114  1.00  0.00     0.001 A 
HETATM   22  C12 UNK     1      18.172   6.663  31.956  1.00  0.00     0.009 A 
ENDBRANCH  16  17
ENDBRANCH  14  16
ENDBRANCH   5  12
TORSDOF 3
ENDMDL
MODEL 2
REMARK VINA RESULT:      -9.1      1.735      7.281
REMARK  3 active torsions:
REMARK  status: ('A' for Active; 'I' for Inactive)
REMARK    1  A    between atoms: C2_6  and  N1_4 
REMARK       I    between atoms: C8_12  and  N1_4 
REMARK    2  A    between atoms: C2_6  and  C5_9 
REMARK    3  A    between atoms: C4_8  and  C8_12 
ROOT
HETATM    1  O1  UNK     1      17.626   4.856  32.432  1.00  0.00    -0.304 OA
HETATM    2  O2  UNK     1      21.354   6.445  31.970  1.00  0.00    -0.287 OA
HETATM    3  C1  UNK     1      19.260   6.540  33.067  1.00  0.00     0.048 A 
HETATM    4  C3  UNK     1      18.001   5.948  33.176  1.00  0.00     0.090 A 
HETATM    5  C4  UNK     1      18.545   4.336  31.546  1.00  0.00     0.147 A 
HETATM    6  C6  UNK     1      20.234   5.976  32.116  1.00  0.00     0.187 A 
HETATM    7  C7  UNK     1      19.783   4.802  31.341  1.00  0.00     0.098 A 
HETATM    8  C9  UNK     1      19.588   7.651  33.848  1.00  0.00     0.018 A 
HETATM    9  C10 UNK     1      17.063   6.465  34.068  1.00  0.00     0.038 A 
HETATM   10  C13 UNK     1      18.646   8.165  34.740  1.00  0.00     0.001 A 
HETATM   11  C14 UNK     1      17.387   7.574  34.850  1.00  0.00     0.003 A 
ENDROOT
BRANCH   5  12
HETATM   12  C8  UNK     1      18.127   3.172  30.763  1.00  0.00     0.275 C 
HETATM   13  O3  UNK     1      16.975   2.739  30.832  1.00  0.00    -0.265 OA
HETATM   14  N1  UNK     1      19.145   2.649  29.982  1.00  0.00    -0.351 N 
HETATM   15  H3  UNK     1      20.066   3.078  30.014  1.00  0.00     0.163 HD
BRANCH  14  16
HETATM   16  C2  UNK     1      18.973   1.498  29.126  1.00  0.00     0.161 C 
BRANCH  16  17
HETATM   17  C5  UNK     1      19.513   0.246  29.753  1.00  0.00    -0.041 A 
HETATM   18  C11 UNK     1      19.371   0.045  31.121  1.00  0.00     0.009 A 
HETATM   19  C15 UNK     1      19.873  -1.118  31.704  1.00  0.00     0.001 A 
HETATM   20  C17 UNK     1      20.513  -2.073  30.915  1.00  0.00     0.000 A 
HETATM   21  C16 UNK     1      20.651  -1.865  29.542  1.00  0.00     0.001 A 
HETATM   22  C12 UNK     1      20.150  -0.701  28.959  1.00  0.00     0.009 A 
ENDBRANCH  16  17
ENDBRANCH  14  16
ENDBRANCH   5  12
TORSDOF 3
ENDMDL
MODEL 3
REMARK VINA RESULT:      -9.0      2.141      3.355
REMARK  3 active torsions:
REMARK  status: ('A' for Active; 'I' for Inactive)
REMARK    1  A    between atoms: C2_6  and  N1_4 
REMARK       I    between atoms: C8_12  and  N1_4 
REMARK    2  A    between atoms: C2_6  and  C5_9 
REMARK    3  A    between atoms: C4_8  and  C8_12 
ROOT
HETATM    1  O1  UNK     1      19.167   1.366  31.906  1.00  0.00    -0.304 OA
HETATM    2  O2  UNK     1      17.947   2.485  28.180  1.00  0.00    -0.287 OA
HETATM    3  C1  UNK     1      19.047   0.883  29.528  1.00  0.00     0.048 A 
HETATM    4  C3  UNK     1      19.436   0.560  30.828  1.00  0.00     0.090 A 
HETATM    5  C4  UNK     1      18.482   2.540  31.677  1.00  0.00     0.147 A 
HETATM    6  C6  UNK     1      18.317   2.141  29.293  1.00  0.00     0.187 A 
HETATM    7  C7  UNK     1      18.051   2.972  30.485  1.00  0.00     0.098 A 
HETATM    8  C9  UNK     1      19.349   0.026  28.466  1.00  0.00     0.018 A 
HETATM    9  C10 UNK     1      20.130  -0.625  31.074  1.00  0.00     0.038 A 
HETATM   10  C13 UNK     1      20.044  -1.158  28.716  1.00  0.00     0.001 A 
HETATM   11  C14 UNK     1      20.433  -1.483  30.017  1.00  0.00     0.003 A 
ENDROOT
BRANCH   5  12
HETATM   12  C8  UNK     1      18.204   3.384  32.839  1.00  0.00     0.275 C 
HETATM   13  O3  UNK     1      17.851   2.894  33.912  1.00  0.00    -0.265 OA
HETATM   14  N1  UNK     1      18.378   4.734  32.582  1.00  0.00    -0.351 N 
HETATM   15  H3  UNK     1      18.659   5.032  31.651  1.00  0.00     0.163 HD
BRANCH  14  16
HETATM   16  C2  UNK     1      18.160   5.763  33.574  1.00  0.00     0.161 C 
BRANCH  16  17
HETATM   17  C5  UNK     1      16.868   6.493  33.351  1.00  0.00    -0.041 A 
HETATM   18  C11 UNK     1      16.259   7.153  34.412  1.00  0.00     0.009 A 
HETATM   19  C15 UNK     1      15.058   7.831  34.206  1.00  0.00     0.001 A 
HETATM   20  C17 UNK     1      14.473   7.845  32.940  1.00  0.00     0.000 A 
HETATM   21  C16 UNK     1      15.090   7.180  31.880  1.00  0.00     0.001 A 
HETATM   22  C12 UNK     1      16.291   6.500  32.086  1.00  0.00     0.009 A 
ENDBRANCH  16  17
ENDBRANCH  14  16
ENDBRANCH   5  12
TORSDOF 3
ENDMDL
MODEL 4
REMARK VINA RESULT:      -8.9      1.736      2.458
REMARK  3 active torsions:
REMARK  status: ('A' for Active; 'I' for Inactive)
REMARK    1  A    between atoms: C2_6  and  N1_4 
REMARK       I    between atoms: C8_12  and  N1_4 
REMARK    2  A    between atoms: C2_6  and  C5_9 
REMARK    3  A    between atoms: C4_8  and  C8_12 
ROOT
HETATM    1  O1  UNK     1      18.979   1.419  31.785  1.00  0.00    -0.304 OA
HETATM    2  O2  UNK     1      18.016   2.271  27.915  1.00  0.00    -0.287 OA
HETATM    3  C1  UNK     1      19.042   0.782  29.441  1.00  0.00     0.048 A 
HETATM    4  C3  UNK     1      19.340   0.552  30.784  1.00  0.00     0.090 A 
HETATM    5  C4  UNK     1      18.292   2.561  31.431  1.00  0.00     0.147 A 
HETATM    6  C6  UNK     1      18.309   2.007  29.073  1.00  0.00     0.187 A 
HETATM    7  C7  UNK     1      17.942   2.906  30.186  1.00  0.00     0.098 A 
HETATM    8  C9  UNK     1      19.435  -0.133  28.462  1.00  0.00     0.018 A 
HETATM    9  C10 UNK     1      20.034  -0.599  31.156  1.00  0.00     0.038 A 
HETATM   10  C13 UNK     1      20.130  -1.284  28.838  1.00  0.00     0.001 A 
HETATM   11  C14 UNK     1      20.428  -1.517  30.182  1.00  0.00     0.003 A 
ENDROOT
BRANCH   5  12
HETATM   12  C8  UNK     1      17.915   3.471  32.512  1.00  0.00     0.275 C 
HETATM   13  O3  UNK     1      17.967   3.116  33.691  1.00  0.00    -0.265 OA
HETATM   14  N1  UNK     1      17.512   4.716  32.057  1.00  0.00    -0.351 N 
HETATM   15  H3  UNK     1      17.493   4.898  31.057  1.00  0.00     0.163 HD
BRANCH  14  16
HETATM   16  C2  UNK     1      17.090   5.782  32.937  1.00  0.00     0.161 C 
BRANCH  16  17
HETATM   17  C5  UNK     1      18.239   6.654  33.353  1.00  0.00    -0.041 A 
HETATM   18  C11 UNK     1      19.498   6.442  32.805  1.00  0.00     0.009 A 
HETATM   19  C15 UNK     1      20.565   7.251  33.192  1.00  0.00     0.001 A 
HETATM   20  C17 UNK     1      20.366   8.269  34.125  1.00  0.00     0.000 A 
HETATM   21  C16 UNK     1      19.099   8.476  34.671  1.00  0.00     0.001 A 
HETATM   22  C12 UNK     1      18.031   7.665  34.285  1.00  0.00     0.009 A 
ENDBRANCH  16  17
ENDBRANCH  14  16
ENDBRANCH   5  12
TORSDOF 3
ENDMDL
MODEL 5
REMARK VINA RESULT:      -8.8      1.202      2.232
REMARK  3 active torsions:
REMARK  status: ('A' for Active; 'I' for Inactive)
REMARK    1  A    between atoms: C2_6  and  N1_4 
REMARK       I    between atoms: C8_12  and  N1_4 
REMARK    2  A    between atoms: C2_6  and  C5_9 
REMARK    3  A    between atoms: C4_8  and  C8_12 
ROOT
HETATM    1  O1  UNK     1      19.646   0.925  29.496  1.00  0.00    -0.304 OA
HETATM    2  O2  UNK     1      18.764   0.144  33.400  1.00  0.00    -0.287 OA
HETATM    3  C1  UNK     1      19.684  -0.631  31.363  1.00  0.00     0.048 A 
HETATM    4  C3  UNK     1      19.958  -0.298  30.036  1.00  0.00     0.090 A 
HETATM    5  C4  UNK     1      19.038   1.853  30.315  1.00  0.00     0.147 A 
HETATM    6  C6  UNK     1      19.033   0.368  32.228  1.00  0.00     0.187 A 
HETATM    7  C7  UNK     1      18.719   1.668  31.601  1.00  0.00     0.098 A 
HETATM    8  C9  UNK     1      20.022  -1.892  31.860  1.00  0.00     0.018 A 
HETATM    9  C10 UNK     1      20.572  -1.228  29.197  1.00  0.00     0.038 A 
HETATM   10  C13 UNK     1      20.637  -2.819  31.018  1.00  0.00     0.001 A 
HETATM   11  C14 UNK     1      20.912  -2.488  29.690  1.00  0.00     0.003 A 
ENDROOT
BRANCH   5  12
HETATM   12  C8  UNK     1      18.715   3.151  29.721  1.00  0.00     0.275 C 
HETATM   13  O3  UNK     1      18.071   3.229  28.673  1.00  0.00    -0.265 OA
HETATM   14  N1  UNK     1      19.206   4.219  30.453  1.00  0.00    -0.351 N 
HETATM   15  H3  UNK     1      19.740   4.039  31.299  1.00  0.00     0.163 HD
BRANCH  14  16
HETATM   16  C2  UNK     1      19.017   5.598  30.065  1.00  0.00     0.161 C 
BRANCH  16  17
HETATM   17  C5  UNK     1      18.707   6.476  31.243  1.00  0.00    -0.041 A 
HETATM   18  C11 UNK     1      19.625   6.585  32.279  1.00  0.00     0.009 A 
HETATM   19  C15 UNK     1      19.338   7.400  33.374  1.00  0.00     0.001 A 
HETATM   20  C17 UNK     1      18.133   8.101  33.424  1.00  0.00     0.000 A 
HETATM   21  C16 UNK     1      17.216   7.986  32.379  1.00  0.00     0.001 A 
HETATM   22  C12 UNK     1      17.503   7.170  31.285  1.00  0.00     0.009 A 
ENDBRANCH  16  17
ENDBRANCH  14  16
ENDBRANCH   5  12
TORSDOF 3
ENDMDL
MODEL 6
REMARK VINA RESULT:      -8.5      2.172      3.351
REMARK  3 active torsions:
REMARK  status: ('A' for Active; 'I' for Inactive)
REMARK    1  A    between atoms: C2_6  and  N1_4 
REMARK       I    between atoms: C8_12  and  N1_4 
REMARK    2  A    between atoms: C2_6  and  C5_9 
REMARK    3  A    between atoms: C4_8  and  C8_12 
ROOT
HETATM    1  O1  UNK     1      18.873  -0.284  33.169  1.00  0.00    -0.304 OA
HETATM    2  O2  UNK     1      21.357  -3.493  32.769  1.00  0.00    -0.287 OA
HETATM    3  C1  UNK     1      19.911  -2.244  34.164  1.00  0.00     0.048 A 
HETATM    4  C3  UNK     1      19.076  -1.129  34.233  1.00  0.00     0.090 A 
HETATM    5  C4  UNK     1      19.530  -0.566  31.990  1.00  0.00     0.147 A 
HETATM    6  C6  UNK     1      20.610  -2.534  32.899  1.00  0.00     0.187 A 
HETATM    7  C7  UNK     1      20.358  -1.597  31.785  1.00  0.00     0.098 A 
HETATM    8  C9  UNK     1      20.083  -3.068  35.278  1.00  0.00     0.018 A 
HETATM    9  C10 UNK     1      18.405  -0.833  35.419  1.00  0.00     0.038 A 
HETATM   10  C13 UNK     1      19.410  -2.769  36.464  1.00  0.00     0.001 A 
HETATM   11  C14 UNK     1      18.573  -1.655  36.534  1.00  0.00     0.003 A 
ENDROOT
BRANCH   5  12
HETATM   12  C8  UNK     1      19.300   0.346  30.869  1.00  0.00     0.275 C 
HETATM   13  O3  UNK     1      19.695   0.072  29.735  1.00  0.00    -0.265 OA
HETATM   14  N1  UNK     1      18.619   1.495  31.235  1.00  0.00    -0.351 N 
HETATM   15  H3  UNK     1      18.351   1.627  32.207  1.00  0.00     0.163 HD
BRANCH  14  16
HETATM   16  C2  UNK     1      18.278   2.544  30.301  1.00  0.00     0.161 C 
BRANCH  16  17
HETATM   17  C5  UNK     1      18.597   3.906  30.846  1.00  0.00    -0.041 A 
HETATM   18  C11 UNK     1      19.283   4.820  30.056  1.00  0.00     0.009 A 
HETATM   19  C15 UNK     1      19.579   6.085  30.562  1.00  0.00     0.001 A 
HETATM   20  C17 UNK     1      19.188   6.428  31.856  1.00  0.00     0.000 A 
HETATM   21  C16 UNK     1      18.500   5.505  32.643  1.00  0.00     0.001 A 
HETATM   22  C12 UNK     1      18.204   4.239  32.137  1.00  0.00     0.009 A 
ENDBRANCH  16  17
ENDBRANCH  14  16
ENDBRANCH   5  12
TORSDOF 3
ENDMDL
MODEL 7
REMARK VINA RESULT:      -8.5      6.590      8.924
REMARK  3 active torsions:
REMARK  status: ('A' for Active; 'I' for Inactive)
REMARK    1  A    between atoms: C2_6  and  N1_4 
REMARK       I    between atoms: C8_12  and  N1_4 
REMARK    2  A    between atoms: C2_6  and  C5_9 
REMARK    3  A    between atoms: C4_8  and  C8_12 
ROOT
HETATM    1  O1  UNK     1      21.562  -4.699  37.569  1.00  0.00    -0.304 OA
HETATM    2  O2  UNK     1      18.258  -7.084  37.405  1.00  0.00    -0.287 OA
HETATM    3  C1  UNK     1      20.459  -6.766  38.213  1.00  0.00     0.048 A 
HETATM    4  C3  UNK     1      21.555  -5.903  38.228  1.00  0.00     0.090 A 
HETATM    5  C4  UNK     1      20.429  -4.342  36.870  1.00  0.00     0.147 A 
HETATM    6  C6  UNK     1      19.254  -6.375  37.461  1.00  0.00     0.187 A 
HETATM    7  C7  UNK     1      19.311  -5.070  36.771  1.00  0.00     0.098 A 
HETATM    8  C9  UNK     1      20.507  -7.982  38.899  1.00  0.00     0.018 A 
HETATM    9  C10 UNK     1      22.707  -6.253  38.931  1.00  0.00     0.038 A 
HETATM   10  C13 UNK     1      21.662  -8.328  39.602  1.00  0.00     0.001 A 
HETATM   11  C14 UNK     1      22.759  -7.466  39.619  1.00  0.00     0.003 A 
ENDROOT
BRANCH   5  12
HETATM   12  C8  UNK     1      20.456  -3.053  36.176  1.00  0.00     0.275 C 
HETATM   13  O3  UNK     1      21.501  -2.410  36.068  1.00  0.00    -0.265 OA
HETATM   14  N1  UNK     1      19.216  -2.675  35.687  1.00  0.00    -0.351 N 
HETATM   15  H3  UNK     1      18.413  -3.278  35.846  1.00  0.00     0.163 HD
BRANCH  14  16
HETATM   16  C2  UNK     1      18.992  -1.441  34.969  1.00  0.00     0.161 C 
BRANCH  16  17
HETATM   17  C5  UNK     1      17.878  -0.635  35.572  1.00  0.00    -0.041 A 
HETATM   18  C11 UNK     1      18.079   0.018  36.782  1.00  0.00     0.009 A 
HETATM   19  C15 UNK     1      17.045   0.767  37.342  1.00  0.00     0.001 A 
HETATM   20  C17 UNK     1      15.816   0.858  36.689  1.00  0.00     0.000 A 
HETATM   21  C16 UNK     1      15.623   0.200  35.474  1.00  0.00     0.001 A 
HETATM   22  C12 UNK     1      16.657  -0.550  34.914  1.00  0.00     0.009 A 
ENDBRANCH  16  17
ENDBRANCH  14  16
ENDBRANCH   5  12
TORSDOF 3
ENDMDL
MODEL 8
REMARK VINA RESULT:      -8.4     14.239     16.473
REMARK  3 active torsions:
REMARK  status: ('A' for Active; 'I' for Inactive)
REMARK    1  A    between atoms: C2_6  and  N1_4 
REMARK       I    between atoms: C8_12  and  N1_4 
REMARK    2  A    between atoms: C2_6  and  C5_9 
REMARK    3  A    between atoms: C4_8  and  C8_12 
ROOT
HETATM    1  O1  UNK     1      19.412  -1.545  14.505  1.00  0.00    -0.304 OA
HETATM    2  O2  UNK     1      18.121  -5.245  13.376  1.00  0.00    -0.287 OA
HETATM    3  C1  UNK     1      19.395  -3.323  12.848  1.00  0.00     0.048 A 
HETATM    4  C3  UNK     1      19.800  -2.065  13.295  1.00  0.00     0.090 A 
HETATM    5  C4  UNK     1      18.589  -2.313  15.301  1.00  0.00     0.147 A 
HETATM    6  C6  UNK     1      18.514  -4.135  13.706  1.00  0.00     0.187 A 
HETATM    7  C7  UNK     1      18.126  -3.532  14.998  1.00  0.00     0.098 A 
HETATM    8  C9  UNK     1      19.818  -3.802  11.606  1.00  0.00     0.018 A 
HETATM    9  C10 UNK     1      20.632  -1.278  12.499  1.00  0.00     0.038 A 
HETATM   10  C13 UNK     1      20.651  -3.011  10.813  1.00  0.00     0.001 A 
HETATM   11  C14 UNK     1      21.058  -1.753  11.259  1.00  0.00     0.003 A 
ENDROOT
BRANCH   5  12
HETATM   12  C8  UNK     1      18.189  -1.742  16.588  1.00  0.00     0.275 C 
HETATM   13  O3  UNK     1      17.022  -1.809  16.978  1.00  0.00    -0.265 OA
HETATM   14  N1  UNK     1      19.239  -1.147  17.267  1.00  0.00    -0.351 N 
HETATM   15  H3  UNK     1      20.163  -1.136  16.844  1.00  0.00     0.163 HD
BRANCH  14  16
HETATM   16  C2  UNK     1      19.089  -0.513  18.557  1.00  0.00     0.161 C 
BRANCH  16  17
HETATM   17  C5  UNK     1      19.330   0.967  18.487  1.00  0.00    -0.041 A 
HETATM   18  C11 UNK     1      19.183   1.631  17.275  1.00  0.00     0.009 A 
HETATM   19  C15 UNK     1      19.407   3.006  17.210  1.00  0.00     0.001 A 
HETATM   20  C17 UNK     1      19.778   3.708  18.357  1.00  0.00     0.000 A 
HETATM   21  C16 UNK     1      19.923   3.033  19.570  1.00  0.00     0.001 A 
HETATM   22  C12 UNK     1      19.699   1.658  19.635  1.00  0.00     0.009 A 
ENDBRANCH  16  17
ENDBRANCH  14  16
ENDBRANCH   5  12
TORSDOF 3
ENDMDL
MODEL 9
REMARK VINA RESULT:      -8.4      6.350     11.199
REMARK  3 active torsions:
REMARK  status: ('A' for Active; 'I' for Inactive)
REMARK    1  A    between atoms: C2_6  and  N1_4 
REMARK       I    between atoms: C8_12  and  N1_4 
REMARK    2  A    between atoms: C2_6  and  C5_9 
REMARK    3  A    between atoms: C4_8  and  C8_12 
ROOT
HETATM    1  O1  UNK     1      20.599  -3.521  35.233  1.00  0.00    -0.304 OA
HETATM    2  O2  UNK     1      17.835  -0.887  36.665  1.00  0.00    -0.287 OA
HETATM    3  C1  UNK     1      19.098  -1.656  34.818  1.00  0.00     0.048 A 
HETATM    4  C3  UNK     1      20.047  -2.585  34.393  1.00  0.00     0.090 A 
HETATM    5  C4  UNK     1      20.185  -3.529  36.548  1.00  0.00     0.147 A 
HETATM    6  C6  UNK     1      18.663  -1.673  36.226  1.00  0.00     0.187 A 
HETATM    7  C7  UNK     1      19.285  -2.699  37.088  1.00  0.00     0.098 A 
HETATM    8  C9  UNK     1      18.570  -0.724  33.921  1.00  0.00     0.018 A 
HETATM    9  C10 UNK     1      20.475  -2.587  33.066  1.00  0.00     0.038 A 
HETATM   10  C13 UNK     1      19.001  -0.729  32.594  1.00  0.00     0.001 A 
HETATM   11  C14 UNK     1      19.950  -1.659  32.167  1.00  0.00     0.003 A 
ENDROOT
BRANCH   5  12
HETATM   12  C8  UNK     1      20.784  -4.535  37.426  1.00  0.00     0.275 C 
HETATM   13  O3  UNK     1      22.004  -4.697  37.470  1.00  0.00    -0.265 OA
HETATM   14  N1  UNK     1      19.845  -5.244  38.157  1.00  0.00    -0.351 N 
HETATM   15  H3  UNK     1      18.857  -5.039  38.032  1.00  0.00     0.163 HD
BRANCH  14  16
HETATM   16  C2  UNK     1      20.195  -6.291  39.090  1.00  0.00     0.161 C 
BRANCH  16  17
HETATM   17  C5  UNK     1      19.819  -7.650  38.576  1.00  0.00    -0.041 A 
HETATM   18  C11 UNK     1      20.156  -8.781  39.310  1.00  0.00     0.009 A 
HETATM   19  C15 UNK     1      19.807 -10.044  38.832  1.00  0.00     0.001 A 
HETATM   20  C17 UNK     1      19.123 -10.168  37.623  1.00  0.00     0.000 A 
HETATM   21  C16 UNK     1      18.787  -9.028  36.893  1.00  0.00     0.001 A 
HETATM   22  C12 UNK     1      19.137  -7.764  37.370  1.00  0.00     0.009 A 
ENDBRANCH  16  17
ENDBRANCH  14  16
ENDBRANCH   5  12
TORSDOF 3
ENDMDL
MODEL 10
REMARK VINA RESULT:      -8.3      6.689     11.434
REMARK  3 active torsions:
REMARK  status: ('A' for Active; 'I' for Inactive)
REMARK    1  A    between atoms: C2_6  and  N1_4 
REMARK       I    between atoms: C8_12  and  N1_4 
REMARK    2  A    between atoms: C2_6  and  C5_9 
REMARK    3  A    between atoms: C4_8  and  C8_12 
ROOT
HETATM    1  O1  UNK     1      19.315  -2.722  37.676  1.00  0.00    -0.304 OA
HETATM    2  O2  UNK     1      20.161  -2.058  33.742  1.00  0.00    -0.287 OA
HETATM    3  C1  UNK     1      18.990  -1.374  35.680  1.00  0.00     0.048 A 
HETATM    4  C3  UNK     1      18.743  -1.658  37.024  1.00  0.00     0.090 A 
HETATM    5  C4  UNK     1      20.168  -3.534  36.958  1.00  0.00     0.147 A 
HETATM    6  C6  UNK     1      19.902  -2.249  34.922  1.00  0.00     0.187 A 
HETATM    7  C7  UNK     1      20.492  -3.379  35.669  1.00  0.00     0.098 A 
HETATM    8  C9  UNK     1      18.379  -0.279  35.066  1.00  0.00     0.018 A 
HETATM    9  C10 UNK     1      17.883  -0.845  37.761  1.00  0.00     0.038 A 
HETATM   10  C13 UNK     1      17.518   0.533  35.807  1.00  0.00     0.001 A 
HETATM   11  C14 UNK     1      17.271   0.250  37.151  1.00  0.00     0.003 A 
ENDROOT
BRANCH   5  12
HETATM   12  C8  UNK     1      20.769  -4.662  37.671  1.00  0.00     0.275 C 
HETATM   13  O3  UNK     1      21.967  -4.923  37.556  1.00  0.00    -0.265 OA
HETATM   14  N1  UNK     1      19.857  -5.359  38.448  1.00  0.00    -0.351 N 
HETATM   15  H3  UNK     1      18.884  -5.064  38.459  1.00  0.00     0.163 HD
BRANCH  14  16
HETATM   16  C2  UNK     1      20.214  -6.513  39.241  1.00  0.00     0.161 C 
BRANCH  16  17
HETATM   17  C5  UNK     1      19.794  -7.796  38.586  1.00  0.00    -0.041 A 
HETATM   18  C11 UNK     1      19.130  -7.761  37.366  1.00  0.00     0.009 A 
HETATM   19  C15 UNK     1      18.739  -8.954  36.757  1.00  0.00     0.001 A 
HETATM   20  C17 UNK     1      19.017 -10.174  37.373  1.00  0.00     0.000 A 
HETATM   21  C16 UNK     1      19.685 -10.201  38.598  1.00  0.00     0.001 A 
HETATM   22  C12 UNK     1      20.074  -9.008  39.207  1.00  0.00     0.009 A 
ENDBRANCH  16  17
ENDBRANCH  14  16
ENDBRANCH   5  12
TORSDOF 3
ENDMDL
