MODEL 1
REMARK VINA RESULT:      -8.3      0.000      0.000
REMARK  4 active torsions:
REMARK  status: ('A' for Active; 'I' for Inactive)
REMARK    1  A    between atoms: C6_13  and  S1_1 
REMARK    2  A    between atoms: N1_7  and  S1_1 
REMARK    3  A    between atoms: C4_11  and  N1_7 
REMARK    4  A    between atoms: C1_8  and  C4_11 
ROOT
HETATM    1  O4  UNK     1      18.962   0.560  28.560  1.00  0.00    -0.275 OA
HETATM    2  O5  UNK     1      17.902   2.454  27.826  1.00  0.00    -0.260 OA
HETATM    3  C6  UNK     1      20.483  -1.729  31.706  1.00  0.00     0.080 A 
HETATM    4  C7  UNK     1      19.876  -0.502  31.984  1.00  0.00     0.039 A 
HETATM    5  C8  UNK     1      20.578  -2.185  30.389  1.00  0.00     0.028 A 
HETATM    6  C9  UNK     1      19.362   0.276  30.943  1.00  0.00    -0.001 A 
HETATM    7  C10 UNK     1      19.466  -0.195  29.637  1.00  0.00     0.089 A 
HETATM    8  C11 UNK     1      20.068  -1.418  29.345  1.00  0.00     0.040 A 
HETATM    9  C12 UNK     1      18.721   1.559  31.176  1.00  0.00     0.020 A 
HETATM   10  C13 UNK     1      18.244   2.268  30.150  1.00  0.00     0.083 A 
HETATM   11  C14 UNK     1      18.344   1.790  28.758  1.00  0.00     0.288 A 
ENDROOT
BRANCH   3  12
HETATM   12  S1  UNK     1      21.125  -2.697  33.010  1.00  0.00     0.258 S 
HETATM   13  O2  UNK     1      21.271  -4.071  32.546  1.00  0.00    -0.201 OA
HETATM   14  O3  UNK     1      22.284  -2.000  33.552  1.00  0.00    -0.201 OA
BRANCH  12  15
HETATM   15  N1  UNK     1      19.866  -2.641  34.164  1.00  0.00    -0.313 N 
HETATM   16  H10 UNK     1      19.190  -3.414  34.186  1.00  0.00     0.172 HD
BRANCH  15  17
HETATM   17  C4  UNK     1      20.067  -1.926  35.433  1.00  0.00     0.164 C 
BRANCH  17  18
HETATM   18  C1  UNK     1      18.939  -0.951  35.705  1.00  0.00     0.140 C 
HETATM   19  O1  UNK     1      19.430   0.398  35.633  1.00  0.00    -0.384 OA
HETATM   20  C5  UNK     1      18.458   1.199  34.944  1.00  0.00     0.168 C 
HETATM   21  C3  UNK     1      17.218   0.347  34.783  1.00  0.00     0.029 C 
HETATM   22  C2  UNK     1      17.802  -1.042  34.702  1.00  0.00     0.035 C 
ENDBRANCH  17  18
ENDBRANCH  15  17
ENDBRANCH  12  15
ENDBRANCH   3  12
TORSDOF 4
ENDMDL
MODEL 2
REMARK VINA RESULT:      -8.2      4.509      6.757
REMARK  4 active torsions:
REMARK  status: ('A' for Active; 'I' for Inactive)
REMARK    1  A    between atoms: C6_13  and  S1_1 
REMARK    2  A    between atoms: N1_7  and  S1_1 
REMARK    3  A    between atoms: C4_11  and  N1_7 
REMARK    4  A    between atoms: C1_8  and  C4_11 
ROOT
HETATM    1  O4  UNK     1      19.693   7.615  32.889  1.00  0.00    -0.275 OA
HETATM    2  O5  UNK     1      19.300   9.031  34.647  1.00  0.00    -0.260 OA
HETATM    3  C6  UNK     1      18.705   4.164  30.753  1.00  0.00     0.080 A 
HETATM    4  C7  UNK     1      17.963   4.502  31.887  1.00  0.00     0.039 A 
HETATM    5  C8  UNK     1      19.765   4.973  30.337  1.00  0.00     0.028 A 
HETATM    6  C9  UNK     1      18.280   5.653  32.613  1.00  0.00    -0.001 A 
HETATM    7  C10 UNK     1      19.340   6.447  32.184  1.00  0.00     0.089 A 
HETATM    8  C11 UNK     1      20.088   6.123  31.054  1.00  0.00     0.040 A 
HETATM    9  C12 UNK     1      17.542   6.051  33.799  1.00  0.00     0.020 A 
HETATM   10  C13 UNK     1      17.881   7.159  34.462  1.00  0.00     0.083 A 
HETATM   11  C14 UNK     1      19.000   8.016  34.027  1.00  0.00     0.288 A 
ENDROOT
BRANCH   3  12
HETATM   12  S1  UNK     1      18.306   2.724  29.849  1.00  0.00     0.258 S 
HETATM   13  O2  UNK     1      17.133   2.102  30.452  1.00  0.00    -0.201 OA
HETATM   14  O3  UNK     1      18.278   3.078  28.437  1.00  0.00    -0.201 OA
BRANCH  12  15
HETATM   15  N1  UNK     1      19.661   1.723  30.134  1.00  0.00    -0.313 N 
HETATM   16  H10 UNK     1      20.055   1.692  31.083  1.00  0.00     0.172 HD
BRANCH  15  17
HETATM   17  C4  UNK     1      19.872   0.523  29.311  1.00  0.00     0.164 C 
BRANCH  17  18
HETATM   18  C1  UNK     1      20.638  -0.543  30.069  1.00  0.00     0.140 C 
HETATM   19  O1  UNK     1      20.329  -0.464  31.471  1.00  0.00    -0.384 OA
HETATM   20  C5  UNK     1      20.177  -1.799  31.978  1.00  0.00     0.168 C 
HETATM   21  C3  UNK     1      20.631  -2.741  30.884  1.00  0.00     0.029 C 
HETATM   22  C2  UNK     1      20.295  -1.959  29.639  1.00  0.00     0.035 C 
ENDBRANCH  17  18
ENDBRANCH  15  17
ENDBRANCH  12  15
ENDBRANCH   3  12
TORSDOF 4
ENDMDL
MODEL 3
REMARK VINA RESULT:      -7.9      1.735      2.890
REMARK  4 active torsions:
REMARK  status: ('A' for Active; 'I' for Inactive)
REMARK    1  A    between atoms: C6_13  and  S1_1 
REMARK    2  A    between atoms: N1_7  and  S1_1 
REMARK    3  A    between atoms: C4_11  and  N1_7 
REMARK    4  A    between atoms: C1_8  and  C4_11 
ROOT
HETATM    1  O4  UNK     1      18.947   0.651  28.593  1.00  0.00    -0.275 OA
HETATM    2  O5  UNK     1      17.855   2.556  27.937  1.00  0.00    -0.260 OA
HETATM    3  C6  UNK     1      20.535  -1.724  31.640  1.00  0.00     0.080 A 
HETATM    4  C7  UNK     1      19.916  -0.515  31.968  1.00  0.00     0.039 A 
HETATM    5  C8  UNK     1      20.619  -2.135  30.308  1.00  0.00     0.028 A 
HETATM    6  C9  UNK     1      19.380   0.291  30.961  1.00  0.00    -0.001 A 
HETATM    7  C10 UNK     1      19.474  -0.134  29.638  1.00  0.00     0.089 A 
HETATM    8  C11 UNK     1      20.087  -1.338  29.297  1.00  0.00     0.040 A 
HETATM    9  C12 UNK     1      18.727   1.557  31.245  1.00  0.00     0.020 A 
HETATM   10  C13 UNK     1      18.229   2.295  30.249  1.00  0.00     0.083 A 
HETATM   11  C14 UNK     1      18.317   1.866  28.841  1.00  0.00     0.288 A 
ENDROOT
BRANCH   3  12
HETATM   12  S1  UNK     1      21.204  -2.728  32.903  1.00  0.00     0.258 S 
HETATM   13  O2  UNK     1      21.377  -4.080  32.385  1.00  0.00    -0.201 OA
HETATM   14  O3  UNK     1      22.351  -2.029  33.465  1.00  0.00    -0.201 OA
BRANCH  12  15
HETATM   15  N1  UNK     1      19.951  -2.744  34.064  1.00  0.00    -0.313 N 
HETATM   16  H10 UNK     1      19.095  -3.271  33.851  1.00  0.00     0.172 HD
BRANCH  15  17
HETATM   17  C4  UNK     1      20.272  -2.588  35.490  1.00  0.00     0.164 C 
BRANCH  17  18
HETATM   18  C1  UNK     1      19.813  -3.787  36.297  1.00  0.00     0.140 C 
HETATM   19  O1  UNK     1      20.014  -4.992  35.540  1.00  0.00    -0.384 OA
HETATM   20  C5  UNK     1      20.523  -6.003  36.424  1.00  0.00     0.168 C 
HETATM   21  C3  UNK     1      20.420  -5.453  37.830  1.00  0.00     0.029 C 
HETATM   22  C2  UNK     1      20.575  -3.971  37.598  1.00  0.00     0.035 C 
ENDBRANCH  17  18
ENDBRANCH  15  17
ENDBRANCH  12  15
ENDBRANCH   3  12
TORSDOF 4
ENDMDL
MODEL 4
REMARK VINA RESULT:      -7.8      5.227      8.790
REMARK  4 active torsions:
REMARK  status: ('A' for Active; 'I' for Inactive)
REMARK    1  A    between atoms: C6_13  and  S1_1 
REMARK    2  A    between atoms: N1_7  and  S1_1 
REMARK    3  A    between atoms: C4_11  and  N1_7 
REMARK    4  A    between atoms: C1_8  and  C4_11 
ROOT
HETATM    1  O4  UNK     1      19.393  -9.531  36.883  1.00  0.00    -0.275 OA
HETATM    2  O5  UNK     1      19.399 -11.459  38.121  1.00  0.00    -0.260 OA
HETATM    3  C6  UNK     1      19.759  -5.374  36.685  1.00  0.00     0.080 A 
HETATM    4  C7  UNK     1      19.889  -6.014  37.921  1.00  0.00     0.039 A 
HETATM    5  C8  UNK     1      19.510  -6.117  35.529  1.00  0.00     0.028 A 
HETATM    6  C9  UNK     1      19.769  -7.403  38.004  1.00  0.00    -0.001 A 
HETATM    7  C10 UNK     1      19.521  -8.128  36.841  1.00  0.00     0.089 A 
HETATM    8  C11 UNK     1      19.390  -7.503  35.602  1.00  0.00     0.040 A 
HETATM    9  C12 UNK     1      19.896  -8.120  39.262  1.00  0.00     0.020 A 
HETATM   10  C13 UNK     1      19.773  -9.449  39.293  1.00  0.00     0.083 A 
HETATM   11  C14 UNK     1      19.510 -10.238  38.075  1.00  0.00     0.288 A 
ENDROOT
BRANCH   3  12
HETATM   12  S1  UNK     1      19.908  -3.637  36.586  1.00  0.00     0.258 S 
HETATM   13  O2  UNK     1      20.705  -3.169  37.714  1.00  0.00    -0.201 OA
HETATM   14  O3  UNK     1      20.326  -3.303  35.232  1.00  0.00    -0.201 OA
BRANCH  12  15
HETATM   15  N1  UNK     1      18.295  -3.116  36.804  1.00  0.00    -0.313 N 
HETATM   16  H10 UNK     1      17.829  -3.331  37.694  1.00  0.00     0.172 HD
BRANCH  15  17
HETATM   17  C4  UNK     1      17.808  -1.924  36.094  1.00  0.00     0.164 C 
BRANCH  17  18
HETATM   18  C1  UNK     1      18.317  -0.648  36.737  1.00  0.00     0.140 C 
HETATM   19  O1  UNK     1      19.123   0.084  35.799  1.00  0.00    -0.384 OA
HETATM   20  C5  UNK     1      18.802   1.478  35.915  1.00  0.00     0.168 C 
HETATM   21  C3  UNK     1      17.917   1.627  37.135  1.00  0.00     0.029 C 
HETATM   22  C2  UNK     1      17.209   0.296  37.170  1.00  0.00     0.035 C 
ENDBRANCH  17  18
ENDBRANCH  15  17
ENDBRANCH  12  15
ENDBRANCH   3  12
TORSDOF 4
ENDMDL
MODEL 5
REMARK VINA RESULT:      -7.7      6.299      8.209
REMARK  4 active torsions:
REMARK  status: ('A' for Active; 'I' for Inactive)
REMARK    1  A    between atoms: C6_13  and  S1_1 
REMARK    2  A    between atoms: N1_7  and  S1_1 
REMARK    3  A    between atoms: C4_11  and  N1_7 
REMARK    4  A    between atoms: C1_8  and  C4_11 
ROOT
HETATM    1  O4  UNK     1      17.806   2.960  31.548  1.00  0.00    -0.275 OA
HETATM    2  O5  UNK     1      17.695   1.650  29.671  1.00  0.00    -0.260 OA
HETATM    3  C6  UNK     1      18.970   6.523  33.392  1.00  0.00     0.080 A 
HETATM    4  C7  UNK     1      19.241   6.336  32.034  1.00  0.00     0.039 A 
HETATM    5  C8  UNK     1      18.315   5.530  34.124  1.00  0.00     0.028 A 
HETATM    6  C9  UNK     1      18.858   5.150  31.402  1.00  0.00    -0.001 A 
HETATM    7  C10 UNK     1      18.207   4.171  32.147  1.00  0.00     0.089 A 
HETATM    8  C11 UNK     1      17.930   4.345  33.502  1.00  0.00     0.040 A 
HETATM    9  C12 UNK     1      19.115   4.903  29.994  1.00  0.00     0.020 A 
HETATM   10  C13 UNK     1      18.731   3.754  29.432  1.00  0.00     0.083 A 
HETATM   11  C14 UNK     1      18.040   2.702  30.201  1.00  0.00     0.288 A 
ENDROOT
BRANCH   3  12
HETATM   12  S1  UNK     1      19.451   8.007  34.178  1.00  0.00     0.258 S 
HETATM   13  O2  UNK     1      19.177   7.892  35.605  1.00  0.00    -0.201 OA
HETATM   14  O3  UNK     1      20.802   8.326  33.735  1.00  0.00    -0.201 OA
BRANCH  12  15
HETATM   15  N1  UNK     1      18.372   9.147  33.504  1.00  0.00    -0.313 N 
HETATM   16  H10 UNK     1      18.386   9.289  32.486  1.00  0.00     0.172 HD
BRANCH  15  17
HETATM   17  C4  UNK     1      17.098   9.436  34.176  1.00  0.00     0.164 C 
BRANCH  17  18
HETATM   18  C1  UNK     1      15.914   8.980  33.345  1.00  0.00     0.140 C 
HETATM   19  O1  UNK     1      16.339   8.707  31.999  1.00  0.00    -0.384 OA
HETATM   20  C5  UNK     1      15.687   7.509  31.551  1.00  0.00     0.168 C 
HETATM   21  C3  UNK     1      14.647   7.157  32.594  1.00  0.00     0.029 C 
HETATM   22  C2  UNK     1      15.272   7.702  33.854  1.00  0.00     0.035 C 
ENDBRANCH  17  18
ENDBRANCH  15  17
ENDBRANCH  12  15
ENDBRANCH   3  12
TORSDOF 4
ENDMDL
MODEL 6
REMARK VINA RESULT:      -7.6      1.857      2.595
REMARK  4 active torsions:
REMARK  status: ('A' for Active; 'I' for Inactive)
REMARK    1  A    between atoms: C6_13  and  S1_1 
REMARK    2  A    between atoms: N1_7  and  S1_1 
REMARK    3  A    between atoms: C4_11  and  N1_7 
REMARK    4  A    between atoms: C1_8  and  C4_11 
ROOT
HETATM    1  O4  UNK     1      18.703   0.615  30.417  1.00  0.00    -0.275 OA
HETATM    2  O5  UNK     1      18.890   1.121  28.190  1.00  0.00    -0.260 OA
HETATM    3  C6  UNK     1      19.783  -1.767  33.674  1.00  0.00     0.080 A 
HETATM    4  C7  UNK     1      20.341  -2.030  32.420  1.00  0.00     0.039 A 
HETATM    5  C8  UNK     1      18.875  -0.718  33.836  1.00  0.00     0.028 A 
HETATM    6  C9  UNK     1      19.990  -1.243  31.321  1.00  0.00    -0.001 A 
HETATM    7  C10 UNK     1      19.084  -0.202  31.501  1.00  0.00     0.089 A 
HETATM    8  C11 UNK     1      18.521   0.073  32.746  1.00  0.00     0.040 A 
HETATM    9  C12 UNK     1      20.539  -1.471  29.995  1.00  0.00     0.020 A 
HETATM   10  C13 UNK     1      20.175  -0.694  28.973  1.00  0.00     0.083 A 
HETATM   11  C14 UNK     1      19.216   0.415  29.139  1.00  0.00     0.288 A 
ENDROOT
BRANCH   3  12
HETATM   12  S1  UNK     1      20.223  -2.755  35.046  1.00  0.00     0.258 S 
HETATM   13  O2  UNK     1      20.345  -4.140  34.607  1.00  0.00    -0.201 OA
HETATM   14  O3  UNK     1      21.351  -2.116  35.710  1.00  0.00    -0.201 OA
BRANCH  12  15
HETATM   15  N1  UNK     1      18.849  -2.620  36.052  1.00  0.00    -0.313 N 
HETATM   16  H10 UNK     1      18.103  -3.321  35.956  1.00  0.00     0.172 HD
BRANCH  15  17
HETATM   17  C4  UNK     1      18.968  -1.985  37.373  1.00  0.00     0.164 C 
BRANCH  17  18
HETATM   18  C1  UNK     1      17.766  -1.113  37.680  1.00  0.00     0.140 C 
HETATM   19  O1  UNK     1      18.191   0.093  38.335  1.00  0.00    -0.384 OA
HETATM   20  C5  UNK     1      17.443   1.192  37.793  1.00  0.00     0.168 C 
HETATM   21  C3  UNK     1      16.356   0.600  36.923  1.00  0.00     0.029 C 
HETATM   22  C2  UNK     1      17.001  -0.676  36.442  1.00  0.00     0.035 C 
ENDBRANCH  17  18
ENDBRANCH  15  17
ENDBRANCH  12  15
ENDBRANCH   3  12
TORSDOF 4
ENDMDL
MODEL 7
REMARK VINA RESULT:      -7.5      3.865      5.495
REMARK  4 active torsions:
REMARK  status: ('A' for Active; 'I' for Inactive)
REMARK    1  A    between atoms: C6_13  and  S1_1 
REMARK    2  A    between atoms: N1_7  and  S1_1 
REMARK    3  A    between atoms: C4_11  and  N1_7 
REMARK    4  A    between atoms: C1_8  and  C4_11 
ROOT
HETATM    1  O4  UNK     1      18.783   0.049  31.988  1.00  0.00    -0.275 OA
HETATM    2  O5  UNK     1      19.195   0.554  29.792  1.00  0.00    -0.260 OA
HETATM    3  C6  UNK     1      19.551  -2.312  35.348  1.00  0.00     0.080 A 
HETATM    4  C7  UNK     1      20.241  -2.568  34.160  1.00  0.00     0.039 A 
HETATM    5  C8  UNK     1      18.616  -1.277  35.410  1.00  0.00     0.028 A 
HETATM    6  C9  UNK     1      19.996  -1.788  33.027  1.00  0.00    -0.001 A 
HETATM    7  C10 UNK     1      19.060  -0.760  33.108  1.00  0.00     0.089 A 
HETATM    8  C11 UNK     1      18.366  -0.493  34.287  1.00  0.00     0.040 A 
HETATM    9  C12 UNK     1      20.685  -2.010  31.767  1.00  0.00     0.020 A 
HETATM   10  C13 UNK     1      20.418  -1.239  30.710  1.00  0.00     0.083 A 
HETATM   11  C14 UNK     1      19.431  -0.145  30.772  1.00  0.00     0.288 A 
ENDROOT
BRANCH   3  12
HETATM   12  S1  UNK     1      19.860  -3.291  36.760  1.00  0.00     0.258 S 
HETATM   13  O2  UNK     1      21.178  -3.902  36.629  1.00  0.00    -0.201 OA
HETATM   14  O3  UNK     1      19.563  -2.483  37.935  1.00  0.00    -0.201 OA
BRANCH  12  15
HETATM   15  N1  UNK     1      18.676  -4.515  36.627  1.00  0.00    -0.313 N 
HETATM   16  H10 UNK     1      17.750  -4.261  36.259  1.00  0.00     0.172 HD
BRANCH  15  17
HETATM   17  C4  UNK     1      19.085  -5.912  36.424  1.00  0.00     0.164 C 
BRANCH  17  18
HETATM   18  C1  UNK     1      18.858  -6.744  37.671  1.00  0.00     0.140 C 
HETATM   19  O1  UNK     1      18.713  -8.130  37.315  1.00  0.00    -0.384 OA
HETATM   20  C5  UNK     1      19.432  -8.922  38.273  1.00  0.00     0.168 C 
HETATM   21  C3  UNK     1      19.851  -7.991  39.390  1.00  0.00     0.029 C 
HETATM   22  C2  UNK     1      20.008  -6.680  38.661  1.00  0.00     0.035 C 
ENDBRANCH  17  18
ENDBRANCH  15  17
ENDBRANCH  12  15
ENDBRANCH   3  12
TORSDOF 4
ENDMDL
MODEL 8
REMARK VINA RESULT:      -7.3      8.254     10.164
REMARK  4 active torsions:
REMARK  status: ('A' for Active; 'I' for Inactive)
REMARK    1  A    between atoms: C6_13  and  S1_1 
REMARK    2  A    between atoms: N1_7  and  S1_1 
REMARK    3  A    between atoms: C4_11  and  N1_7 
REMARK    4  A    between atoms: C1_8  and  C4_11 
ROOT
HETATM    1  O4  UNK     1      20.621   6.395  32.768  1.00  0.00    -0.275 OA
HETATM    2  O5  UNK     1      22.508   5.729  31.652  1.00  0.00    -0.260 OA
HETATM    3  C6  UNK     1      16.526   7.220  32.750  1.00  0.00     0.080 A 
HETATM    4  C7  UNK     1      17.143   6.794  31.571  1.00  0.00     0.039 A 
HETATM    5  C8  UNK     1      17.271   7.366  33.923  1.00  0.00     0.028 A 
HETATM    6  C9  UNK     1      18.511   6.514  31.560  1.00  0.00    -0.001 A 
HETATM    7  C10 UNK     1      19.238   6.666  32.738  1.00  0.00     0.089 A 
HETATM    8  C11 UNK     1      18.635   7.088  33.922  1.00  0.00     0.040 A 
HETATM    9  C12 UNK     1      19.203   6.070  30.363  1.00  0.00     0.020 A 
HETATM   10  C13 UNK     1      20.514   5.814  30.399  1.00  0.00     0.083 A 
HETATM   11  C14 UNK     1      21.304   5.967  31.634  1.00  0.00     0.288 A 
ENDROOT
BRANCH   3  12
HETATM   12  S1  UNK     1      14.815   7.570  32.759  1.00  0.00     0.258 S 
HETATM   13  O2  UNK     1      14.195   6.909  31.617  1.00  0.00    -0.201 OA
HETATM   14  O3  UNK     1      14.312   7.299  34.099  1.00  0.00    -0.201 OA
BRANCH  12  15
HETATM   15  N1  UNK     1      14.783   9.258  32.495  1.00  0.00    -0.313 N 
HETATM   16  H10 UNK     1      14.681   9.600  31.531  1.00  0.00     0.172 HD
BRANCH  15  17
HETATM   17  C4  UNK     1      14.290  10.155  33.551  1.00  0.00     0.164 C 
BRANCH  17  18
HETATM   18  C1  UNK     1      15.418  10.634  34.444  1.00  0.00     0.140 C 
HETATM   19  O1  UNK     1      16.628  10.760  33.678  1.00  0.00    -0.384 OA
HETATM   20  C5  UNK     1      17.296  11.966  34.080  1.00  0.00     0.168 C 
HETATM   21  C3  UNK     1      16.571  12.485  35.303  1.00  0.00     0.029 C 
HETATM   22  C2  UNK     1      15.164  11.998  35.062  1.00  0.00     0.035 C 
ENDBRANCH  17  18
ENDBRANCH  15  17
ENDBRANCH  12  15
ENDBRANCH   3  12
TORSDOF 4
ENDMDL
MODEL 9
REMARK VINA RESULT:      -7.3      3.932      5.520
REMARK  4 active torsions:
REMARK  status: ('A' for Active; 'I' for Inactive)
REMARK    1  A    between atoms: C6_13  and  S1_1 
REMARK    2  A    between atoms: N1_7  and  S1_1 
REMARK    3  A    between atoms: C4_11  and  N1_7 
REMARK    4  A    between atoms: C1_8  and  C4_11 
ROOT
HETATM    1  O4  UNK     1      18.610   7.324  31.829  1.00  0.00    -0.275 OA
HETATM    2  O5  UNK     1      18.248   8.913  33.441  1.00  0.00    -0.260 OA
HETATM    3  C6  UNK     1      18.639   3.312  30.666  1.00  0.00     0.080 A 
HETATM    4  C7  UNK     1      18.267   3.643  31.972  1.00  0.00     0.039 A 
HETATM    5  C8  UNK     1      18.996   4.313  29.760  1.00  0.00     0.028 A 
HETATM    6  C9  UNK     1      18.252   4.980  32.377  1.00  0.00    -0.001 A 
HETATM    7  C10 UNK     1      18.611   5.964  31.460  1.00  0.00     0.089 A 
HETATM    8  C11 UNK     1      18.983   5.649  30.154  1.00  0.00     0.040 A 
HETATM    9  C12 UNK     1      17.874   5.380  33.721  1.00  0.00     0.020 A 
HETATM   10  C13 UNK     1      17.874   6.671  34.064  1.00  0.00     0.083 A 
HETATM   11  C14 UNK     1      18.251   7.731  33.111  1.00  0.00     0.288 A 
ENDROOT
BRANCH   3  12
HETATM   12  S1  UNK     1      18.658   1.640  30.165  1.00  0.00     0.258 S 
HETATM   13  O2  UNK     1      17.428   1.355  29.435  1.00  0.00    -0.201 OA
HETATM   14  O3  UNK     1      19.941   1.381  29.527  1.00  0.00    -0.201 OA
BRANCH  12  15
HETATM   15  N1  UNK     1      18.612   0.808  31.657  1.00  0.00    -0.313 N 
HETATM   16  H10 UNK     1      17.862   1.037  32.321  1.00  0.00     0.172 HD
BRANCH  15  17
HETATM   17  C4  UNK     1      19.163  -0.551  31.755  1.00  0.00     0.164 C 
BRANCH  17  18
HETATM   18  C1  UNK     1      18.706  -1.246  33.023  1.00  0.00     0.140 C 
HETATM   19  O1  UNK     1      19.841  -1.781  33.724  1.00  0.00    -0.384 OA
HETATM   20  C5  UNK     1      19.663  -1.537  35.128  1.00  0.00     0.168 C 
HETATM   21  C3  UNK     1      18.251  -1.025  35.311  1.00  0.00     0.029 C 
HETATM   22  C2  UNK     1      18.000  -0.322  34.000  1.00  0.00     0.035 C 
ENDBRANCH  17  18
ENDBRANCH  15  17
ENDBRANCH  12  15
ENDBRANCH   3  12
TORSDOF 4
ENDMDL
MODEL 10
REMARK VINA RESULT:      -7.3      2.971      5.309
REMARK  4 active torsions:
REMARK  status: ('A' for Active; 'I' for Inactive)
REMARK    1  A    between atoms: C6_13  and  S1_1 
REMARK    2  A    between atoms: N1_7  and  S1_1 
REMARK    3  A    between atoms: C4_11  and  N1_7 
REMARK    4  A    between atoms: C1_8  and  C4_11 
ROOT
HETATM    1  O4  UNK     1      18.589   5.361  33.835  1.00  0.00    -0.275 OA
HETATM    2  O5  UNK     1      18.667   7.305  32.626  1.00  0.00    -0.260 OA
HETATM    3  C6  UNK     1      18.223   1.201  33.950  1.00  0.00     0.080 A 
HETATM    4  C7  UNK     1      18.184   1.857  32.717  1.00  0.00     0.039 A 
HETATM    5  C8  UNK     1      18.386   1.929  35.131  1.00  0.00     0.028 A 
HETATM    6  C9  UNK     1      18.305   3.248  32.661  1.00  0.00    -0.001 A 
HETATM    7  C10 UNK     1      18.465   3.957  33.849  1.00  0.00     0.089 A 
HETATM    8  C11 UNK     1      18.508   3.315  35.085  1.00  0.00     0.040 A 
HETATM    9  C12 UNK     1      18.270   3.980  31.407  1.00  0.00     0.020 A 
HETATM   10  C13 UNK     1      18.389   5.310  31.402  1.00  0.00     0.083 A 
HETATM   11  C14 UNK     1      18.560   6.083  32.647  1.00  0.00     0.288 A 
ENDROOT
BRANCH   3  12
HETATM   12  S1  UNK     1      18.071  -0.538  34.015  1.00  0.00     0.258 S 
HETATM   13  O2  UNK     1      19.098  -1.066  34.905  1.00  0.00    -0.201 OA
HETATM   14  O3  UNK     1      16.672  -0.852  34.275  1.00  0.00    -0.201 OA
BRANCH  12  15
HETATM   15  N1  UNK     1      18.445  -1.000  32.413  1.00  0.00    -0.313 N 
HETATM   16  H10 UNK     1      18.147  -0.386  31.645  1.00  0.00     0.172 HD
BRANCH  15  17
HETATM   17  C4  UNK     1      19.629  -1.831  32.149  1.00  0.00     0.164 C 
BRANCH  17  18
HETATM   18  C1  UNK     1      20.418  -1.312  30.962  1.00  0.00     0.140 C 
HETATM   19  O1  UNK     1      20.088  -2.070  29.786  1.00  0.00    -0.384 OA
HETATM   20  C5  UNK     1      19.970  -1.163  28.680  1.00  0.00     0.168 C 
HETATM   21  C3  UNK     1      20.467   0.184  29.159  1.00  0.00     0.029 C 
HETATM   22  C2  UNK     1      20.124   0.140  30.627  1.00  0.00     0.035 C 
ENDBRANCH  17  18
ENDBRANCH  15  17
ENDBRANCH  12  15
ENDBRANCH   3  12
TORSDOF 4
ENDMDL
