MODEL 1
REMARK VINA RESULT:      -8.2      0.000      0.000
REMARK  7 active torsions:
REMARK  status: ('A' for Active; 'I' for Inactive)
REMARK    1  A    between atoms: C19_24  and  O3_3 
REMARK    2  A    between atoms: C21_26  and  O3_3 
REMARK    3  A    between atoms: C1_6  and  N1_5 
REMARK    4  A    between atoms: C6_11  and  N1_5 
REMARK    5  A    between atoms: C7_12  and  N1_5 
REMARK    6  A    between atoms: C6_11  and  C8_13 
REMARK    7  A    between atoms: C7_12  and  C9_14 
ROOT
HETATM    1  O2  UNK     1      20.893  -2.814  30.604  1.00  0.00    -0.275 OA
HETATM    2  O4  UNK     1      21.515  -4.501  32.016  1.00  0.00    -0.260 OA
HETATM    3  C8  UNK     1      19.810  -1.471  32.846  1.00  0.00    -0.011 A 
HETATM    4  C10 UNK     1      19.731  -0.865  31.510  1.00  0.00     0.009 A 
HETATM    5  C11 UNK     1      20.401  -2.665  32.984  1.00  0.00     0.092 A 
HETATM    6  C13 UNK     1      20.277  -1.559  30.428  1.00  0.00     0.090 A 
HETATM    7  C14 UNK     1      19.139   0.378  31.252  1.00  0.00     0.051 A 
HETATM    8  C15 UNK     1      20.982  -3.410  31.853  1.00  0.00     0.288 A 
HETATM    9  C18 UNK     1      20.245  -1.056  29.127  1.00  0.00     0.041 A 
HETATM   10  C19 UNK     1      19.100   0.896  29.952  1.00  0.00     0.069 A 
HETATM   11  C20 UNK     1      19.652   0.180  28.891  1.00  0.00     0.039 A 
ENDROOT
BRANCH   3  12
HETATM   12  C6  UNK     1      19.233  -0.750  34.030  1.00  0.00     0.313 C 
BRANCH  12  13
HETATM   13  N1  UNK     1      18.833  -1.672  35.079  1.00  0.00     0.103 N 
BRANCH  13  14
HETATM   14  C1  UNK     1      17.600  -1.233  35.708  1.00  0.00     0.224 C 
HETATM   15  C2  UNK     1      17.816  -0.089  36.692  1.00  0.00     0.036 C 
HETATM   16  C4  UNK     1      16.417   0.496  36.875  1.00  0.00     0.002 C 
HETATM   17  C5  UNK     1      15.644   0.149  35.600  1.00  0.00     0.002 C 
HETATM   18  C3  UNK     1      16.615  -0.628  34.715  1.00  0.00     0.036 C 
ENDBRANCH  13  14
BRANCH  13  19
HETATM   19  C7  UNK     1      19.891  -1.807  36.084  1.00  0.00     0.337 C 
BRANCH  19  20
HETATM   20  C9  UNK     1      20.098  -3.242  36.491  1.00  0.00     0.081 A 
HETATM   21  C12 UNK     1      19.599  -4.401  36.006  1.00  0.00     0.036 A 
HETATM   22  C16 UNK     1      20.172  -5.412  36.813  1.00  0.00     0.027 A 
HETATM   23  C17 UNK     1      20.974  -4.765  37.723  1.00  0.00     0.142 A 
HETATM   24  O1  UNK     1      20.932  -3.421  37.528  1.00  0.00    -0.325 OA
ENDBRANCH  19  20
ENDBRANCH  13  19
ENDBRANCH  12  13
ENDBRANCH   3  12
BRANCH  10  25
HETATM   25  O3  UNK     1      18.519   2.107  29.722  1.00  0.00    -0.351 OA
BRANCH  25  26
HETATM   26  C21 UNK     1      18.391   2.986  30.838  1.00  0.00     0.171 C 
HETATM   27  C22 UNK     1      19.048   4.308  30.501  1.00  0.00     0.034 C 
ENDBRANCH  25  26
ENDBRANCH  10  25
TORSDOF 7
ENDMDL
MODEL 2
REMARK VINA RESULT:      -8.2     25.015     27.089
REMARK  7 active torsions:
REMARK  status: ('A' for Active; 'I' for Inactive)
REMARK    1  A    between atoms: C19_24  and  O3_3 
REMARK    2  A    between atoms: C21_26  and  O3_3 
REMARK    3  A    between atoms: C1_6  and  N1_5 
REMARK    4  A    between atoms: C6_11  and  N1_5 
REMARK    5  A    between atoms: C7_12  and  N1_5 
REMARK    6  A    between atoms: C6_11  and  C8_13 
REMARK    7  A    between atoms: C7_12  and  C9_14 
ROOT
HETATM    1  O2  UNK     1      16.355   6.289  10.014  1.00  0.00    -0.275 OA
HETATM    2  O4  UNK     1      15.538   4.162   9.823  1.00  0.00    -0.260 OA
HETATM    3  C8  UNK     1      14.013   7.198   8.711  1.00  0.00    -0.011 A 
HETATM    4  C10 UNK     1      15.043   8.155   9.139  1.00  0.00     0.009 A 
HETATM    5  C11 UNK     1      14.201   5.893   8.949  1.00  0.00     0.092 A 
HETATM    6  C13 UNK     1      16.184   7.668   9.777  1.00  0.00     0.090 A 
HETATM    7  C14 UNK     1      14.948   9.539   8.943  1.00  0.00     0.051 A 
HETATM    8  C15 UNK     1      15.399   5.363   9.622  1.00  0.00     0.288 A 
HETATM    9  C18 UNK     1      17.210   8.507  10.216  1.00  0.00     0.041 A 
HETATM   10  C19 UNK     1      15.968  10.394   9.378  1.00  0.00     0.069 A 
HETATM   11  C20 UNK     1      17.097   9.879  10.012  1.00  0.00     0.039 A 
ENDROOT
BRANCH   3  12
HETATM   12  C6  UNK     1      12.774   7.690   8.022  1.00  0.00     0.313 C 
BRANCH  12  13
HETATM   13  N1  UNK     1      11.585   7.467   8.828  1.00  0.00     0.103 N 
BRANCH  13  14
HETATM   14  C1  UNK     1      10.646   6.604   8.134  1.00  0.00     0.224 C 
HETATM   15  C2  UNK     1       9.195   7.013   8.355  1.00  0.00     0.036 C 
HETATM   16  C4  UNK     1       8.446   6.305   7.229  1.00  0.00     0.002 C 
HETATM   17  C5  UNK     1       9.469   6.096   6.108  1.00  0.00     0.002 C 
HETATM   18  C3  UNK     1      10.781   6.686   6.618  1.00  0.00     0.036 C 
ENDBRANCH  13  14
BRANCH  13  19
HETATM   19  C7  UNK     1      10.942   8.740   9.167  1.00  0.00     0.337 C 
BRANCH  19  20
HETATM   20  C9  UNK     1      11.673   9.461  10.269  1.00  0.00     0.081 A 
HETATM   21  C12 UNK     1      11.918  10.772  10.484  1.00  0.00     0.036 A 
HETATM   22  C16 UNK     1      12.653  10.814  11.692  1.00  0.00     0.027 A 
HETATM   23  C17 UNK     1      12.788   9.509  12.103  1.00  0.00     0.142 A 
HETATM   24  O1  UNK     1      12.182   8.667  11.224  1.00  0.00    -0.325 OA
ENDBRANCH  19  20
ENDBRANCH  13  19
ENDBRANCH  12  13
ENDBRANCH   3  12
BRANCH  10  25
HETATM   25  O3  UNK     1      15.857  11.737   9.178  1.00  0.00    -0.351 OA
BRANCH  25  26
HETATM   26  C21 UNK     1      15.745  12.184   7.828  1.00  0.00     0.171 C 
HETATM   27  C22 UNK     1      17.125  12.219   7.205  1.00  0.00     0.034 C 
ENDBRANCH  25  26
ENDBRANCH  10  25
TORSDOF 7
ENDMDL
MODEL 3
REMARK VINA RESULT:      -7.9     10.898     13.309
REMARK  7 active torsions:
REMARK  status: ('A' for Active; 'I' for Inactive)
REMARK    1  A    between atoms: C19_24  and  O3_3 
REMARK    2  A    between atoms: C21_26  and  O3_3 
REMARK    3  A    between atoms: C1_6  and  N1_5 
REMARK    4  A    between atoms: C6_11  and  N1_5 
REMARK    5  A    between atoms: C7_12  and  N1_5 
REMARK    6  A    between atoms: C6_11  and  C8_13 
REMARK    7  A    between atoms: C7_12  and  C9_14 
ROOT
HETATM    1  O2  UNK     1      30.780  -3.731  38.030  1.00  0.00    -0.275 OA
HETATM    2  O4  UNK     1      29.436  -3.801  39.879  1.00  0.00    -0.260 OA
HETATM    3  C8  UNK     1      30.290  -6.497  37.693  1.00  0.00    -0.011 A 
HETATM    4  C10 UNK     1      31.156  -5.777  36.749  1.00  0.00     0.009 A 
HETATM    5  C11 UNK     1      29.738  -5.824  38.711  1.00  0.00     0.092 A 
HETATM    6  C13 UNK     1      31.374  -4.414  36.950  1.00  0.00     0.090 A 
HETATM    7  C14 UNK     1      31.781  -6.381  35.651  1.00  0.00     0.051 A 
HETATM    8  C15 UNK     1      29.957  -4.385  38.936  1.00  0.00     0.288 A 
HETATM    9  C18 UNK     1      32.181  -3.655  36.101  1.00  0.00     0.041 A 
HETATM   10  C19 UNK     1      32.593  -5.633  34.790  1.00  0.00     0.069 A 
HETATM   11  C20 UNK     1      32.794  -4.273  35.016  1.00  0.00     0.039 A 
ENDROOT
BRANCH   3  12
HETATM   12  C6  UNK     1      30.035  -7.965  37.506  1.00  0.00     0.313 C 
BRANCH  12  13
HETATM   13  N1  UNK     1      28.756  -8.211  36.861  1.00  0.00     0.103 N 
BRANCH  13  14
HETATM   14  C1  UNK     1      27.901  -9.024  37.706  1.00  0.00     0.224 C 
HETATM   15  C2  UNK     1      28.637  -9.602  38.909  1.00  0.00     0.036 C 
HETATM   16  C4  UNK     1      27.513 -10.009  39.857  1.00  0.00     0.002 C 
HETATM   17  C5  UNK     1      26.319  -9.117  39.506  1.00  0.00     0.002 C 
HETATM   18  C3  UNK     1      26.785  -8.220  38.362  1.00  0.00     0.036 C 
ENDBRANCH  13  14
BRANCH  13  19
HETATM   19  C7  UNK     1      28.947  -8.863  35.562  1.00  0.00     0.337 C 
BRANCH  19  20
HETATM   20  C9  UNK     1      28.574  -7.956  34.419  1.00  0.00     0.081 A 
HETATM   21  C12 UNK     1      28.313  -6.631  34.364  1.00  0.00     0.036 A 
HETATM   22  C16 UNK     1      28.025  -6.371  33.004  1.00  0.00     0.027 A 
HETATM   23  C17 UNK     1      28.138  -7.576  32.352  1.00  0.00     0.142 A 
HETATM   24  O1  UNK     1      28.478  -8.561  33.224  1.00  0.00    -0.325 OA
ENDBRANCH  19  20
ENDBRANCH  13  19
ENDBRANCH  12  13
ENDBRANCH   3  12
BRANCH  10  25
HETATM   25  O3  UNK     1      33.193  -6.239  33.727  1.00  0.00    -0.351 OA
BRANCH  25  26
HETATM   26  C21 UNK     1      32.545  -7.390  33.187  1.00  0.00     0.171 C 
HETATM   27  C22 UNK     1      31.736  -6.976  31.976  1.00  0.00     0.034 C 
ENDBRANCH  25  26
ENDBRANCH  10  25
TORSDOF 7
ENDMDL
MODEL 4
REMARK VINA RESULT:      -7.8      4.264      7.762
REMARK  7 active torsions:
REMARK  status: ('A' for Active; 'I' for Inactive)
REMARK    1  A    between atoms: C19_24  and  O3_3 
REMARK    2  A    between atoms: C21_26  and  O3_3 
REMARK    3  A    between atoms: C1_6  and  N1_5 
REMARK    4  A    between atoms: C6_11  and  N1_5 
REMARK    5  A    between atoms: C7_12  and  N1_5 
REMARK    6  A    between atoms: C6_11  and  C8_13 
REMARK    7  A    between atoms: C7_12  and  C9_14 
ROOT
HETATM    1  O2  UNK     1      20.461   7.295  33.414  1.00  0.00    -0.275 OA
HETATM    2  O4  UNK     1      22.331   6.354  32.493  1.00  0.00    -0.260 OA
HETATM    3  C8  UNK     1      18.945   5.252  32.177  1.00  0.00    -0.011 A 
HETATM    4  C10 UNK     1      18.281   6.276  32.993  1.00  0.00     0.009 A 
HETATM    5  C11 UNK     1      20.277   5.301  32.030  1.00  0.00     0.092 A 
HETATM    6  C13 UNK     1      19.063   7.268  33.587  1.00  0.00     0.090 A 
HETATM    7  C14 UNK     1      16.899   6.319  33.216  1.00  0.00     0.051 A 
HETATM    8  C15 UNK     1      21.115   6.340  32.650  1.00  0.00     0.288 A 
HETATM    9  C18 UNK     1      18.513   8.278  34.378  1.00  0.00     0.041 A 
HETATM   10  C19 UNK     1      16.332   7.325  34.007  1.00  0.00     0.069 A 
HETATM   11  C20 UNK     1      17.138   8.303  34.586  1.00  0.00     0.039 A 
ENDROOT
BRANCH   3  12
HETATM   12  C6  UNK     1      18.133   4.171  31.524  1.00  0.00     0.313 C 
BRANCH  12  13
HETATM   13  N1  UNK     1      18.747   2.863  31.687  1.00  0.00     0.103 N 
BRANCH  13  14
HETATM   14  C1  UNK     1      19.084   2.288  30.397  1.00  0.00     0.224 C 
HETATM   15  C2  UNK     1      19.579   0.851  30.504  1.00  0.00     0.036 C 
HETATM   16  C4  UNK     1      19.439   0.316  29.081  1.00  0.00     0.002 C 
HETATM   17  C5  UNK     1      18.338   1.152  28.422  1.00  0.00     0.002 C 
HETATM   18  C3  UNK     1      17.875   2.149  29.481  1.00  0.00     0.036 C 
ENDBRANCH  13  14
BRANCH  13  19
HETATM   19  C7  UNK     1      17.858   1.960  32.424  1.00  0.00     0.337 C 
BRANCH  19  20
HETATM   20  C9  UNK     1      18.283   1.802  33.860  1.00  0.00     0.081 A 
HETATM   21  C12 UNK     1      18.427   2.695  34.864  1.00  0.00     0.036 A 
HETATM   22  C16 UNK     1      18.855   1.930  35.974  1.00  0.00     0.027 A 
HETATM   23  C17 UNK     1      18.932   0.630  35.536  1.00  0.00     0.142 A 
HETATM   24  O1  UNK     1      18.579   0.545  34.227  1.00  0.00    -0.325 OA
ENDBRANCH  19  20
ENDBRANCH  13  19
ENDBRANCH  12  13
ENDBRANCH   3  12
BRANCH  10  25
HETATM   25  O3  UNK     1      14.985   7.349  34.211  1.00  0.00    -0.351 OA
BRANCH  25  26
HETATM   26  C21 UNK     1      14.210   8.153  33.323  1.00  0.00     0.171 C 
HETATM   27  C22 UNK     1      13.584   7.262  32.270  1.00  0.00     0.034 C 
ENDBRANCH  25  26
ENDBRANCH  10  25
TORSDOF 7
ENDMDL
MODEL 5
REMARK VINA RESULT:      -7.6      2.576      5.904
REMARK  7 active torsions:
REMARK  status: ('A' for Active; 'I' for Inactive)
REMARK    1  A    between atoms: C19_24  and  O3_3 
REMARK    2  A    between atoms: C21_26  and  O3_3 
REMARK    3  A    between atoms: C1_6  and  N1_5 
REMARK    4  A    between atoms: C6_11  and  N1_5 
REMARK    5  A    between atoms: C7_12  and  N1_5 
REMARK    6  A    between atoms: C6_11  and  C8_13 
REMARK    7  A    between atoms: C7_12  and  C9_14 
ROOT
HETATM    1  O2  UNK     1      17.933  -0.652  36.103  1.00  0.00    -0.275 OA
HETATM    2  O4  UNK     1      17.426  -0.748  38.331  1.00  0.00    -0.260 OA
HETATM    3  C8  UNK     1      19.767  -2.763  36.531  1.00  0.00    -0.011 A 
HETATM    4  C10 UNK     1      19.596  -2.190  35.189  1.00  0.00     0.009 A 
HETATM    5  C11 UNK     1      19.041  -2.271  37.545  1.00  0.00     0.092 A 
HETATM    6  C13 UNK     1      18.682  -1.149  35.019  1.00  0.00     0.090 A 
HETATM    7  C14 UNK     1      20.300  -2.628  34.060  1.00  0.00     0.051 A 
HETATM    8  C15 UNK     1      18.072  -1.174  37.381  1.00  0.00     0.288 A 
HETATM    9  C18 UNK     1      18.458  -0.549  33.779  1.00  0.00     0.041 A 
HETATM   10  C19 UNK     1      20.086  -2.037  32.809  1.00  0.00     0.069 A 
HETATM   11  C20 UNK     1      19.167  -0.998  32.670  1.00  0.00     0.039 A 
ENDROOT
BRANCH   3  12
HETATM   12  C6  UNK     1      20.742  -3.884  36.749  1.00  0.00     0.313 C 
BRANCH  12  13
HETATM   13  N1  UNK     1      20.081  -5.087  37.227  1.00  0.00     0.103 N 
BRANCH  13  14
HETATM   14  C1  UNK     1      20.797  -5.653  38.356  1.00  0.00     0.224 C 
HETATM   15  C2  UNK     1      20.640  -7.165  38.456  1.00  0.00     0.036 C 
HETATM   16  C4  UNK     1      21.784  -7.586  39.376  1.00  0.00     0.002 C 
HETATM   17  C5  UNK     1      22.860  -6.506  39.233  1.00  0.00     0.002 C 
HETATM   18  C3  UNK     1      22.308  -5.489  38.237  1.00  0.00     0.036 C 
ENDBRANCH  13  14
BRANCH  13  19
HETATM   19  C7  UNK     1      19.968  -6.079  36.154  1.00  0.00     0.337 C 
BRANCH  19  20
HETATM   20  C9  UNK     1      18.539  -6.492  35.921  1.00  0.00     0.081 A 
HETATM   21  C12 UNK     1      17.377  -6.079  36.474  1.00  0.00     0.036 A 
HETATM   22  C16 UNK     1      16.375  -6.847  35.835  1.00  0.00     0.027 A 
HETATM   23  C17 UNK     1      17.029  -7.664  34.944  1.00  0.00     0.142 A 
HETATM   24  O1  UNK     1      18.370  -7.448  34.993  1.00  0.00    -0.325 OA
ENDBRANCH  19  20
ENDBRANCH  13  19
ENDBRANCH  12  13
ENDBRANCH   3  12
BRANCH  10  25
HETATM   25  O3  UNK     1      20.781  -2.478  31.724  1.00  0.00    -0.351 OA
BRANCH  25  26
HETATM   26  C21 UNK     1      20.134  -2.378  30.456  1.00  0.00     0.171 C 
HETATM   27  C22 UNK     1      20.791  -1.274  29.654  1.00  0.00     0.034 C 
ENDBRANCH  25  26
ENDBRANCH  10  25
TORSDOF 7
ENDMDL
MODEL 6
REMARK VINA RESULT:      -7.5     11.763     13.981
REMARK  7 active torsions:
REMARK  status: ('A' for Active; 'I' for Inactive)
REMARK    1  A    between atoms: C19_24  and  O3_3 
REMARK    2  A    between atoms: C21_26  and  O3_3 
REMARK    3  A    between atoms: C1_6  and  N1_5 
REMARK    4  A    between atoms: C6_11  and  N1_5 
REMARK    5  A    between atoms: C7_12  and  N1_5 
REMARK    6  A    between atoms: C6_11  and  C8_13 
REMARK    7  A    between atoms: C7_12  and  C9_14 
ROOT
HETATM    1  O2  UNK     1      31.400  -4.830  38.919  1.00  0.00    -0.275 OA
HETATM    2  O4  UNK     1      29.569  -3.780  39.797  1.00  0.00    -0.260 OA
HETATM    3  C8  UNK     1      29.696  -5.937  36.951  1.00  0.00    -0.011 A 
HETATM    4  C10 UNK     1      31.132  -6.247  36.947  1.00  0.00     0.009 A 
HETATM    5  C11 UNK     1      29.209  -5.123  37.898  1.00  0.00     0.092 A 
HETATM    6  C13 UNK     1      31.940  -5.682  37.935  1.00  0.00     0.090 A 
HETATM    7  C14 UNK     1      31.746  -7.081  36.004  1.00  0.00     0.051 A 
HETATM    8  C15 UNK     1      30.048  -4.519  38.946  1.00  0.00     0.288 A 
HETATM    9  C18 UNK     1      33.313  -5.923  38.004  1.00  0.00     0.041 A 
HETATM   10  C19 UNK     1      33.122  -7.333  36.060  1.00  0.00     0.069 A 
HETATM   11  C20 UNK     1      33.904  -6.755  37.059  1.00  0.00     0.039 A 
ENDROOT
BRANCH   3  12
HETATM   12  C6  UNK     1      28.799  -6.529  35.901  1.00  0.00     0.313 C 
BRANCH  12  13
HETATM   13  N1  UNK     1      28.456  -7.908  36.202  1.00  0.00     0.103 N 
BRANCH  13  14
HETATM   14  C1  UNK     1      28.289  -8.676  34.981  1.00  0.00     0.224 C 
HETATM   15  C2  UNK     1      28.672  -7.889  33.733  1.00  0.00     0.036 C 
HETATM   16  C4  UNK     1      28.858  -8.969  32.670  1.00  0.00     0.002 C 
HETATM   17  C5  UNK     1      29.215 -10.251  33.428  1.00  0.00     0.002 C 
HETATM   18  C3  UNK     1      29.223  -9.878  34.909  1.00  0.00     0.036 C 
ENDBRANCH  13  14
BRANCH  13  19
HETATM   19  C7  UNK     1      27.235  -7.976  37.010  1.00  0.00     0.337 C 
BRANCH  19  20
HETATM   20  C9  UNK     1      27.427  -8.815  38.246  1.00  0.00     0.081 A 
HETATM   21  C12 UNK     1      26.595  -9.129  39.264  1.00  0.00     0.036 A 
HETATM   22  C16 UNK     1      27.361  -9.953  40.121  1.00  0.00     0.027 A 
HETATM   23  C17 UNK     1      28.600 -10.065  39.538  1.00  0.00     0.142 A 
HETATM   24  O1  UNK     1      28.646  -9.362  38.376  1.00  0.00    -0.325 OA
ENDBRANCH  19  20
ENDBRANCH  13  19
ENDBRANCH  12  13
ENDBRANCH   3  12
BRANCH  10  25
HETATM   25  O3  UNK     1      33.700  -8.148  35.134  1.00  0.00    -0.351 OA
BRANCH  25  26
HETATM   26  C21 UNK     1      32.890  -9.190  34.593  1.00  0.00     0.171 C 
HETATM   27  C22 UNK     1      32.793  -9.011  33.093  1.00  0.00     0.034 C 
ENDBRANCH  25  26
ENDBRANCH  10  25
TORSDOF 7
ENDMDL
MODEL 7
REMARK VINA RESULT:      -7.5      2.311      4.963
REMARK  7 active torsions:
REMARK  status: ('A' for Active; 'I' for Inactive)
REMARK    1  A    between atoms: C19_24  and  O3_3 
REMARK    2  A    between atoms: C21_26  and  O3_3 
REMARK    3  A    between atoms: C1_6  and  N1_5 
REMARK    4  A    between atoms: C6_11  and  N1_5 
REMARK    5  A    between atoms: C7_12  and  N1_5 
REMARK    6  A    between atoms: C6_11  and  C8_13 
REMARK    7  A    between atoms: C7_12  and  C9_14 
ROOT
HETATM    1  O2  UNK     1      18.201   2.330  35.981  1.00  0.00    -0.275 OA
HETATM    2  O4  UNK     1      18.250   0.830  37.706  1.00  0.00    -0.260 OA
HETATM    3  C8  UNK     1      18.294   0.133  34.201  1.00  0.00    -0.011 A 
HETATM    4  C10 UNK     1      18.244   1.506  33.681  1.00  0.00     0.009 A 
HETATM    5  C11 UNK     1      18.295  -0.060  35.527  1.00  0.00     0.092 A 
HETATM    6  C13 UNK     1      18.199   2.563  34.592  1.00  0.00     0.090 A 
HETATM    7  C14 UNK     1      18.236   1.823  32.317  1.00  0.00     0.051 A 
HETATM    8  C15 UNK     1      18.248   1.044  36.500  1.00  0.00     0.288 A 
HETATM    9  C18 UNK     1      18.149   3.898  34.184  1.00  0.00     0.041 A 
HETATM   10  C19 UNK     1      18.185   3.156  31.892  1.00  0.00     0.069 A 
HETATM   11  C20 UNK     1      18.143   4.191  32.824  1.00  0.00     0.039 A 
ENDROOT
BRANCH   3  12
HETATM   12  C6  UNK     1      18.342  -1.027  33.248  1.00  0.00     0.313 C 
BRANCH  12  13
HETATM   13  N1  UNK     1      19.675  -1.221  32.703  1.00  0.00     0.103 N 
BRANCH  13  14
HETATM   14  C1  UNK     1      19.676  -1.032  31.264  1.00  0.00     0.224 C 
HETATM   15  C2  UNK     1      20.816  -0.140  30.787  1.00  0.00     0.036 C 
HETATM   16  C4  UNK     1      20.904  -0.438  29.292  1.00  0.00     0.002 C 
HETATM   17  C5  UNK     1      20.336  -1.848  29.108  1.00  0.00     0.002 C 
HETATM   18  C3  UNK     1      19.933  -2.325  30.500  1.00  0.00     0.036 C 
ENDBRANCH  13  14
BRANCH  13  19
HETATM   19  C7  UNK     1      20.184  -2.555  33.036  1.00  0.00     0.337 C 
BRANCH  19  20
HETATM   20  C9  UNK     1      20.320  -2.748  34.523  1.00  0.00     0.081 A 
HETATM   21  C12 UNK     1      19.716  -3.597  35.383  1.00  0.00     0.036 A 
HETATM   22  C16 UNK     1      20.268  -3.290  36.649  1.00  0.00     0.027 A 
HETATM   23  C17 UNK     1      21.166  -2.272  36.437  1.00  0.00     0.142 A 
HETATM   24  O1  UNK     1      21.202  -1.932  35.122  1.00  0.00    -0.325 OA
ENDBRANCH  19  20
ENDBRANCH  13  19
ENDBRANCH  12  13
ENDBRANCH   3  12
BRANCH  10  25
HETATM   25  O3  UNK     1      18.179   3.443  30.560  1.00  0.00    -0.351 OA
BRANCH  25  26
HETATM   26  C21 UNK     1      18.861   2.533  29.698  1.00  0.00     0.171 C 
HETATM   27  C22 UNK     1      17.875   1.973  28.694  1.00  0.00     0.034 C 
ENDBRANCH  25  26
ENDBRANCH  10  25
TORSDOF 7
ENDMDL
MODEL 8
REMARK VINA RESULT:      -7.4     11.165     13.627
REMARK  7 active torsions:
REMARK  status: ('A' for Active; 'I' for Inactive)
REMARK    1  A    between atoms: C19_24  and  O3_3 
REMARK    2  A    between atoms: C21_26  and  O3_3 
REMARK    3  A    between atoms: C1_6  and  N1_5 
REMARK    4  A    between atoms: C6_11  and  N1_5 
REMARK    5  A    between atoms: C7_12  and  N1_5 
REMARK    6  A    between atoms: C6_11  and  C8_13 
REMARK    7  A    between atoms: C7_12  and  C9_14 
ROOT
HETATM    1  O2  UNK     1      28.799  -6.134  39.238  1.00  0.00    -0.275 OA
HETATM    2  O4  UNK     1      30.076  -4.278  38.850  1.00  0.00    -0.260 OA
HETATM    3  C8  UNK     1      29.274  -6.900  36.556  1.00  0.00    -0.011 A 
HETATM    4  C10 UNK     1      28.449  -7.742  37.433  1.00  0.00     0.009 A 
HETATM    5  C11 UNK     1      29.797  -5.768  37.048  1.00  0.00     0.092 A 
HETATM    6  C13 UNK     1      28.237  -7.330  38.749  1.00  0.00     0.090 A 
HETATM    7  C14 UNK     1      27.857  -8.944  37.025  1.00  0.00     0.051 A 
HETATM    8  C15 UNK     1      29.583  -5.320  38.434  1.00  0.00     0.288 A 
HETATM    9  C18 UNK     1      27.467  -8.071  39.648  1.00  0.00     0.041 A 
HETATM   10  C19 UNK     1      27.082  -9.699  37.914  1.00  0.00     0.069 A 
HETATM   11  C20 UNK     1      26.887  -9.262  39.223  1.00  0.00     0.039 A 
ENDROOT
BRANCH   3  12
HETATM   12  C6  UNK     1      29.521  -7.315  35.135  1.00  0.00     0.313 C 
BRANCH  12  13
HETATM   13  N1  UNK     1      29.874  -6.181  34.297  1.00  0.00     0.103 N 
BRANCH  13  14
HETATM   14  C1  UNK     1      28.897  -5.999  33.238  1.00  0.00     0.224 C 
HETATM   15  C2  UNK     1      29.528  -5.555  31.924  1.00  0.00     0.036 C 
HETATM   16  C4  UNK     1      28.450  -5.861  30.886  1.00  0.00     0.002 C 
HETATM   17  C5  UNK     1      27.599  -6.986  31.480  1.00  0.00     0.002 C 
HETATM   18  C3  UNK     1      28.207  -7.300  32.845  1.00  0.00     0.036 C 
ENDBRANCH  13  14
BRANCH  13  19
HETATM   19  C7  UNK     1      31.212  -6.355  33.723  1.00  0.00     0.337 C 
BRANCH  19  20
HETATM   20  C9  UNK     1      32.270  -5.677  34.552  1.00  0.00     0.081 A 
HETATM   21  C12 UNK     1      32.646  -4.383  34.656  1.00  0.00     0.036 A 
HETATM   22  C16 UNK     1      33.698  -4.382  35.602  1.00  0.00     0.027 A 
HETATM   23  C17 UNK     1      33.865  -5.691  35.988  1.00  0.00     0.142 A 
HETATM   24  O1  UNK     1      32.984  -6.497  35.341  1.00  0.00    -0.325 OA
ENDBRANCH  19  20
ENDBRANCH  13  19
ENDBRANCH  12  13
ENDBRANCH   3  12
BRANCH  10  25
HETATM   25  O3  UNK     1      26.515 -10.865  37.498  1.00  0.00    -0.351 OA
BRANCH  25  26
HETATM   26  C21 UNK     1      25.650 -10.797  36.365  1.00  0.00     0.171 C 
HETATM   27  C22 UNK     1      25.026 -12.158  36.139  1.00  0.00     0.034 C 
ENDBRANCH  25  26
ENDBRANCH  10  25
TORSDOF 7
ENDMDL
MODEL 9
REMARK VINA RESULT:      -7.4     10.585     13.347
REMARK  7 active torsions:
REMARK  status: ('A' for Active; 'I' for Inactive)
REMARK    1  A    between atoms: C19_24  and  O3_3 
REMARK    2  A    between atoms: C21_26  and  O3_3 
REMARK    3  A    between atoms: C1_6  and  N1_5 
REMARK    4  A    between atoms: C6_11  and  N1_5 
REMARK    5  A    between atoms: C7_12  and  N1_5 
REMARK    6  A    between atoms: C6_11  and  C8_13 
REMARK    7  A    between atoms: C7_12  and  C9_14 
ROOT
HETATM    1  O2  UNK     1      33.696  -7.605  35.865  1.00  0.00    -0.275 OA
HETATM    2  O4  UNK     1      34.305  -8.992  34.152  1.00  0.00    -0.260 OA
HETATM    3  C8  UNK     1      31.579  -6.681  34.230  1.00  0.00    -0.011 A 
HETATM    4  C10 UNK     1      31.762  -6.139  35.584  1.00  0.00     0.009 A 
HETATM    5  C11 UNK     1      32.429  -7.618  33.786  1.00  0.00     0.092 A 
HETATM    6  C13 UNK     1      32.818  -6.620  36.359  1.00  0.00     0.090 A 
HETATM    7  C14 UNK     1      30.933  -5.162  36.149  1.00  0.00     0.051 A 
HETATM    8  C15 UNK     1      33.547  -8.135  34.592  1.00  0.00     0.288 A 
HETATM    9  C18 UNK     1      33.063  -6.160  37.654  1.00  0.00     0.041 A 
HETATM   10  C19 UNK     1      31.165  -4.690  37.447  1.00  0.00     0.069 A 
HETATM   11  C20 UNK     1      32.228  -5.188  38.197  1.00  0.00     0.039 A 
ENDROOT
BRANCH   3  12
HETATM   12  C6  UNK     1      30.453  -6.186  33.371  1.00  0.00     0.313 C 
BRANCH  12  13
HETATM   13  N1  UNK     1      29.346  -7.127  33.339  1.00  0.00     0.103 N 
BRANCH  13  14
HETATM   14  C1  UNK     1      28.833  -7.273  31.988  1.00  0.00     0.224 C 
HETATM   15  C2  UNK     1      28.474  -8.714  31.647  1.00  0.00     0.036 C 
HETATM   16  C4  UNK     1      27.570  -8.579  30.424  1.00  0.00     0.002 C 
HETATM   17  C5  UNK     1      26.946  -7.183  30.511  1.00  0.00     0.002 C 
HETATM   18  C3  UNK     1      27.508  -6.549  31.780  1.00  0.00     0.036 C 
ENDBRANCH  13  14
BRANCH  13  19
HETATM   19  C7  UNK     1      28.273  -6.698  34.241  1.00  0.00     0.337 C 
BRANCH  19  20
HETATM   20  C9  UNK     1      28.130  -7.622  35.421  1.00  0.00     0.081 A 
HETATM   21  C12 UNK     1      28.738  -8.787  35.737  1.00  0.00     0.036 A 
HETATM   22  C16 UNK     1      28.175  -9.169  36.977  1.00  0.00     0.027 A 
HETATM   23  C17 UNK     1      27.267  -8.190  37.302  1.00  0.00     0.142 A 
HETATM   24  O1  UNK     1      27.235  -7.229  36.342  1.00  0.00    -0.325 OA
ENDBRANCH  19  20
ENDBRANCH  13  19
ENDBRANCH  12  13
ENDBRANCH   3  12
BRANCH  10  25
HETATM   25  O3  UNK     1      30.348  -3.739  37.978  1.00  0.00    -0.351 OA
BRANCH  25  26
HETATM   26  C21 UNK     1      29.645  -4.081  39.172  1.00  0.00     0.171 C 
HETATM   27  C22 UNK     1      28.503  -5.012  38.821  1.00  0.00     0.034 C 
ENDBRANCH  25  26
ENDBRANCH  10  25
TORSDOF 7
ENDMDL
MODEL 10
REMARK VINA RESULT:      -7.4     11.483     14.468
REMARK  7 active torsions:
REMARK  status: ('A' for Active; 'I' for Inactive)
REMARK    1  A    between atoms: C19_24  and  O3_3 
REMARK    2  A    between atoms: C21_26  and  O3_3 
REMARK    3  A    between atoms: C1_6  and  N1_5 
REMARK    4  A    between atoms: C6_11  and  N1_5 
REMARK    5  A    between atoms: C7_12  and  N1_5 
REMARK    6  A    between atoms: C6_11  and  C8_13 
REMARK    7  A    between atoms: C7_12  and  C9_14 
ROOT
HETATM    1  O2  UNK     1      27.962  -5.406  39.205  1.00  0.00    -0.275 OA
HETATM    2  O4  UNK     1      29.541  -3.826  39.691  1.00  0.00    -0.260 OA
HETATM    3  C8  UNK     1      30.055  -7.069  38.279  1.00  0.00    -0.011 A 
HETATM    4  C10 UNK     1      28.663  -7.537  38.238  1.00  0.00     0.009 A 
HETATM    5  C11 UNK     1      30.315  -5.847  38.762  1.00  0.00     0.092 A 
HETATM    6  C13 UNK     1      27.659  -6.687  38.703  1.00  0.00     0.090 A 
HETATM    7  C14 UNK     1      28.279  -8.795  37.757  1.00  0.00     0.051 A 
HETATM    8  C15 UNK     1      29.267  -4.938  39.257  1.00  0.00     0.288 A 
HETATM    9  C18 UNK     1      26.311  -7.053  38.699  1.00  0.00     0.041 A 
HETATM   10  C19 UNK     1      26.932  -9.177  37.747  1.00  0.00     0.069 A 
HETATM   11  C20 UNK     1      25.950  -8.307  38.217  1.00  0.00     0.039 A 
ENDROOT
BRANCH   3  12
HETATM   12  C6  UNK     1      31.160  -7.959  37.787  1.00  0.00     0.313 C 
BRANCH  12  13
HETATM   13  N1  UNK     1      31.719  -7.480  36.534  1.00  0.00     0.103 N 
BRANCH  13  14
HETATM   14  C1  UNK     1      31.528  -8.457  35.478  1.00  0.00     0.224 C 
HETATM   15  C2  UNK     1      31.375  -9.878  36.008  1.00  0.00     0.036 C 
HETATM   16  C4  UNK     1      30.752 -10.634  34.837  1.00  0.00     0.002 C 
HETATM   17  C5  UNK     1      30.009  -9.586  34.005  1.00  0.00     0.002 C 
HETATM   18  C3  UNK     1      30.224  -8.252  34.716  1.00  0.00     0.036 C 
ENDBRANCH  13  14
BRANCH  13  19
HETATM   19  C7  UNK     1      33.145  -7.175  36.685  1.00  0.00     0.337 C 
BRANCH  19  20
HETATM   20  C9  UNK     1      33.516  -5.882  36.007  1.00  0.00     0.081 A 
HETATM   21  C12 UNK     1      33.021  -4.630  36.115  1.00  0.00     0.036 A 
HETATM   22  C16 UNK     1      33.791  -3.853  35.218  1.00  0.00     0.027 A 
HETATM   23  C17 UNK     1      34.692  -4.717  34.641  1.00  0.00     0.142 A 
HETATM   24  O1  UNK     1      34.526  -5.975  35.126  1.00  0.00    -0.325 OA
ENDBRANCH  19  20
ENDBRANCH  13  19
ENDBRANCH  12  13
ENDBRANCH   3  12
BRANCH  10  25
HETATM   25  O3  UNK     1      26.579 -10.405  37.275  1.00  0.00    -0.351 OA
BRANCH  25  26
HETATM   26  C21 UNK     1      25.351 -10.494  36.554  1.00  0.00     0.171 C 
HETATM   27  C22 UNK     1      25.136 -11.929  36.123  1.00  0.00     0.034 C 
ENDBRANCH  25  26
ENDBRANCH  10  25
TORSDOF 7
ENDMDL
