MODEL 1
REMARK VINA RESULT:      -9.9      0.000      0.000
REMARK  6 active torsions:
REMARK  status: ('A' for Active; 'I' for Inactive)
REMARK    1  A    between atoms: C16_24  and  O2_2 
REMARK    2  A    between atoms: C23_31  and  O2_2 
REMARK    3  A    between atoms: C5_13  and  N1_7 
REMARK    4  A    between atoms: C19_27  and  N2_8 
REMARK    5  A    between atoms: C1_9  and  C2_10 
REMARK    6  A    between atoms: C11_19  and  C14_22 
ROOT
HETATM    1  C2  UNK     1      18.580   3.734  30.865  1.00  0.00    -0.020 A 
HETATM    2  C5  UNK     1      17.982   6.286  31.815  1.00  0.00     0.031 A 
HETATM    3  C7  UNK     1      17.852   3.884  32.044  1.00  0.00     0.014 A 
HETATM    4  C8  UNK     1      19.010   4.857  30.160  1.00  0.00     0.014 A 
HETATM    5  C9  UNK     1      17.552   5.161  32.520  1.00  0.00     0.030 A 
HETATM    6  C10 UNK     1      18.710   6.135  30.635  1.00  0.00     0.030 A 
ENDROOT
BRANCH   2   7
HETATM    7  N1  UNK     1      17.679   7.577  32.296  1.00  0.00    -0.365 N 
HETATM    8  C14 UNK     1      16.851   7.930  33.303  1.00  0.00     0.104 C 
HETATM    9  H6  UNK     1      18.153   8.331  31.810  1.00  0.00     0.165 HD
BRANCH   8  10
HETATM   10  C11 UNK     1      16.575   9.159  33.746  1.00  0.00     0.035 A 
HETATM   11  C15 UNK     1      15.181   9.445  34.235  1.00  0.00     0.216 A 
HETATM   12  O4  UNK     1      14.291   8.602  34.248  1.00  0.00    -0.284 OA
HETATM   13  C16 UNK     1      14.922  10.839  34.722  1.00  0.00     0.122 A 
HETATM   14  C20 UNK     1      15.903  11.753  34.707  1.00  0.00     0.077 A 
HETATM   15  C19 UNK     1      17.214  11.425  34.229  1.00  0.00     0.106 A 
HETATM   16  C18 UNK     1      17.565  10.219  33.771  1.00  0.00     0.053 A 
BRANCH  13  17
HETATM   17  O2  UNK     1      13.649  11.114  35.173  1.00  0.00    -0.347 OA
BRANCH  17  18
HETATM   18  C23 UNK     1      13.073  12.175  34.436  1.00  0.00     0.171 C 
HETATM   19  C24 UNK     1      12.455  11.617  33.170  1.00  0.00     0.034 C 
ENDBRANCH  17  18
ENDBRANCH  13  17
BRANCH  15  20
HETATM   20  N2  UNK     1      18.237  12.412  34.224  1.00  0.00    -0.116 N 
HETATM   21  O5  UNK     1      18.561  12.901  35.316  1.00  0.00    -0.532 OA
HETATM   22  O6  UNK     1      18.731  12.713  33.129  1.00  0.00    -0.532 OA
ENDBRANCH  15  20
ENDBRANCH   8  10
ENDBRANCH   2   7
BRANCH   1  23
HETATM   23  C1  UNK     1      18.898   2.384  30.362  1.00  0.00     0.051 A 
HETATM   24  C4  UNK     1      19.482   1.503  31.189  1.00  0.00     0.032 A 
HETATM   25  C3  UNK     1      19.828   0.165  30.736  1.00  0.00    -0.001 A 
HETATM   26  C13 UNK     1      20.430  -0.774  31.577  1.00  0.00     0.014 A 
HETATM   27  C6  UNK     1      19.555  -0.190  29.422  1.00  0.00     0.089 A 
HETATM   28  C21 UNK     1      20.746  -2.046  31.092  1.00  0.00     0.001 A 
HETATM   29  C22 UNK     1      20.464  -2.385  29.767  1.00  0.00     0.003 A 
HETATM   30  C17 UNK     1      19.865  -1.453  28.923  1.00  0.00     0.038 A 
HETATM   31  O1  UNK     1      18.949   0.730  28.546  1.00  0.00    -0.274 OA
HETATM   32  C12 UNK     1      18.591   2.014  28.953  1.00  0.00     0.299 A 
HETATM   33  O3  UNK     1      18.045   2.792  28.180  1.00  0.00    -0.259 OA
ENDBRANCH   1  23
TORSDOF 6
ENDMDL
MODEL 2
REMARK VINA RESULT:      -9.8      1.351      2.821
REMARK  6 active torsions:
REMARK  status: ('A' for Active; 'I' for Inactive)
REMARK    1  A    between atoms: C16_24  and  O2_2 
REMARK    2  A    between atoms: C23_31  and  O2_2 
REMARK    3  A    between atoms: C5_13  and  N1_7 
REMARK    4  A    between atoms: C19_27  and  N2_8 
REMARK    5  A    between atoms: C1_9  and  C2_10 
REMARK    6  A    between atoms: C11_19  and  C14_22 
ROOT
HETATM    1  C2  UNK     1      18.564   3.761  30.858  1.00  0.00    -0.020 A 
HETATM    2  C5  UNK     1      17.947   6.316  31.788  1.00  0.00     0.031 A 
HETATM    3  C7  UNK     1      19.023   4.882  30.168  1.00  0.00     0.014 A 
HETATM    4  C8  UNK     1      17.797   3.914  32.012  1.00  0.00     0.014 A 
HETATM    5  C9  UNK     1      18.715   6.161  30.633  1.00  0.00     0.030 A 
HETATM    6  C10 UNK     1      17.489   5.193  32.477  1.00  0.00     0.030 A 
ENDROOT
BRANCH   2   7
HETATM    7  N1  UNK     1      17.636   7.608  32.259  1.00  0.00    -0.365 N 
HETATM    8  C14 UNK     1      16.569   8.007  32.986  1.00  0.00     0.104 C 
HETATM    9  H6  UNK     1      18.311   8.323  32.010  1.00  0.00     0.165 HD
BRANCH   8  10
HETATM   10  C11 UNK     1      16.289   9.237  33.425  1.00  0.00     0.035 A 
HETATM   11  C15 UNK     1      17.430  10.121  33.849  1.00  0.00     0.216 A 
HETATM   12  O4  UNK     1      18.603   9.765  33.807  1.00  0.00    -0.284 OA
HETATM   13  C16 UNK     1      17.064  11.492  34.332  1.00  0.00     0.122 A 
HETATM   14  C20 UNK     1      15.779  11.873  34.371  1.00  0.00     0.077 A 
HETATM   15  C19 UNK     1      14.730  10.988  33.954  1.00  0.00     0.106 A 
HETATM   16  C18 UNK     1      14.933   9.745  33.506  1.00  0.00     0.053 A 
BRANCH  13  17
HETATM   17  O2  UNK     1      18.100  12.312  34.723  1.00  0.00    -0.347 OA
BRANCH  17  18
HETATM   18  C23 UNK     1      17.901  13.632  34.256  1.00  0.00     0.171 C 
HETATM   19  C24 UNK     1      18.691  13.828  32.979  1.00  0.00     0.034 C 
ENDBRANCH  17  18
ENDBRANCH  13  17
BRANCH  15  20
HETATM   20  N2  UNK     1      13.375  11.417  34.004  1.00  0.00    -0.116 N 
HETATM   21  O5  UNK     1      12.950  11.832  35.092  1.00  0.00    -0.532 OA
HETATM   22  O6  UNK     1      12.718  11.344  32.958  1.00  0.00    -0.532 OA
ENDBRANCH  15  20
ENDBRANCH   8  10
ENDBRANCH   2   7
BRANCH   1  23
HETATM   23  C1  UNK     1      18.889   2.409  30.365  1.00  0.00     0.051 A 
HETATM   24  C4  UNK     1      19.475   1.536  31.199  1.00  0.00     0.032 A 
HETATM   25  C3  UNK     1      19.829   0.197  30.756  1.00  0.00    -0.001 A 
HETATM   26  C13 UNK     1      20.433  -0.733  31.604  1.00  0.00     0.014 A 
HETATM   27  C6  UNK     1      19.561  -0.168  29.443  1.00  0.00     0.089 A 
HETATM   28  C21 UNK     1      20.757  -2.008  31.129  1.00  0.00     0.001 A 
HETATM   29  C22 UNK     1      20.479  -2.357  29.805  1.00  0.00     0.003 A 
HETATM   30  C17 UNK     1      19.878  -1.433  28.953  1.00  0.00     0.038 A 
HETATM   31  O1  UNK     1      18.953   0.744  28.559  1.00  0.00    -0.274 OA
HETATM   32  C12 UNK     1      18.588   2.028  28.957  1.00  0.00     0.299 A 
HETATM   33  O3  UNK     1      18.040   2.799  28.177  1.00  0.00    -0.259 OA
ENDBRANCH   1  23
TORSDOF 6
ENDMDL
MODEL 3
REMARK VINA RESULT:      -9.4     22.566     24.719
REMARK  6 active torsions:
REMARK  status: ('A' for Active; 'I' for Inactive)
REMARK    1  A    between atoms: C16_24  and  O2_2 
REMARK    2  A    between atoms: C23_31  and  O2_2 
REMARK    3  A    between atoms: C5_13  and  N1_7 
REMARK    4  A    between atoms: C19_27  and  N2_8 
REMARK    5  A    between atoms: C1_9  and  C2_10 
REMARK    6  A    between atoms: C11_19  and  C14_22 
ROOT
HETATM    1  C2  UNK     1      14.419   8.769   8.967  1.00  0.00    -0.020 A 
HETATM    2  C5  UNK     1      16.985   9.798   9.334  1.00  0.00     0.031 A 
HETATM    3  C7  UNK     1      15.358   8.050   9.705  1.00  0.00     0.014 A 
HETATM    4  C8  UNK     1      14.761  10.002   8.411  1.00  0.00     0.014 A 
HETATM    5  C9  UNK     1      16.642   8.565   9.890  1.00  0.00     0.030 A 
HETATM    6  C10 UNK     1      16.045  10.516   8.596  1.00  0.00     0.030 A 
ENDROOT
BRANCH   2   7
HETATM    7  N1  UNK     1      18.282  10.318   9.520  1.00  0.00    -0.365 N 
HETATM    8  C14 UNK     1      18.753  11.544   9.204  1.00  0.00     0.104 C 
HETATM    9  H6  UNK     1      18.938   9.675   9.951  1.00  0.00     0.165 HD
BRANCH   8  10
HETATM   10  C11 UNK     1      19.987  12.022   9.387  1.00  0.00     0.035 A 
HETATM   11  C15 UNK     1      20.615  12.822   8.279  1.00  0.00     0.216 A 
HETATM   12  O4  UNK     1      20.046  13.056   7.218  1.00  0.00    -0.284 OA
HETATM   13  C16 UNK     1      22.000  13.336   8.533  1.00  0.00     0.122 A 
HETATM   14  C20 UNK     1      22.613  13.076   9.698  1.00  0.00     0.077 A 
HETATM   15  C19 UNK     1      21.966  12.308  10.720  1.00  0.00     0.106 A 
HETATM   16  C18 UNK     1      20.736  11.797  10.609  1.00  0.00     0.053 A 
BRANCH  13  17
HETATM   17  O2  UNK     1      22.587  14.070   7.526  1.00  0.00    -0.347 OA
BRANCH  17  18
HETATM   18  C23 UNK     1      22.671  15.437   7.883  1.00  0.00     0.171 C 
HETATM   19  C24 UNK     1      23.784  16.086   7.087  1.00  0.00     0.034 C 
ENDBRANCH  17  18
ENDBRANCH  13  17
BRANCH  15  20
HETATM   20  N2  UNK     1      22.637  12.047  11.947  1.00  0.00    -0.116 N 
HETATM   21  O5  UNK     1      23.843  11.768  11.886  1.00  0.00    -0.532 OA
HETATM   22  O6  UNK     1      21.968  12.118  12.986  1.00  0.00    -0.532 OA
ENDBRANCH  15  20
ENDBRANCH   8  10
ENDBRANCH   2   7
BRANCH   1  23
HETATM   23  C1  UNK     1      13.062   8.225   8.771  1.00  0.00     0.051 A 
HETATM   24  C4  UNK     1      12.743   7.685   7.585  1.00  0.00     0.032 A 
HETATM   25  C3  UNK     1      11.414   7.149   7.338  1.00  0.00    -0.001 A 
HETATM   26  C13 UNK     1      11.057   6.575   6.116  1.00  0.00     0.014 A 
HETATM   27  C6  UNK     1      10.466   7.213   8.351  1.00  0.00     0.089 A 
HETATM   28  C21 UNK     1       9.764   6.076   5.928  1.00  0.00     0.001 A 
HETATM   29  C22 UNK     1       8.824   6.150   6.959  1.00  0.00     0.003 A 
HETATM   30  C17 UNK     1       9.173   6.722   8.180  1.00  0.00     0.038 A 
HETATM   31  O1  UNK     1      10.790   7.784   9.596  1.00  0.00    -0.274 OA
HETATM   32  C12 UNK     1      12.059   8.292   9.868  1.00  0.00     0.299 A 
HETATM   33  O3  UNK     1      12.326   8.766  10.968  1.00  0.00    -0.259 OA
ENDBRANCH   1  23
TORSDOF 6
ENDMDL
MODEL 4
REMARK VINA RESULT:      -9.2      7.267     13.160
REMARK  6 active torsions:
REMARK  status: ('A' for Active; 'I' for Inactive)
REMARK    1  A    between atoms: C16_24  and  O2_2 
REMARK    2  A    between atoms: C23_31  and  O2_2 
REMARK    3  A    between atoms: C5_13  and  N1_7 
REMARK    4  A    between atoms: C19_27  and  N2_8 
REMARK    5  A    between atoms: C1_9  and  C2_10 
REMARK    6  A    between atoms: C11_19  and  C14_22 
ROOT
HETATM    1  C2  UNK     1      18.534   1.088  34.091  1.00  0.00    -0.020 A 
HETATM    2  C5  UNK     1      18.875  -1.336  35.428  1.00  0.00     0.031 A 
HETATM    3  C7  UNK     1      18.595   1.064  35.484  1.00  0.00     0.014 A 
HETATM    4  C8  UNK     1      18.643  -0.098  33.365  1.00  0.00     0.014 A 
HETATM    5  C9  UNK     1      18.766  -0.148  36.153  1.00  0.00     0.030 A 
HETATM    6  C10 UNK     1      18.814  -1.310  34.035  1.00  0.00     0.030 A 
ENDROOT
BRANCH   2   7
HETATM    7  N1  UNK     1      19.048  -2.561  36.104  1.00  0.00    -0.365 N 
HETATM    8  C14 UNK     1      20.193  -3.238  36.345  1.00  0.00     0.104 C 
HETATM    9  H6  UNK     1      18.191  -2.978  36.449  1.00  0.00     0.165 HD
BRANCH   8  10
HETATM   10  C11 UNK     1      20.339  -4.399  36.987  1.00  0.00     0.035 A 
HETATM   11  C15 UNK     1      19.221  -5.402  36.914  1.00  0.00     0.216 A 
HETATM   12  O4  UNK     1      18.184  -5.202  36.290  1.00  0.00    -0.284 OA
HETATM   13  C16 UNK     1      19.433  -6.690  37.651  1.00  0.00     0.122 A 
HETATM   14  C20 UNK     1      20.572  -6.900  38.328  1.00  0.00     0.077 A 
HETATM   15  C19 UNK     1      21.606  -5.908  38.364  1.00  0.00     0.106 A 
HETATM   16  C18 UNK     1      21.531  -4.724  37.748  1.00  0.00     0.053 A 
BRANCH  13  17
HETATM   17  O2  UNK     1      18.416  -7.617  37.592  1.00  0.00    -0.347 OA
BRANCH  17  18
HETATM   18  C23 UNK     1      18.756  -8.682  36.725  1.00  0.00     0.171 C 
HETATM   19  C24 UNK     1      18.991  -9.932  37.548  1.00  0.00     0.034 C 
ENDBRANCH  17  18
ENDBRANCH  13  17
BRANCH  15  20
HETATM   20  N2  UNK     1      22.805  -6.155  39.088  1.00  0.00    -0.116 N 
HETATM   21  O5  UNK     1      22.778  -7.054  39.941  1.00  0.00    -0.532 OA
HETATM   22  O6  UNK     1      23.788  -5.454  38.815  1.00  0.00    -0.532 OA
ENDBRANCH  15  20
ENDBRANCH   8  10
ENDBRANCH   2   7
BRANCH   1  23
HETATM   23  C1  UNK     1      18.352   2.370  33.384  1.00  0.00     0.051 A 
HETATM   24  C4  UNK     1      18.229   3.496  34.102  1.00  0.00     0.032 A 
HETATM   25  C3  UNK     1      18.033   4.782  33.451  1.00  0.00    -0.001 A 
HETATM   26  C13 UNK     1      17.909   5.971  34.173  1.00  0.00     0.014 A 
HETATM   27  C6  UNK     1      17.962   4.829  32.065  1.00  0.00     0.089 A 
HETATM   28  C21 UNK     1      17.718   7.182  33.500  1.00  0.00     0.001 A 
HETATM   29  C22 UNK     1      17.650   7.209  32.106  1.00  0.00     0.003 A 
HETATM   30  C17 UNK     1      17.772   6.027  31.379  1.00  0.00     0.038 A 
HETATM   31  O1  UNK     1      18.084   3.650  31.305  1.00  0.00    -0.274 OA
HETATM   32  C12 UNK     1      18.288   2.406  31.897  1.00  0.00     0.299 A 
HETATM   33  O3  UNK     1      18.412   1.395  31.215  1.00  0.00    -0.259 OA
ENDBRANCH   1  23
TORSDOF 6
ENDMDL
MODEL 5
REMARK VINA RESULT:      -9.1     23.015     24.903
REMARK  6 active torsions:
REMARK  status: ('A' for Active; 'I' for Inactive)
REMARK    1  A    between atoms: C16_24  and  O2_2 
REMARK    2  A    between atoms: C23_31  and  O2_2 
REMARK    3  A    between atoms: C5_13  and  N1_7 
REMARK    4  A    between atoms: C19_27  and  N2_8 
REMARK    5  A    between atoms: C1_9  and  C2_10 
REMARK    6  A    between atoms: C11_19  and  C14_22 
ROOT
HETATM    1  C2  UNK     1      14.731   8.870   8.922  1.00  0.00    -0.020 A 
HETATM    2  C5  UNK     1      17.228  10.088   9.164  1.00  0.00     0.031 A 
HETATM    3  C7  UNK     1      14.951  10.125   8.356  1.00  0.00     0.014 A 
HETATM    4  C8  UNK     1      15.757   8.223   9.610  1.00  0.00     0.014 A 
HETATM    5  C9  UNK     1      16.200  10.734   8.476  1.00  0.00     0.030 A 
HETATM    6  C10 UNK     1      17.006   8.832   9.730  1.00  0.00     0.030 A 
ENDROOT
BRANCH   2   7
HETATM    7  N1  UNK     1      18.490  10.703   9.286  1.00  0.00    -0.365 N 
HETATM    8  C14 UNK     1      18.958  11.802   8.655  1.00  0.00     0.104 C 
HETATM    9  H6  UNK     1      19.121  10.248   9.938  1.00  0.00     0.165 HD
BRANCH   8  10
HETATM   10  C11 UNK     1      20.159  12.373   8.782  1.00  0.00     0.035 A 
HETATM   11  C15 UNK     1      20.949  12.104  10.034  1.00  0.00     0.216 A 
HETATM   12  O4  UNK     1      20.540  11.385  10.940  1.00  0.00    -0.284 OA
HETATM   13  C16 UNK     1      22.290  12.767  10.129  1.00  0.00     0.122 A 
HETATM   14  C20 UNK     1      22.728  13.549   9.132  1.00  0.00     0.077 A 
HETATM   15  C19 UNK     1      21.932  13.771   7.960  1.00  0.00     0.106 A 
HETATM   16  C18 UNK     1      20.723  13.236   7.762  1.00  0.00     0.053 A 
BRANCH  13  17
HETATM   17  O2  UNK     1      23.023  12.528  11.271  1.00  0.00    -0.347 OA
BRANCH  17  18
HETATM   18  C23 UNK     1      24.380  12.881  11.080  1.00  0.00     0.171 C 
HETATM   19  C24 UNK     1      25.202  11.618  10.932  1.00  0.00     0.034 C 
ENDBRANCH  17  18
ENDBRANCH  13  17
BRANCH  15  20
HETATM   20  N2  UNK     1      22.420  14.605   6.916  1.00  0.00    -0.116 N 
HETATM   21  O5  UNK     1      21.937  14.442   5.786  1.00  0.00    -0.532 OA
HETATM   22  O6  UNK     1      23.291  15.433   7.212  1.00  0.00    -0.532 OA
ENDBRANCH  15  20
ENDBRANCH   8  10
ENDBRANCH   2   7
BRANCH   1  23
HETATM   23  C1  UNK     1      13.409   8.226   8.795  1.00  0.00     0.051 A 
HETATM   24  C4  UNK     1      12.989   7.839   7.581  1.00  0.00     0.032 A 
HETATM   25  C3  UNK     1      11.688   7.215   7.402  1.00  0.00    -0.001 A 
HETATM   26  C13 UNK     1      11.228   6.796   6.152  1.00  0.00     0.014 A 
HETATM   27  C6  UNK     1      10.873   7.031   8.512  1.00  0.00     0.089 A 
HETATM   28  C21 UNK     1       9.967   6.203   6.033  1.00  0.00     0.001 A 
HETATM   29  C22 UNK     1       9.162   6.027   7.160  1.00  0.00     0.003 A 
HETATM   30  C17 UNK     1       9.615   6.443   8.410  1.00  0.00     0.038 A 
HETATM   31  O1  UNK     1      11.304   7.440   9.788  1.00  0.00    -0.274 OA
HETATM   32  C12 UNK     1      12.550   8.028   9.995  1.00  0.00     0.299 A 
HETATM   33  O3  UNK     1      12.915   8.357  11.118  1.00  0.00    -0.259 OA
ENDBRANCH   1  23
TORSDOF 6
ENDMDL
MODEL 6
REMARK VINA RESULT:      -9.1      2.554     11.369
REMARK  6 active torsions:
REMARK  status: ('A' for Active; 'I' for Inactive)
REMARK    1  A    between atoms: C16_24  and  O2_2 
REMARK    2  A    between atoms: C23_31  and  O2_2 
REMARK    3  A    between atoms: C5_13  and  N1_7 
REMARK    4  A    between atoms: C19_27  and  N2_8 
REMARK    5  A    between atoms: C1_9  and  C2_10 
REMARK    6  A    between atoms: C11_19  and  C14_22 
ROOT
HETATM    1  C2  UNK     1      17.118   8.692  34.002  1.00  0.00    -0.020 A 
HETATM    2  C5  UNK     1      17.961   6.097  33.430  1.00  0.00     0.031 A 
HETATM    3  C7  UNK     1      18.278   8.193  34.591  1.00  0.00     0.014 A 
HETATM    4  C8  UNK     1      16.378   7.897  33.128  1.00  0.00     0.014 A 
HETATM    5  C9  UNK     1      18.701   6.894  34.304  1.00  0.00     0.030 A 
HETATM    6  C10 UNK     1      16.800   6.598  32.842  1.00  0.00     0.030 A 
ENDROOT
BRANCH   2   7
HETATM    7  N1  UNK     1      18.388   4.784  33.141  1.00  0.00    -0.365 N 
HETATM    8  C14 UNK     1      17.905   3.924  32.218  1.00  0.00     0.104 C 
HETATM    9  H6  UNK     1      19.162   4.456  33.709  1.00  0.00     0.165 HD
BRANCH   8  10
HETATM   10  C11 UNK     1      18.322   2.682  31.956  1.00  0.00     0.035 A 
HETATM   11  C15 UNK     1      18.403   1.701  33.094  1.00  0.00     0.216 A 
HETATM   12  O4  UNK     1      18.102   1.990  34.247  1.00  0.00    -0.284 OA
HETATM   13  C16 UNK     1      18.875   0.321  32.749  1.00  0.00     0.122 A 
HETATM   14  C20 UNK     1      19.200   0.015  31.484  1.00  0.00     0.077 A 
HETATM   15  C19 UNK     1      19.104   0.991  30.438  1.00  0.00     0.106 A 
HETATM   16  C18 UNK     1      18.696   2.251  30.623  1.00  0.00     0.053 A 
BRANCH  13  17
HETATM   17  O2  UNK     1      18.954  -0.586  33.783  1.00  0.00    -0.347 OA
BRANCH  17  18
HETATM   18  C23 UNK     1      19.604  -1.771  33.364  1.00  0.00     0.171 C 
HETATM   19  C24 UNK     1      20.168  -2.480  34.578  1.00  0.00     0.034 C 
ENDBRANCH  17  18
ENDBRANCH  13  17
BRANCH  15  20
HETATM   20  N2  UNK     1      19.452   0.641  29.105  1.00  0.00    -0.116 N 
HETATM   21  O5  UNK     1      20.487  -0.023  28.944  1.00  0.00    -0.532 OA
HETATM   22  O6  UNK     1      18.698   1.025  28.201  1.00  0.00    -0.532 OA
ENDBRANCH  15  20
ENDBRANCH   8  10
ENDBRANCH   2   7
BRANCH   1  23
HETATM   23  C1  UNK     1      16.670  10.065  34.305  1.00  0.00     0.051 A 
HETATM   24  C4  UNK     1      15.450  10.250  34.831  1.00  0.00     0.032 A 
HETATM   25  C3  UNK     1      14.958  11.585  35.133  1.00  0.00    -0.001 A 
HETATM   26  C13 UNK     1      13.695  11.806  35.687  1.00  0.00     0.014 A 
HETATM   27  C6  UNK     1      15.770  12.677  34.857  1.00  0.00     0.089 A 
HETATM   28  C21 UNK     1      13.267  13.109  35.956  1.00  0.00     0.001 A 
HETATM   29  C22 UNK     1      14.098  14.196  35.672  1.00  0.00     0.003 A 
HETATM   30  C17 UNK     1      15.358  13.983  35.118  1.00  0.00     0.038 A 
HETATM   31  O1  UNK     1      17.049  12.493  34.299  1.00  0.00    -0.274 OA
HETATM   32  C12 UNK     1      17.554  11.227  34.012  1.00  0.00     0.299 A 
HETATM   33  O3  UNK     1      18.680  11.087  33.546  1.00  0.00    -0.259 OA
ENDBRANCH   1  23
TORSDOF 6
ENDMDL
MODEL 7
REMARK VINA RESULT:      -9.0      2.893     11.270
REMARK  6 active torsions:
REMARK  status: ('A' for Active; 'I' for Inactive)
REMARK    1  A    between atoms: C16_24  and  O2_2 
REMARK    2  A    between atoms: C23_31  and  O2_2 
REMARK    3  A    between atoms: C5_13  and  N1_7 
REMARK    4  A    between atoms: C19_27  and  N2_8 
REMARK    5  A    between atoms: C1_9  and  C2_10 
REMARK    6  A    between atoms: C11_19  and  C14_22 
ROOT
HETATM    1  C2  UNK     1      17.615   9.704  33.929  1.00  0.00    -0.020 A 
HETATM    2  C5  UNK     1      18.174   7.023  33.402  1.00  0.00     0.031 A 
HETATM    3  C7  UNK     1      18.871   9.182  34.234  1.00  0.00     0.014 A 
HETATM    4  C8  UNK     1      16.637   8.888  33.361  1.00  0.00     0.014 A 
HETATM    5  C9  UNK     1      19.152   7.841  33.970  1.00  0.00     0.030 A 
HETATM    6  C10 UNK     1      16.918   7.547  33.097  1.00  0.00     0.030 A 
ENDROOT
BRANCH   2   7
HETATM    7  N1  UNK     1      18.457   5.668  33.135  1.00  0.00    -0.365 N 
HETATM    8  C14 UNK     1      17.963   4.880  32.155  1.00  0.00     0.104 C 
HETATM    9  H6  UNK     1      19.121   5.241  33.772  1.00  0.00     0.165 HD
BRANCH   8  10
HETATM   10  C11 UNK     1      18.242   3.596  31.915  1.00  0.00     0.035 A 
HETATM   11  C15 UNK     1      18.371   2.663  33.088  1.00  0.00     0.216 A 
HETATM   12  O4  UNK     1      18.230   3.027  34.251  1.00  0.00    -0.284 OA
HETATM   13  C16 UNK     1      18.684   1.232  32.767  1.00  0.00     0.122 A 
HETATM   14  C20 UNK     1      18.834   0.844  31.493  1.00  0.00     0.077 A 
HETATM   15  C19 UNK     1      18.700   1.777  30.413  1.00  0.00     0.106 A 
HETATM   16  C18 UNK     1      18.423   3.075  30.574  1.00  0.00     0.053 A 
BRANCH  13  17
HETATM   17  O2  UNK     1      18.805   0.367  33.833  1.00  0.00    -0.347 OA
BRANCH  17  18
HETATM   18  C23 UNK     1      17.765  -0.591  33.823  1.00  0.00     0.171 C 
HETATM   19  C24 UNK     1      16.729  -0.206  34.860  1.00  0.00     0.034 C 
ENDBRANCH  17  18
ENDBRANCH  13  17
BRANCH  15  20
HETATM   20  N2  UNK     1      18.863   1.340  29.070  1.00  0.00    -0.116 N 
HETATM   21  O5  UNK     1      18.194   1.916  28.199  1.00  0.00    -0.532 OA
HETATM   22  O6  UNK     1      19.661   0.415  28.867  1.00  0.00    -0.532 OA
ENDBRANCH  15  20
ENDBRANCH   8  10
ENDBRANCH   2   7
BRANCH   1  23
HETATM   23  C1  UNK     1      17.319  11.122  34.209  1.00  0.00     0.051 A 
HETATM   24  C4  UNK     1      18.142  12.065  33.728  1.00  0.00     0.032 A 
HETATM   25  C3  UNK     1      17.902  13.475  33.989  1.00  0.00    -0.001 A 
HETATM   26  C13 UNK     1      18.738  14.479  33.495  1.00  0.00     0.014 A 
HETATM   27  C6  UNK     1      16.804  13.837  34.760  1.00  0.00     0.089 A 
HETATM   28  C21 UNK     1      18.464  15.820  33.778  1.00  0.00     0.001 A 
HETATM   29  C22 UNK     1      17.356  16.164  34.555  1.00  0.00     0.003 A 
HETATM   30  C17 UNK     1      16.518  15.169  35.052  1.00  0.00     0.038 A 
HETATM   31  O1  UNK     1      15.939  12.853  35.274  1.00  0.00    -0.274 OA
HETATM   32  C12 UNK     1      16.134  11.495  35.029  1.00  0.00     0.299 A 
HETATM   33  O3  UNK     1      15.355  10.656  35.469  1.00  0.00    -0.259 OA
ENDBRANCH   1  23
TORSDOF 6
ENDMDL
MODEL 8
REMARK VINA RESULT:      -9.0     14.964     18.716
REMARK  6 active torsions:
REMARK  status: ('A' for Active; 'I' for Inactive)
REMARK    1  A    between atoms: C16_24  and  O2_2 
REMARK    2  A    between atoms: C23_31  and  O2_2 
REMARK    3  A    between atoms: C5_13  and  N1_7 
REMARK    4  A    between atoms: C19_27  and  N2_8 
REMARK    5  A    between atoms: C1_9  and  C2_10 
REMARK    6  A    between atoms: C11_19  and  C14_22 
ROOT
HETATM    1  C2  UNK     1      28.307  -8.338  37.749  1.00  0.00    -0.020 A 
HETATM    2  C5  UNK     1      25.555  -8.787  37.743  1.00  0.00     0.031 A 
HETATM    3  C7  UNK     1      27.497  -7.703  38.690  1.00  0.00     0.014 A 
HETATM    4  C8  UNK     1      27.744  -9.196  36.806  1.00  0.00     0.014 A 
HETATM    5  C9  UNK     1      26.119  -7.929  38.688  1.00  0.00     0.030 A 
HETATM    6  C10 UNK     1      26.367  -9.421  36.803  1.00  0.00     0.030 A 
ENDROOT
BRANCH   2   7
HETATM    7  N1  UNK     1      24.163  -9.015  37.741  1.00  0.00    -0.365 N 
HETATM    8  C14 UNK     1      23.160  -8.114  37.832  1.00  0.00     0.104 C 
HETATM    9  H6  UNK     1      23.895  -9.990  37.660  1.00  0.00     0.165 HD
BRANCH   8  10
HETATM   10  C11 UNK     1      21.845  -8.347  37.828  1.00  0.00     0.035 A 
HETATM   11  C15 UNK     1      20.945  -7.348  37.155  1.00  0.00     0.216 A 
HETATM   12  O4  UNK     1      21.364  -6.332  36.609  1.00  0.00    -0.284 OA
HETATM   13  C16 UNK     1      19.478  -7.655  37.177  1.00  0.00     0.122 A 
HETATM   14  C20 UNK     1      19.030  -8.769  37.775  1.00  0.00     0.077 A 
HETATM   15  C19 UNK     1      19.935  -9.688  38.402  1.00  0.00     0.106 A 
HETATM   16  C18 UNK     1      21.261  -9.522  38.446  1.00  0.00     0.053 A 
BRANCH  13  17
HETATM   17  O2  UNK     1      18.643  -6.747  36.564  1.00  0.00    -0.347 OA
BRANCH  17  18
HETATM   18  C23 UNK     1      18.307  -7.174  35.258  1.00  0.00     0.171 C 
HETATM   19  C24 UNK     1      16.817  -7.437  35.192  1.00  0.00     0.034 C 
ENDBRANCH  17  18
ENDBRANCH  13  17
BRANCH  15  20
HETATM   20  N2  UNK     1      19.435 -10.863  39.027  1.00  0.00    -0.116 N 
HETATM   21  O5  UNK     1      19.322 -11.877  38.324  1.00  0.00    -0.532 OA
HETATM   22  O6  UNK     1      19.149 -10.788  40.230  1.00  0.00    -0.532 OA
ENDBRANCH  15  20
ENDBRANCH   8  10
ENDBRANCH   2   7
BRANCH   1  23
HETATM   23  C1  UNK     1      29.763  -8.099  37.752  1.00  0.00     0.051 A 
HETATM   24  C4  UNK     1      30.232  -6.937  37.273  1.00  0.00     0.032 A 
HETATM   25  C3  UNK     1      31.659  -6.661  37.239  1.00  0.00    -0.001 A 
HETATM   26  C13 UNK     1      32.175  -5.457  36.753  1.00  0.00     0.014 A 
HETATM   27  C6  UNK     1      32.541  -7.629  37.703  1.00  0.00     0.089 A 
HETATM   28  C21 UNK     1      33.556  -5.242  36.740  1.00  0.00     0.001 A 
HETATM   29  C22 UNK     1      34.427  -6.227  37.211  1.00  0.00     0.003 A 
HETATM   30  C17 UNK     1      33.920  -7.430  37.696  1.00  0.00     0.038 A 
HETATM   31  O1  UNK     1      32.057  -8.854  38.201  1.00  0.00    -0.274 OA
HETATM   32  C12 UNK     1      30.696  -9.142  38.260  1.00  0.00     0.299 A 
HETATM   33  O3  UNK     1      30.295 -10.207  38.717  1.00  0.00    -0.259 OA
ENDBRANCH   1  23
TORSDOF 6
ENDMDL
MODEL 9
REMARK VINA RESULT:      -8.9      2.118      3.488
REMARK  6 active torsions:
REMARK  status: ('A' for Active; 'I' for Inactive)
REMARK    1  A    between atoms: C16_24  and  O2_2 
REMARK    2  A    between atoms: C23_31  and  O2_2 
REMARK    3  A    between atoms: C5_13  and  N1_7 
REMARK    4  A    between atoms: C19_27  and  N2_8 
REMARK    5  A    between atoms: C1_9  and  C2_10 
REMARK    6  A    between atoms: C11_19  and  C14_22 
ROOT
HETATM    1  C2  UNK     1      18.363   4.054  32.037  1.00  0.00    -0.020 A 
HETATM    2  C5  UNK     1      17.739   6.752  32.365  1.00  0.00     0.031 A 
HETATM    3  C7  UNK     1      18.540   4.942  30.977  1.00  0.00     0.014 A 
HETATM    4  C8  UNK     1      17.873   4.511  33.260  1.00  0.00     0.014 A 
HETATM    5  C9  UNK     1      18.229   6.293  31.141  1.00  0.00     0.030 A 
HETATM    6  C10 UNK     1      17.562   5.861  33.424  1.00  0.00     0.030 A 
ENDROOT
BRANCH   2   7
HETATM    7  N1  UNK     1      17.424   8.116  32.531  1.00  0.00    -0.365 N 
HETATM    8  C14 UNK     1      16.844   8.726  33.587  1.00  0.00     0.104 C 
HETATM    9  H6  UNK     1      17.672   8.706  31.743  1.00  0.00     0.165 HD
BRANCH   8  10
HETATM   10  C11 UNK     1      16.552  10.022  33.728  1.00  0.00     0.035 A 
HETATM   11  C15 UNK     1      17.674  10.978  34.028  1.00  0.00     0.216 A 
HETATM   12  O4  UNK     1      18.842  10.621  34.145  1.00  0.00    -0.284 OA
HETATM   13  C16 UNK     1      17.296  12.421  34.176  1.00  0.00     0.122 A 
HETATM   14  C20 UNK     1      16.016  12.800  34.043  1.00  0.00     0.077 A 
HETATM   15  C19 UNK     1      14.986  11.845  33.757  1.00  0.00     0.106 A 
HETATM   16  C18 UNK     1      15.200  10.534  33.604  1.00  0.00     0.053 A 
BRANCH  13  17
HETATM   17  O2  UNK     1      18.315  13.306  34.451  1.00  0.00    -0.347 OA
BRANCH  17  18
HETATM   18  C23 UNK     1      18.622  14.088  33.312  1.00  0.00     0.171 C 
HETATM   19  C24 UNK     1      19.231  15.399  33.764  1.00  0.00     0.034 C 
ENDBRANCH  17  18
ENDBRANCH  13  17
BRANCH  15  20
HETATM   20  N2  UNK     1      13.637  12.273  33.620  1.00  0.00    -0.116 N 
HETATM   21  O5  UNK     1      12.955  12.344  34.653  1.00  0.00    -0.532 OA
HETATM   22  O6  UNK     1      13.241  12.543  32.479  1.00  0.00    -0.532 OA
ENDBRANCH  15  20
ENDBRANCH   8  10
ENDBRANCH   2   7
BRANCH   1  23
HETATM   23  C1  UNK     1      18.691   2.626  31.863  1.00  0.00     0.051 A 
HETATM   24  C4  UNK     1      19.154   2.205  30.676  1.00  0.00     0.032 A 
HETATM   25  C3  UNK     1      19.477   0.805  30.451  1.00  0.00    -0.001 A 
HETATM   26  C13 UNK     1      19.967   0.341  29.228  1.00  0.00     0.014 A 
HETATM   27  C6  UNK     1      19.289  -0.102  31.486  1.00  0.00     0.089 A 
HETATM   28  C21 UNK     1      20.260  -1.016  29.062  1.00  0.00     0.001 A 
HETATM   29  C22 UNK     1      20.065  -1.913  30.114  1.00  0.00     0.003 A 
HETATM   30  C17 UNK     1      19.576  -1.457  31.336  1.00  0.00     0.038 A 
HETATM   31  O1  UNK     1      18.799   0.331  32.733  1.00  0.00    -0.274 OA
HETATM   32  C12 UNK     1      18.494   1.666  32.984  1.00  0.00     0.299 A 
HETATM   33  O3  UNK     1      18.087   2.025  34.084  1.00  0.00    -0.259 OA
ENDBRANCH   1  23
TORSDOF 6
ENDMDL
MODEL 10
REMARK VINA RESULT:      -8.9      8.269     14.992
REMARK  6 active torsions:
REMARK  status: ('A' for Active; 'I' for Inactive)
REMARK    1  A    between atoms: C16_24  and  O2_2 
REMARK    2  A    between atoms: C23_31  and  O2_2 
REMARK    3  A    between atoms: C5_13  and  N1_7 
REMARK    4  A    between atoms: C19_27  and  N2_8 
REMARK    5  A    between atoms: C1_9  and  C2_10 
REMARK    6  A    between atoms: C11_19  and  C14_22 
ROOT
HETATM    1  C2  UNK     1      18.894  -0.702  35.200  1.00  0.00    -0.020 A 
HETATM    2  C5  UNK     1      19.356  -3.335  35.991  1.00  0.00     0.031 A 
HETATM    3  C7  UNK     1      18.231  -1.221  36.310  1.00  0.00     0.014 A 
HETATM    4  C8  UNK     1      19.788  -1.497  34.483  1.00  0.00     0.014 A 
HETATM    5  C9  UNK     1      18.462  -2.539  36.707  1.00  0.00     0.030 A 
HETATM    6  C10 UNK     1      20.020  -2.814  34.880  1.00  0.00     0.030 A 
ENDROOT
BRANCH   2   7
HETATM    7  N1  UNK     1      19.591  -4.667  36.391  1.00  0.00    -0.365 N 
HETATM    8  C14 UNK     1      19.948  -5.726  35.632  1.00  0.00     0.104 C 
HETATM    9  H6  UNK     1      19.470  -4.837  37.384  1.00  0.00     0.165 HD
BRANCH   8  10
HETATM   10  C11 UNK     1      20.166  -6.983  36.028  1.00  0.00     0.035 A 
HETATM   11  C15 UNK     1      20.794  -7.940  35.052  1.00  0.00     0.216 A 
HETATM   12  O4  UNK     1      21.115  -7.618  33.913  1.00  0.00    -0.284 OA
HETATM   13  C16 UNK     1      21.019  -9.339  35.544  1.00  0.00     0.122 A 
HETATM   14  C20 UNK     1      20.666  -9.680  36.793  1.00  0.00     0.077 A 
HETATM   15  C19 UNK     1      20.071  -8.725  37.682  1.00  0.00     0.106 A 
HETATM   16  C18 UNK     1      19.821  -7.452  37.357  1.00  0.00     0.053 A 
BRANCH  13  17
HETATM   17  O2  UNK     1      21.593 -10.225  34.660  1.00  0.00    -0.347 OA
BRANCH  17  18
HETATM   18  C23 UNK     1      21.948 -11.429  35.313  1.00  0.00     0.171 C 
HETATM   19  C24 UNK     1      23.418 -11.379  35.673  1.00  0.00     0.034 C 
ENDBRANCH  17  18
ENDBRANCH  13  17
BRANCH  15  20
HETATM   20  N2  UNK     1      19.707  -9.111  39.000  1.00  0.00    -0.116 N 
HETATM   21  O5  UNK     1      19.727  -8.234  39.876  1.00  0.00    -0.532 OA
HETATM   22  O6  UNK     1      19.395 -10.296  39.179  1.00  0.00    -0.532 OA
ENDBRANCH  15  20
ENDBRANCH   8  10
ENDBRANCH   2   7
BRANCH   1  23
HETATM   23  C1  UNK     1      18.649   0.691  34.780  1.00  0.00     0.051 A 
HETATM   24  C4  UNK     1      18.560   0.970  33.471  1.00  0.00     0.032 A 
HETATM   25  C3  UNK     1      18.335   2.329  33.007  1.00  0.00    -0.001 A 
HETATM   26  C13 UNK     1      18.232   2.647  31.651  1.00  0.00     0.014 A 
HETATM   27  C6  UNK     1      18.223   3.348  33.945  1.00  0.00     0.089 A 
HETATM   28  C21 UNK     1      18.017   3.971  31.256  1.00  0.00     0.001 A 
HETATM   29  C22 UNK     1      17.907   4.982  32.213  1.00  0.00     0.003 A 
HETATM   30  C17 UNK     1      18.010   4.673  33.568  1.00  0.00     0.038 A 
HETATM   31  O1  UNK     1      18.321   3.065  35.320  1.00  0.00    -0.274 OA
HETATM   32  C12 UNK     1      18.521   1.772  35.796  1.00  0.00     0.299 A 
HETATM   33  O3  UNK     1      18.583   1.545  37.000  1.00  0.00    -0.259 OA
ENDBRANCH   1  23
TORSDOF 6
ENDMDL
