MODEL 1
REMARK VINA RESULT:      -9.3      0.000      0.000
REMARK  7 active torsions:
REMARK  status: ('A' for Active; 'I' for Inactive)
REMARK    1  A    between atoms: C19_24  and  O3_3 
REMARK    2  A    between atoms: C23_28  and  O3_3 
REMARK       I    between atoms: C13_18  and  N1_5 
REMARK    3  A    between atoms: C4_9  and  N1_5 
REMARK    4  A    between atoms: C1_6  and  C2_7 
REMARK    5  A    between atoms: C1_6  and  C3_8 
REMARK    6  A    between atoms: C4_9  and  C5_10 
REMARK    7  A    between atoms: C13_18  and  C14_19 
ROOT
HETATM    1  O2  UNK     1      19.745  -0.432  29.855  1.00  0.00    -0.267 OA
HETATM    2  N1  UNK     1      19.053   1.332  31.211  1.00  0.00    -0.348 N 
HETATM    3  C13 UNK     1      19.464   0.036  30.956  1.00  0.00     0.258 C 
HETATM    4  H18 UNK     1      18.787   1.593  32.157  1.00  0.00     0.163 HD
ENDROOT
BRANCH   3   5
HETATM    5  C14 UNK     1      19.548  -0.786  32.169  1.00  0.00     0.108 A 
HETATM    6  C16 UNK     1      18.850  -0.354  33.226  1.00  0.00     0.037 A 
HETATM    7  C15 UNK     1      18.871  -1.101  34.474  1.00  0.00     0.002 A 
HETATM    8  C17 UNK     1      19.628  -2.265  34.548  1.00  0.00     0.123 A 
HETATM    9  C20 UNK     1      18.157  -0.688  35.601  1.00  0.00     0.014 A 
HETATM   10  O1  UNK     1      20.361  -2.715  33.431  1.00  0.00    -0.271 OA
HETATM   11  C19 UNK     1      19.690  -3.027  35.713  1.00  0.00     0.103 A 
HETATM   12  C18 UNK     1      20.359  -2.022  32.225  1.00  0.00     0.304 A 
HETATM   13  O4  UNK     1      21.000  -2.422  31.258  1.00  0.00    -0.259 OA
HETATM   14  C21 UNK     1      18.975  -2.608  36.833  1.00  0.00     0.040 A 
HETATM   15  C22 UNK     1      18.210  -1.441  36.777  1.00  0.00     0.004 A 
BRANCH  11  16
HETATM   16  O3  UNK     1      20.434  -4.164  35.772  1.00  0.00    -0.349 OA
BRANCH  16  17
HETATM   17  C23 UNK     1      19.769  -5.355  36.193  1.00  0.00     0.171 C 
HETATM   18  C24 UNK     1      19.883  -6.397  35.100  1.00  0.00     0.034 C 
ENDBRANCH  16  17
ENDBRANCH  11  16
ENDBRANCH   3   5
BRANCH   2  19
HETATM   19  C4  UNK     1      18.899   2.329  30.177  1.00  0.00     0.114 C 
HETATM   20  C12 UNK     1      17.762   1.948  29.230  1.00  0.00     0.037 C 
BRANCH  19  21
HETATM   21  C5  UNK     1      18.723   3.711  30.766  1.00  0.00    -0.036 A 
HETATM   22  C10 UNK     1      19.126   4.814  30.034  1.00  0.00     0.010 A 
HETATM   23  C8  UNK     1      18.964   6.088  30.579  1.00  0.00     0.008 A 
HETATM   24  C2  UNK     1      18.401   6.239  31.845  1.00  0.00    -0.054 A 
HETATM   25  C7  UNK     1      18.000   5.116  32.569  1.00  0.00     0.008 A 
HETATM   26  C9  UNK     1      18.162   3.842  32.025  1.00  0.00     0.010 A 
BRANCH  24  27
HETATM   27  C1  UNK     1      18.228   7.601  32.427  1.00  0.00     0.014 C 
HETATM   28  C6  UNK     1      19.125   7.809  33.666  1.00  0.00     0.015 C 
BRANCH  27  29
HETATM   29  C3  UNK     1      16.765   7.951  32.816  1.00  0.00     0.004 C 
HETATM   30  C11 UNK     1      15.838   8.028  31.609  1.00  0.00     0.006 C 
ENDBRANCH  27  29
ENDBRANCH  24  27
ENDBRANCH  19  21
ENDBRANCH   2  19
TORSDOF 7
ENDMDL
MODEL 2
REMARK VINA RESULT:      -8.7      5.471     10.832
REMARK  7 active torsions:
REMARK  status: ('A' for Active; 'I' for Inactive)
REMARK    1  A    between atoms: C19_24  and  O3_3 
REMARK    2  A    between atoms: C23_28  and  O3_3 
REMARK       I    between atoms: C13_18  and  N1_5 
REMARK    3  A    between atoms: C4_9  and  N1_5 
REMARK    4  A    between atoms: C1_6  and  C2_7 
REMARK    5  A    between atoms: C1_6  and  C3_8 
REMARK    6  A    between atoms: C4_9  and  C5_10 
REMARK    7  A    between atoms: C13_18  and  C14_19 
ROOT
HETATM    1  O2  UNK     1      16.643   8.131  30.831  1.00  0.00    -0.267 OA
HETATM    2  N1  UNK     1      17.407   6.785  32.575  1.00  0.00    -0.348 N 
HETATM    3  C13 UNK     1      16.723   7.856  32.027  1.00  0.00     0.258 C 
HETATM    4  H18 UNK     1      17.456   6.690  33.585  1.00  0.00     0.163 HD
ENDROOT
BRANCH   3   5
HETATM    5  C14 UNK     1      16.057   8.687  33.038  1.00  0.00     0.108 A 
HETATM    6  C16 UNK     1      15.052   9.456  32.603  1.00  0.00     0.037 A 
HETATM    7  C15 UNK     1      14.332  10.315  33.530  1.00  0.00     0.002 A 
HETATM    8  C17 UNK     1      14.706  10.321  34.870  1.00  0.00     0.123 A 
HETATM    9  C20 UNK     1      13.276  11.132  33.121  1.00  0.00     0.014 A 
HETATM   10  O1  UNK     1      15.765   9.509  35.322  1.00  0.00    -0.271 OA
HETATM   11  C19 UNK     1      14.056  11.120  35.808  1.00  0.00     0.103 A 
HETATM   12  C18 UNK     1      16.472   8.678  34.458  1.00  0.00     0.304 A 
HETATM   13  O4  UNK     1      17.392   7.973  34.861  1.00  0.00    -0.259 OA
HETATM   14  C21 UNK     1      13.005  11.934  35.391  1.00  0.00     0.040 A 
HETATM   15  C22 UNK     1      12.616  11.940  34.050  1.00  0.00     0.004 A 
BRANCH  11  16
HETATM   16  O3  UNK     1      14.432  11.117  37.116  1.00  0.00    -0.349 OA
BRANCH  16  17
HETATM   17  C23 UNK     1      13.392  11.162  38.091  1.00  0.00     0.171 C 
HETATM   18  C24 UNK     1      13.997  11.468  39.445  1.00  0.00     0.034 C 
ENDBRANCH  16  17
ENDBRANCH  11  16
ENDBRANCH   3   5
BRANCH   2  19
HETATM   19  C4  UNK     1      18.136   5.826  31.779  1.00  0.00     0.114 C 
HETATM   20  C12 UNK     1      19.531   6.353  31.447  1.00  0.00     0.037 C 
BRANCH  19  21
HETATM   21  C5  UNK     1      18.174   4.470  32.449  1.00  0.00    -0.036 A 
HETATM   22  C10 UNK     1      18.229   4.400  33.829  1.00  0.00     0.010 A 
HETATM   23  C8  UNK     1      18.265   3.150  34.447  1.00  0.00     0.008 A 
HETATM   24  C2  UNK     1      18.245   1.989  33.674  1.00  0.00    -0.054 A 
HETATM   25  C7  UNK     1      18.191   2.078  32.283  1.00  0.00     0.008 A 
HETATM   26  C9  UNK     1      18.155   3.329  31.665  1.00  0.00     0.010 A 
BRANCH  24  27
HETATM   27  C1  UNK     1      18.284   0.653  34.334  1.00  0.00     0.014 C 
HETATM   28  C6  UNK     1      18.445  -0.486  33.304  1.00  0.00     0.015 C 
BRANCH  27  29
HETATM   29  C3  UNK     1      17.047   0.340  35.221  1.00  0.00     0.004 C 
HETATM   30  C11 UNK     1      16.362  -0.965  34.835  1.00  0.00     0.006 C 
ENDBRANCH  27  29
ENDBRANCH  24  27
ENDBRANCH  19  21
ENDBRANCH   2  19
TORSDOF 7
ENDMDL
MODEL 3
REMARK VINA RESULT:      -8.6      3.475     10.148
REMARK  7 active torsions:
REMARK  status: ('A' for Active; 'I' for Inactive)
REMARK    1  A    between atoms: C19_24  and  O3_3 
REMARK    2  A    between atoms: C23_28  and  O3_3 
REMARK       I    between atoms: C13_18  and  N1_5 
REMARK    3  A    between atoms: C4_9  and  N1_5 
REMARK    4  A    between atoms: C1_6  and  C2_7 
REMARK    5  A    between atoms: C1_6  and  C3_8 
REMARK    6  A    between atoms: C4_9  and  C5_10 
REMARK    7  A    between atoms: C13_18  and  C14_19 
ROOT
HETATM    1  O2  UNK     1      17.457  -1.526  35.692  1.00  0.00    -0.267 OA
HETATM    2  N1  UNK     1      19.750  -1.901  35.874  1.00  0.00    -0.348 N 
HETATM    3  C13 UNK     1      18.600  -1.462  35.243  1.00  0.00     0.258 C 
HETATM    4  H18 UNK     1      20.637  -1.853  35.382  1.00  0.00     0.163 HD
ENDROOT
BRANCH   3   5
HETATM    5  C14 UNK     1      18.860  -0.878  33.922  1.00  0.00     0.108 A 
HETATM    6  C16 UNK     1      19.388  -1.700  33.006  1.00  0.00     0.037 A 
HETATM    7  C15 UNK     1      19.682  -1.212  31.667  1.00  0.00     0.002 A 
HETATM    8  C17 UNK     1      19.407   0.116  31.359  1.00  0.00     0.123 A 
HETATM    9  C20 UNK     1      20.231  -2.034  30.680  1.00  0.00     0.014 A 
HETATM   10  O1  UNK     1      18.852   0.975  32.328  1.00  0.00    -0.271 OA
HETATM   11  C19 UNK     1      19.665   0.644  30.096  1.00  0.00     0.103 A 
HETATM   12  C18 UNK     1      18.560   0.538  33.616  1.00  0.00     0.304 A 
HETATM   13  O4  UNK     1      18.075   1.293  34.453  1.00  0.00    -0.259 OA
HETATM   14  C21 UNK     1      20.213  -0.182  29.117  1.00  0.00     0.040 A 
HETATM   15  C22 UNK     1      20.495  -1.518  29.409  1.00  0.00     0.004 A 
BRANCH  11  16
HETATM   16  O3  UNK     1      19.392   1.945  29.808  1.00  0.00    -0.349 OA
BRANCH  16  17
HETATM   17  C23 UNK     1      18.030   2.280  29.543  1.00  0.00     0.171 C 
HETATM   18  C24 UNK     1      17.627   1.687  28.209  1.00  0.00     0.034 C 
ENDBRANCH  16  17
ENDBRANCH  11  16
ENDBRANCH   3   5
BRANCH   2  19
HETATM   19  C4  UNK     1      19.747  -2.508  37.185  1.00  0.00     0.114 C 
HETATM   20  C12 UNK     1      18.489  -2.112  37.958  1.00  0.00     0.037 C 
BRANCH  19  21
HETATM   21  C5  UNK     1      19.925  -4.007  37.098  1.00  0.00    -0.036 A 
HETATM   22  C10 UNK     1      21.076  -4.583  37.606  1.00  0.00     0.010 A 
HETATM   23  C8  UNK     1      21.239  -5.965  37.525  1.00  0.00     0.008 A 
HETATM   24  C2  UNK     1      20.249  -6.751  36.936  1.00  0.00    -0.054 A 
HETATM   25  C7  UNK     1      19.095  -6.155  36.428  1.00  0.00     0.008 A 
HETATM   26  C9  UNK     1      18.931  -4.771  36.509  1.00  0.00     0.010 A 
BRANCH  24  27
HETATM   27  C1  UNK     1      20.424  -8.230  36.848  1.00  0.00     0.014 C 
HETATM   28  C6  UNK     1      21.093  -8.645  35.521  1.00  0.00     0.015 C 
BRANCH  27  29
HETATM   29  C3  UNK     1      19.108  -9.041  37.010  1.00  0.00     0.004 C 
HETATM   30  C11 UNK     1      19.246 -10.192  37.998  1.00  0.00     0.006 C 
ENDBRANCH  27  29
ENDBRANCH  24  27
ENDBRANCH  19  21
ENDBRANCH   2  19
TORSDOF 7
ENDMDL
MODEL 4
REMARK VINA RESULT:      -8.5      5.345     10.976
REMARK  7 active torsions:
REMARK  status: ('A' for Active; 'I' for Inactive)
REMARK    1  A    between atoms: C19_24  and  O3_3 
REMARK    2  A    between atoms: C23_28  and  O3_3 
REMARK       I    between atoms: C13_18  and  N1_5 
REMARK    3  A    between atoms: C4_9  and  N1_5 
REMARK    4  A    between atoms: C1_6  and  C2_7 
REMARK    5  A    between atoms: C1_6  and  C3_8 
REMARK    6  A    between atoms: C4_9  and  C5_10 
REMARK    7  A    between atoms: C13_18  and  C14_19 
ROOT
HETATM    1  O2  UNK     1      16.663   7.917  30.470  1.00  0.00    -0.267 OA
HETATM    2  N1  UNK     1      17.655   6.792  32.254  1.00  0.00    -0.348 N 
HETATM    3  C13 UNK     1      16.927   7.811  31.666  1.00  0.00     0.258 C 
HETATM    4  H18 UNK     1      17.864   6.838  33.247  1.00  0.00     0.163 HD
ENDROOT
BRANCH   3   5
HETATM    5  C14 UNK     1      16.463   8.813  32.633  1.00  0.00     0.108 A 
HETATM    6  C16 UNK     1      15.199   9.231  32.491  1.00  0.00     0.037 A 
HETATM    7  C15 UNK     1      14.649  10.223  33.401  1.00  0.00     0.002 A 
HETATM    8  C17 UNK     1      15.456  10.728  34.414  1.00  0.00     0.123 A 
HETATM    9  C20 UNK     1      13.336  10.687  33.291  1.00  0.00     0.014 A 
HETATM   10  O1  UNK     1      16.786  10.284  34.559  1.00  0.00    -0.271 OA
HETATM   11  C19 UNK     1      14.989  11.680  35.319  1.00  0.00     0.103 A 
HETATM   12  C18 UNK     1      17.339   9.336  33.704  1.00  0.00     0.304 A 
HETATM   13  O4  UNK     1      18.498   8.955  33.838  1.00  0.00    -0.259 OA
HETATM   14  C21 UNK     1      13.678  12.137  35.201  1.00  0.00     0.040 A 
HETATM   15  C22 UNK     1      12.854  11.641  34.189  1.00  0.00     0.004 A 
BRANCH  11  16
HETATM   16  O3  UNK     1      15.789  12.165  36.306  1.00  0.00    -0.349 OA
BRANCH  16  17
HETATM   17  C23 UNK     1      15.974  13.579  36.357  1.00  0.00     0.171 C 
HETATM   18  C24 UNK     1      16.857  14.004  35.202  1.00  0.00     0.034 C 
ENDBRANCH  16  17
ENDBRANCH  11  16
ENDBRANCH   3   5
BRANCH   2  19
HETATM   19  C4  UNK     1      18.212   5.688  31.507  1.00  0.00     0.114 C 
HETATM   20  C12 UNK     1      19.596   6.050  30.968  1.00  0.00     0.037 C 
BRANCH  19  21
HETATM   21  C5  UNK     1      18.225   4.418  32.328  1.00  0.00    -0.036 A 
HETATM   22  C10 UNK     1      18.257   4.505  33.708  1.00  0.00     0.010 A 
HETATM   23  C8  UNK     1      18.269   3.333  34.464  1.00  0.00     0.008 A 
HETATM   24  C2  UNK     1      18.249   2.092  33.828  1.00  0.00    -0.054 A 
HETATM   25  C7  UNK     1      18.217   2.023  32.435  1.00  0.00     0.008 A 
HETATM   26  C9  UNK     1      18.205   3.195  31.678  1.00  0.00     0.010 A 
BRANCH  24  27
HETATM   27  C1  UNK     1      18.262   0.839  34.636  1.00  0.00     0.014 C 
HETATM   28  C6  UNK     1      18.320  -0.416  33.739  1.00  0.00     0.015 C 
BRANCH  27  29
HETATM   29  C3  UNK     1      17.059   0.692  35.608  1.00  0.00     0.004 C 
HETATM   30  C11 UNK     1      16.003  -0.280  35.094  1.00  0.00     0.006 C 
ENDBRANCH  27  29
ENDBRANCH  24  27
ENDBRANCH  19  21
ENDBRANCH   2  19
TORSDOF 7
ENDMDL
MODEL 5
REMARK VINA RESULT:      -8.5      3.823      6.210
REMARK  7 active torsions:
REMARK  status: ('A' for Active; 'I' for Inactive)
REMARK    1  A    between atoms: C19_24  and  O3_3 
REMARK    2  A    between atoms: C23_28  and  O3_3 
REMARK       I    between atoms: C13_18  and  N1_5 
REMARK    3  A    between atoms: C4_9  and  N1_5 
REMARK    4  A    between atoms: C1_6  and  C2_7 
REMARK    5  A    between atoms: C1_6  and  C3_8 
REMARK    6  A    between atoms: C4_9  and  C5_10 
REMARK    7  A    between atoms: C13_18  and  C14_19 
ROOT
HETATM    1  O2  UNK     1      17.511  -2.249  37.411  1.00  0.00    -0.267 OA
HETATM    2  N1  UNK     1      18.793  -1.785  35.520  1.00  0.00    -0.348 N 
HETATM    3  C13 UNK     1      18.402  -2.536  36.614  1.00  0.00     0.258 C 
HETATM    4  H18 UNK     1      19.585  -2.091  34.963  1.00  0.00     0.163 HD
ENDROOT
BRANCH   3   5
HETATM    5  C14 UNK     1      19.171  -3.778  36.758  1.00  0.00     0.108 A 
HETATM    6  C16 UNK     1      18.498  -4.918  36.560  1.00  0.00     0.037 A 
HETATM    7  C15 UNK     1      19.174  -6.200  36.682  1.00  0.00     0.002 A 
HETATM    8  C17 UNK     1      20.526  -6.218  37.007  1.00  0.00     0.123 A 
HETATM    9  C20 UNK     1      18.512  -7.413  36.482  1.00  0.00     0.014 A 
HETATM   10  O1  UNK     1      21.229  -5.015  37.215  1.00  0.00    -0.271 OA
HETATM   11  C19 UNK     1      21.232  -7.413  37.139  1.00  0.00     0.103 A 
HETATM   12  C18 UNK     1      20.609  -3.774  37.105  1.00  0.00     0.304 A 
HETATM   13  O4  UNK     1      21.230  -2.732  37.287  1.00  0.00    -0.259 OA
HETATM   14  C21 UNK     1      20.563  -8.618  36.938  1.00  0.00     0.040 A 
HETATM   15  C22 UNK     1      19.206  -8.618  36.611  1.00  0.00     0.004 A 
BRANCH  11  16
HETATM   16  O3  UNK     1      22.554  -7.417  37.457  1.00  0.00    -0.349 OA
BRANCH  16  17
HETATM   17  C23 UNK     1      22.897  -7.140  38.815  1.00  0.00     0.171 C 
HETATM   18  C24 UNK     1      22.271  -8.192  39.706  1.00  0.00     0.034 C 
ENDBRANCH  16  17
ENDBRANCH  11  16
ENDBRANCH   3   5
BRANCH   2  19
HETATM   19  C4  UNK     1      18.179  -0.524  35.170  1.00  0.00     0.114 C 
HETATM   20  C12 UNK     1      18.551   0.555  36.185  1.00  0.00     0.037 C 
BRANCH  19  21
HETATM   21  C5  UNK     1      18.516  -0.124  33.750  1.00  0.00    -0.036 A 
HETATM   22  C10 UNK     1      18.353   1.194  33.363  1.00  0.00     0.010 A 
HETATM   23  C8  UNK     1      18.663   1.562  32.054  1.00  0.00     0.008 A 
HETATM   24  C2  UNK     1      19.132   0.606  31.153  1.00  0.00    -0.054 A 
HETATM   25  C7  UNK     1      19.290  -0.718  31.560  1.00  0.00     0.008 A 
HETATM   26  C9  UNK     1      18.980  -1.087  32.870  1.00  0.00     0.010 A 
BRANCH  24  27
HETATM   27  C1  UNK     1      19.463   1.000  29.753  1.00  0.00     0.014 C 
HETATM   28  C6  UNK     1      18.231   1.565  29.015  1.00  0.00     0.015 C 
BRANCH  27  29
HETATM   29  C3  UNK     1      20.069  -0.142  28.893  1.00  0.00     0.004 C 
HETATM   30  C11 UNK     1      19.105  -0.650  27.828  1.00  0.00     0.006 C 
ENDBRANCH  27  29
ENDBRANCH  24  27
ENDBRANCH  19  21
ENDBRANCH   2  19
TORSDOF 7
ENDMDL
MODEL 6
REMARK VINA RESULT:      -8.4      3.991     11.186
REMARK  7 active torsions:
REMARK  status: ('A' for Active; 'I' for Inactive)
REMARK    1  A    between atoms: C19_24  and  O3_3 
REMARK    2  A    between atoms: C23_28  and  O3_3 
REMARK       I    between atoms: C13_18  and  N1_5 
REMARK    3  A    between atoms: C4_9  and  N1_5 
REMARK    4  A    between atoms: C1_6  and  C2_7 
REMARK    5  A    between atoms: C1_6  and  C3_8 
REMARK    6  A    between atoms: C4_9  and  C5_10 
REMARK    7  A    between atoms: C13_18  and  C14_19 
ROOT
HETATM    1  O2  UNK     1      20.500  -5.510  35.379  1.00  0.00    -0.267 OA
HETATM    2  N1  UNK     1      19.446  -5.416  37.456  1.00  0.00    -0.348 N 
HETATM    3  C13 UNK     1      19.906  -4.892  36.261  1.00  0.00     0.258 C 
HETATM    4  H18 UNK     1      19.020  -4.796  38.139  1.00  0.00     0.163 HD
ENDROOT
BRANCH   3   5
HETATM    5  C14 UNK     1      19.611  -3.462  36.112  1.00  0.00     0.108 A 
HETATM    6  C16 UNK     1      18.934  -2.890  37.115  1.00  0.00     0.037 A 
HETATM    7  C15 UNK     1      18.594  -1.477  37.059  1.00  0.00     0.002 A 
HETATM    8  C17 UNK     1      18.983  -0.736  35.949  1.00  0.00     0.123 A 
HETATM    9  C20 UNK     1      17.891  -0.839  38.083  1.00  0.00     0.014 A 
HETATM   10  O1  UNK     1      19.696  -1.343  34.896  1.00  0.00    -0.271 OA
HETATM   11  C19 UNK     1      18.690   0.622  35.834  1.00  0.00     0.103 A 
HETATM   12  C18 UNK     1      20.035  -2.692  34.922  1.00  0.00     0.304 A 
HETATM   13  O4  UNK     1      20.657  -3.212  34.001  1.00  0.00    -0.259 OA
HETATM   14  C21 UNK     1      17.987   1.250  36.860  1.00  0.00     0.040 A 
HETATM   15  C22 UNK     1      17.588   0.521  37.982  1.00  0.00     0.004 A 
BRANCH  11  16
HETATM   16  O3  UNK     1      19.077   1.336  34.742  1.00  0.00    -0.349 OA
BRANCH  16  17
HETATM   17  C23 UNK     1      18.044   1.901  33.936  1.00  0.00     0.171 C 
HETATM   18  C24 UNK     1      18.305   3.383  33.767  1.00  0.00     0.034 C 
ENDBRANCH  16  17
ENDBRANCH  11  16
ENDBRANCH   3   5
BRANCH   2  19
HETATM   19  C4  UNK     1      19.614  -6.802  37.826  1.00  0.00     0.114 C 
HETATM   20  C12 UNK     1      18.969  -7.717  36.787  1.00  0.00     0.037 C 
BRANCH  19  21
HETATM   21  C5  UNK     1      21.070  -7.135  38.065  1.00  0.00    -0.036 A 
HETATM   22  C10 UNK     1      21.668  -8.131  37.315  1.00  0.00     0.010 A 
HETATM   23  C8  UNK     1      23.011  -8.437  37.536  1.00  0.00     0.008 A 
HETATM   24  C2  UNK     1      23.734  -7.743  38.505  1.00  0.00    -0.054 A 
HETATM   25  C7  UNK     1      23.115  -6.742  39.253  1.00  0.00     0.008 A 
HETATM   26  C9  UNK     1      21.773  -6.434  39.032  1.00  0.00     0.010 A 
BRANCH  24  27
HETATM   27  C1  UNK     1      25.170  -8.071  38.742  1.00  0.00     0.014 C 
HETATM   28  C6  UNK     1      26.034  -6.796  38.850  1.00  0.00     0.015 C 
BRANCH  27  29
HETATM   29  C3  UNK     1      25.800  -9.001  37.669  1.00  0.00     0.004 C 
HETATM   30  C11 UNK     1      26.924  -9.864  38.227  1.00  0.00     0.006 C 
ENDBRANCH  27  29
ENDBRANCH  24  27
ENDBRANCH  19  21
ENDBRANCH   2  19
TORSDOF 7
ENDMDL
MODEL 7
REMARK VINA RESULT:      -8.4      2.200      3.322
REMARK  7 active torsions:
REMARK  status: ('A' for Active; 'I' for Inactive)
REMARK    1  A    between atoms: C19_24  and  O3_3 
REMARK    2  A    between atoms: C23_28  and  O3_3 
REMARK       I    between atoms: C13_18  and  N1_5 
REMARK    3  A    between atoms: C4_9  and  N1_5 
REMARK    4  A    between atoms: C1_6  and  C2_7 
REMARK    5  A    between atoms: C1_6  and  C3_8 
REMARK    6  A    between atoms: C4_9  and  C5_10 
REMARK    7  A    between atoms: C13_18  and  C14_19 
ROOT
HETATM    1  O2  UNK     1      17.381   3.104  31.370  1.00  0.00    -0.267 OA
HETATM    2  N1  UNK     1      19.116   4.163  32.511  1.00  0.00    -0.348 N 
HETATM    3  C13 UNK     1      18.188   3.159  32.296  1.00  0.00     0.258 C 
HETATM    4  H18 UNK     1      19.694   4.136  33.346  1.00  0.00     0.163 HD
ENDROOT
BRANCH   3   5
HETATM    5  C14 UNK     1      18.246   2.101  33.312  1.00  0.00     0.108 A 
HETATM    6  C16 UNK     1      17.917   2.461  34.559  1.00  0.00     0.037 A 
HETATM    7  C15 UNK     1      17.944   1.482  35.635  1.00  0.00     0.002 A 
HETATM    8  C17 UNK     1      18.317   0.174  35.345  1.00  0.00     0.123 A 
HETATM    9  C20 UNK     1      17.608   1.812  36.950  1.00  0.00     0.014 A 
HETATM   10  O1  UNK     1      18.661  -0.198  34.031  1.00  0.00    -0.271 OA
HETATM   11  C19 UNK     1      18.363  -0.810  36.330  1.00  0.00     0.103 A 
HETATM   12  C18 UNK     1      18.644   0.716  32.981  1.00  0.00     0.304 A 
HETATM   13  O4  UNK     1      18.946   0.382  31.839  1.00  0.00    -0.259 OA
HETATM   14  C21 UNK     1      18.026  -0.472  37.639  1.00  0.00     0.040 A 
HETATM   15  C22 UNK     1      17.650   0.836  37.948  1.00  0.00     0.004 A 
BRANCH  11  16
HETATM   16  O3  UNK     1      18.729  -2.086  36.033  1.00  0.00    -0.349 OA
BRANCH  16  17
HETATM   17  C23 UNK     1      20.101  -2.429  36.222  1.00  0.00     0.171 C 
HETATM   18  C24 UNK     1      20.199  -3.515  37.273  1.00  0.00     0.034 C 
ENDBRANCH  16  17
ENDBRANCH  11  16
ENDBRANCH   3   5
BRANCH   2  19
HETATM   19  C4  UNK     1      19.253   5.309  31.642  1.00  0.00     0.114 C 
HETATM   20  C12 UNK     1      18.960   4.922  30.193  1.00  0.00     0.037 C 
BRANCH  19  21
HETATM   21  C5  UNK     1      18.399   6.464  32.116  1.00  0.00    -0.036 A 
HETATM   22  C10 UNK     1      18.768   7.154  33.257  1.00  0.00     0.010 A 
HETATM   23  C8  UNK     1      17.980   8.219  33.694  1.00  0.00     0.008 A 
HETATM   24  C2  UNK     1      16.835   8.577  32.982  1.00  0.00    -0.054 A 
HETATM   25  C7  UNK     1      16.477   7.870  31.835  1.00  0.00     0.008 A 
HETATM   26  C9  UNK     1      17.265   6.805  31.397  1.00  0.00     0.010 A 
BRANCH  24  27
HETATM   27  C1  UNK     1      15.993   9.715  33.450  1.00  0.00     0.014 C 
HETATM   28  C6  UNK     1      16.833  10.779  34.188  1.00  0.00     0.015 C 
BRANCH  27  29
HETATM   29  C3  UNK     1      14.809   9.302  34.368  1.00  0.00     0.004 C 
HETATM   30  C11 UNK     1      14.379  10.419  35.310  1.00  0.00     0.006 C 
ENDBRANCH  27  29
ENDBRANCH  24  27
ENDBRANCH  19  21
ENDBRANCH   2  19
TORSDOF 7
ENDMDL
MODEL 8
REMARK VINA RESULT:      -8.2     10.501     14.849
REMARK  7 active torsions:
REMARK  status: ('A' for Active; 'I' for Inactive)
REMARK    1  A    between atoms: C19_24  and  O3_3 
REMARK    2  A    between atoms: C23_28  and  O3_3 
REMARK       I    between atoms: C13_18  and  N1_5 
REMARK    3  A    between atoms: C4_9  and  N1_5 
REMARK    4  A    between atoms: C1_6  and  C2_7 
REMARK    5  A    between atoms: C1_6  and  C3_8 
REMARK    6  A    between atoms: C4_9  and  C5_10 
REMARK    7  A    between atoms: C13_18  and  C14_19 
ROOT
HETATM    1  O2  UNK     1      28.208 -10.356  39.583  1.00  0.00    -0.267 OA
HETATM    2  N1  UNK     1      28.972  -8.979  37.863  1.00  0.00    -0.348 N 
HETATM    3  C13 UNK     1      28.019  -9.702  38.559  1.00  0.00     0.258 C 
HETATM    4  H18 UNK     1      28.714  -8.525  36.992  1.00  0.00     0.163 HD
ENDROOT
BRANCH   3   5
HETATM    5  C14 UNK     1      26.685  -9.622  37.951  1.00  0.00     0.108 A 
HETATM    6  C16 UNK     1      26.270 -10.710  37.292  1.00  0.00     0.037 A 
HETATM    7  C15 UNK     1      24.962 -10.727  36.655  1.00  0.00     0.002 A 
HETATM    8  C17 UNK     1      24.157  -9.597  36.743  1.00  0.00     0.123 A 
HETATM    9  C20 UNK     1      24.488 -11.841  35.958  1.00  0.00     0.014 A 
HETATM   10  O1  UNK     1      24.599  -8.454  37.439  1.00  0.00    -0.271 OA
HETATM   11  C19 UNK     1      22.894  -9.549  36.155  1.00  0.00     0.103 A 
HETATM   12  C18 UNK     1      25.845  -8.409  38.058  1.00  0.00     0.304 A 
HETATM   13  O4  UNK     1      26.221  -7.410  38.662  1.00  0.00    -0.259 OA
HETATM   14  C21 UNK     1      22.429 -10.664  35.462  1.00  0.00     0.040 A 
HETATM   15  C22 UNK     1      23.224 -11.807  35.363  1.00  0.00     0.004 A 
BRANCH  11  16
HETATM   16  O3  UNK     1      22.116  -8.437  36.249  1.00  0.00    -0.349 OA
BRANCH  16  17
HETATM   17  C23 UNK     1      20.767  -8.547  35.796  1.00  0.00     0.171 C 
HETATM   18  C24 UNK     1      20.482  -7.424  34.820  1.00  0.00     0.034 C 
ENDBRANCH  16  17
ENDBRANCH  11  16
ENDBRANCH   3   5
BRANCH   2  19
HETATM   19  C4  UNK     1      30.356  -8.903  38.271  1.00  0.00     0.114 C 
HETATM   20  C12 UNK     1      31.119 -10.146  37.815  1.00  0.00     0.037 C 
BRANCH  19  21
HETATM   21  C5  UNK     1      31.000  -7.621  37.792  1.00  0.00    -0.036 A 
HETATM   22  C10 UNK     1      30.345  -6.844  36.854  1.00  0.00     0.010 A 
HETATM   23  C8  UNK     1      30.940  -5.662  36.413  1.00  0.00     0.008 A 
HETATM   24  C2  UNK     1      32.182  -5.276  36.918  1.00  0.00    -0.054 A 
HETATM   25  C7  UNK     1      32.829  -6.072  37.862  1.00  0.00     0.008 A 
HETATM   26  C9  UNK     1      32.234  -7.254  38.304  1.00  0.00     0.010 A 
BRANCH  24  27
HETATM   27  C1  UNK     1      32.818  -4.013  36.446  1.00  0.00     0.014 C 
HETATM   28  C6  UNK     1      31.859  -2.810  36.577  1.00  0.00     0.015 C 
BRANCH  27  29
HETATM   29  C3  UNK     1      33.342  -4.066  34.984  1.00  0.00     0.004 C 
HETATM   30  C11 UNK     1      34.688  -4.769  34.868  1.00  0.00     0.006 C 
ENDBRANCH  27  29
ENDBRANCH  24  27
ENDBRANCH  19  21
ENDBRANCH   2  19
TORSDOF 7
ENDMDL
MODEL 9
REMARK VINA RESULT:      -8.2      3.444      6.312
REMARK  7 active torsions:
REMARK  status: ('A' for Active; 'I' for Inactive)
REMARK    1  A    between atoms: C19_24  and  O3_3 
REMARK    2  A    between atoms: C23_28  and  O3_3 
REMARK       I    between atoms: C13_18  and  N1_5 
REMARK    3  A    between atoms: C4_9  and  N1_5 
REMARK    4  A    between atoms: C1_6  and  C2_7 
REMARK    5  A    between atoms: C1_6  and  C3_8 
REMARK    6  A    between atoms: C4_9  and  C5_10 
REMARK    7  A    between atoms: C13_18  and  C14_19 
ROOT
HETATM    1  O2  UNK     1      19.025  -2.059  37.998  1.00  0.00    -0.267 OA
HETATM    2  N1  UNK     1      18.750  -2.254  35.691  1.00  0.00    -0.348 N 
HETATM    3  C13 UNK     1      19.145  -2.684  36.946  1.00  0.00     0.258 C 
HETATM    4  H18 UNK     1      18.956  -2.830  34.880  1.00  0.00     0.163 HD
ENDROOT
BRANCH   3   5
HETATM    5  C14 UNK     1      19.750  -4.021  36.927  1.00  0.00     0.108 A 
HETATM    6  C16 UNK     1      19.759  -4.682  38.091  1.00  0.00     0.037 A 
HETATM    7  C15 UNK     1      20.338  -6.014  38.174  1.00  0.00     0.002 A 
HETATM    8  C17 UNK     1      20.879  -6.584  37.027  1.00  0.00     0.123 A 
HETATM    9  C20 UNK     1      20.367  -6.740  39.366  1.00  0.00     0.014 A 
HETATM   10  O1  UNK     1      20.866  -5.883  35.804  1.00  0.00    -0.271 OA
HETATM   11  C19 UNK     1      21.448  -7.856  37.038  1.00  0.00     0.103 A 
HETATM   12  C18 UNK     1      20.320  -4.608  35.695  1.00  0.00     0.304 A 
HETATM   13  O4  UNK     1      20.312  -4.006  34.626  1.00  0.00    -0.259 OA
HETATM   14  C21 UNK     1      21.474  -8.573  38.232  1.00  0.00     0.040 A 
HETATM   15  C22 UNK     1      20.935  -8.016  39.394  1.00  0.00     0.004 A 
BRANCH  11  16
HETATM   16  O3  UNK     1      21.974  -8.402  35.909  1.00  0.00    -0.349 OA
BRANCH  16  17
HETATM   17  C23 UNK     1      21.256  -9.483  35.314  1.00  0.00     0.171 C 
HETATM   18  C24 UNK     1      22.151 -10.703  35.266  1.00  0.00     0.034 C 
ENDBRANCH  16  17
ENDBRANCH  11  16
ENDBRANCH   3   5
BRANCH   2  19
HETATM   19  C4  UNK     1      18.126  -0.972  35.457  1.00  0.00     0.114 C 
HETATM   20  C12 UNK     1      18.490   0.013  36.567  1.00  0.00     0.037 C 
BRANCH  19  21
HETATM   21  C5  UNK     1      18.459  -0.441  34.081  1.00  0.00    -0.036 A 
HETATM   22  C10 UNK     1      18.900  -1.318  33.106  1.00  0.00     0.010 A 
HETATM   23  C8  UNK     1      19.207  -0.827  31.837  1.00  0.00     0.008 A 
HETATM   24  C2  UNK     1      19.069   0.533  31.563  1.00  0.00    -0.054 A 
HETATM   25  C7  UNK     1      18.625   1.403  32.557  1.00  0.00     0.008 A 
HETATM   26  C9  UNK     1      18.317   0.913  33.827  1.00  0.00     0.010 A 
BRANCH  24  27
HETATM   27  C1  UNK     1      19.398   1.057  30.206  1.00  0.00     0.014 C 
HETATM   28  C6  UNK     1      18.426   2.178  29.778  1.00  0.00     0.015 C 
BRANCH  27  29
HETATM   29  C3  UNK     1      19.422  -0.023  29.090  1.00  0.00     0.004 C 
HETATM   30  C11 UNK     1      20.824  -0.555  28.817  1.00  0.00     0.006 C 
ENDBRANCH  27  29
ENDBRANCH  24  27
ENDBRANCH  19  21
ENDBRANCH   2  19
TORSDOF 7
ENDMDL
MODEL 10
REMARK VINA RESULT:      -8.1     23.345     25.912
REMARK  7 active torsions:
REMARK  status: ('A' for Active; 'I' for Inactive)
REMARK    1  A    between atoms: C19_24  and  O3_3 
REMARK    2  A    between atoms: C23_28  and  O3_3 
REMARK       I    between atoms: C13_18  and  N1_5 
REMARK    3  A    between atoms: C4_9  and  N1_5 
REMARK    4  A    between atoms: C1_6  and  C2_7 
REMARK    5  A    between atoms: C1_6  and  C3_8 
REMARK    6  A    between atoms: C4_9  and  C5_10 
REMARK    7  A    between atoms: C13_18  and  C14_19 
ROOT
HETATM    1  O2  UNK     1       8.531   5.563   6.873  1.00  0.00    -0.267 OA
HETATM    2  N1  UNK     1      10.101   6.114   8.506  1.00  0.00    -0.348 N 
HETATM    3  C13 UNK     1       8.830   5.839   8.034  1.00  0.00     0.258 C 
HETATM    4  H18 UNK     1      10.223   6.390   9.475  1.00  0.00     0.163 HD
ENDROOT
BRANCH   3   5
HETATM    5  C14 UNK     1       7.805   5.901   9.082  1.00  0.00     0.108 A 
HETATM    6  C16 UNK     1       7.346   7.120   9.389  1.00  0.00     0.037 A 
HETATM    7  C15 UNK     1       6.329   7.283  10.416  1.00  0.00     0.002 A 
HETATM    8  C17 UNK     1       5.847   6.155  11.071  1.00  0.00     0.123 A 
HETATM    9  C20 UNK     1       5.820   8.535  10.767  1.00  0.00     0.014 A 
HETATM   10  O1  UNK     1       6.335   4.874  10.744  1.00  0.00    -0.271 OA
HETATM   11  C19 UNK     1       4.874   6.243  12.064  1.00  0.00     0.103 A 
HETATM   12  C18 UNK     1       7.307   4.687   9.766  1.00  0.00     0.304 A 
HETATM   13  O4  UNK     1       7.725   3.567   9.487  1.00  0.00    -0.259 OA
HETATM   14  C21 UNK     1       4.371   7.496  12.408  1.00  0.00     0.040 A 
HETATM   15  C22 UNK     1       4.844   8.640  11.761  1.00  0.00     0.004 A 
BRANCH  11  16
HETATM   16  O3  UNK     1       4.411   5.131  12.697  1.00  0.00    -0.349 OA
BRANCH  16  17
HETATM   17  C23 UNK     1       4.604   5.059  14.109  1.00  0.00     0.171 C 
HETATM   18  C24 UNK     1       5.897   4.324  14.393  1.00  0.00     0.034 C 
ENDBRANCH  16  17
ENDBRANCH  11  16
ENDBRANCH   3   5
BRANCH   2  19
HETATM   19  C4  UNK     1      11.274   6.110   7.661  1.00  0.00     0.114 C 
HETATM   20  C12 UNK     1      11.093   7.069   6.486  1.00  0.00     0.037 C 
BRANCH  19  21
HETATM   21  C5  UNK     1      12.526   6.401   8.458  1.00  0.00    -0.036 A 
HETATM   22  C10 UNK     1      13.624   5.571   8.319  1.00  0.00     0.010 A 
HETATM   23  C8  UNK     1      14.779   5.839   9.054  1.00  0.00     0.008 A 
HETATM   24  C2  UNK     1      14.817   6.934   9.917  1.00  0.00    -0.054 A 
HETATM   25  C7  UNK     1      13.701   7.760  10.046  1.00  0.00     0.008 A 
HETATM   26  C9  UNK     1      12.546   7.492   9.310  1.00  0.00     0.010 A 
BRANCH  24  27
HETATM   27  C1  UNK     1      16.051   7.221  10.703  1.00  0.00     0.014 C 
HETATM   28  C6  UNK     1      15.758   8.144  11.906  1.00  0.00     0.015 C 
BRANCH  27  29
HETATM   29  C3  UNK     1      17.207   7.847   9.875  1.00  0.00     0.004 C 
HETATM   30  C11 UNK     1      17.148   9.369   9.841  1.00  0.00     0.006 C 
ENDBRANCH  27  29
ENDBRANCH  24  27
ENDBRANCH  19  21
ENDBRANCH   2  19
TORSDOF 7
ENDMDL
