MODEL 1
REMARK VINA RESULT:      -7.6      0.000      0.000
REMARK  2 active torsions:
REMARK  status: ('A' for Active; 'I' for Inactive)
REMARK    1  A    between atoms: C3_7  and  N1_3 
REMARK    2  A    between atoms: C3_7  and  C6_10 
ROOT
HETATM    1  O1  UNK     1      28.723  -5.502  39.708  1.00  0.00    -0.275 OA
HETATM    2  O2  UNK     1      29.412  -3.338  39.972  1.00  0.00    -0.260 OA
HETATM    3  C6  UNK     1      30.121  -5.545  37.250  1.00  0.00    -0.011 A 
HETATM    4  C7  UNK     1      29.394  -6.735  37.710  1.00  0.00     0.006 A 
HETATM    5  C8  UNK     1      30.111  -4.443  38.013  1.00  0.00     0.092 A 
HETATM    6  C9  UNK     1      28.716  -6.675  38.928  1.00  0.00     0.090 A 
HETATM    7  C10 UNK     1      29.339  -7.939  36.994  1.00  0.00     0.015 A 
HETATM    8  C11 UNK     1      28.001  -7.761  39.439  1.00  0.00     0.045 A 
HETATM    9  C12 UNK     1      29.400  -4.363  39.301  1.00  0.00     0.288 A 
HETATM   10  C13 UNK     1      27.958  -8.946  38.713  1.00  0.00    -0.059 A 
HETATM   11  C14 UNK     1      28.626  -9.035  37.493  1.00  0.00     0.007 A 
HETATM   12  C15 UNK     1      27.200 -10.119  39.237  1.00  0.00     0.048 C 
ENDROOT
BRANCH   3  13
HETATM   13  C3  UNK     1      30.861  -5.577  35.944  1.00  0.00     0.312 C 
BRANCH  13  14
HETATM   14  N1  UNK     1      32.249  -5.147  36.097  1.00  0.00     0.096 N 
HETATM   15  C1  UNK     1      33.091  -6.258  36.557  1.00  0.00     0.302 C 
HETATM   16  C4  UNK     1      34.547  -5.808  36.706  1.00  0.00     0.299 C 
HETATM   17  N2  UNK     1      35.074  -5.253  35.457  1.00  0.00     0.086 N 
HETATM   18  C5  UNK     1      34.223  -4.154  34.997  1.00  0.00     0.299 C 
HETATM   19  H11 UNK     1      36.021  -4.911  35.608  1.00  0.00     0.315 HD
HETATM   20  C2  UNK     1      32.766  -4.594  34.838  1.00  0.00     0.302 C 
ENDBRANCH  13  14
ENDBRANCH   3  13
TORSDOF 2
ENDMDL
MODEL 2
REMARK VINA RESULT:      -7.5     15.069     16.205
REMARK  2 active torsions:
REMARK  status: ('A' for Active; 'I' for Inactive)
REMARK    1  A    between atoms: C3_7  and  N1_3 
REMARK    2  A    between atoms: C3_7  and  C6_10 
ROOT
HETATM    1  O1  UNK     1      18.771   0.072  33.423  1.00  0.00    -0.275 OA
HETATM    2  O2  UNK     1      17.929   1.001  35.335  1.00  0.00    -0.260 OA
HETATM    3  C6  UNK     1      18.365   2.565  32.150  1.00  0.00    -0.011 A 
HETATM    4  C7  UNK     1      18.933   1.435  31.403  1.00  0.00     0.006 A 
HETATM    5  C8  UNK     1      18.045   2.395  33.440  1.00  0.00     0.092 A 
HETATM    6  C9  UNK     1      19.117   0.221  32.065  1.00  0.00     0.090 A 
HETATM    7  C10 UNK     1      19.304   1.503  30.053  1.00  0.00     0.015 A 
HETATM    8  C11 UNK     1      19.651  -0.902  31.429  1.00  0.00     0.045 A 
HETATM    9  C12 UNK     1      18.234   1.120  34.154  1.00  0.00     0.288 A 
HETATM   10  C13 UNK     1      20.012  -0.815  30.089  1.00  0.00    -0.059 A 
HETATM   11  C14 UNK     1      19.839   0.385  29.402  1.00  0.00     0.007 A 
HETATM   12  C15 UNK     1      20.583  -2.001  29.389  1.00  0.00     0.048 C 
ENDROOT
BRANCH   3  13
HETATM   13  C3  UNK     1      18.153   3.885  31.466  1.00  0.00     0.312 C 
BRANCH  13  14
HETATM   14  N1  UNK     1      18.307   5.006  32.391  1.00  0.00     0.096 N 
HETATM   15  C1  UNK     1      19.498   5.797  32.057  1.00  0.00     0.302 C 
HETATM   16  C4  UNK     1      19.651   6.977  33.021  1.00  0.00     0.299 C 
HETATM   17  N2  UNK     1      18.459   7.829  33.030  1.00  0.00     0.086 N 
HETATM   18  C5  UNK     1      17.275   7.030  33.353  1.00  0.00     0.299 C 
HETATM   19  H11 UNK     1      18.572   8.567  33.723  1.00  0.00     0.315 HD
HETATM   20  C2  UNK     1      17.107   5.852  32.391  1.00  0.00     0.302 C 
ENDBRANCH  13  14
ENDBRANCH   3  13
TORSDOF 2
ENDMDL
MODEL 3
REMARK VINA RESULT:      -7.3     34.641     36.185
REMARK  2 active torsions:
REMARK  status: ('A' for Active; 'I' for Inactive)
REMARK    1  A    between atoms: C3_7  and  N1_3 
REMARK    2  A    between atoms: C3_7  and  C6_10 
ROOT
HETATM    1  O1  UNK     1      16.403   6.074   9.856  1.00  0.00    -0.275 OA
HETATM    2  O2  UNK     1      15.780   3.874   9.813  1.00  0.00    -0.260 OA
HETATM    3  C6  UNK     1      13.669   6.752   9.604  1.00  0.00    -0.011 A 
HETATM    4  C7  UNK     1      14.690   7.806   9.690  1.00  0.00     0.006 A 
HETATM    5  C8  UNK     1      14.055   5.470   9.647  1.00  0.00     0.092 A 
HETATM    6  C9  UNK     1      16.028   7.431   9.813  1.00  0.00     0.090 A 
HETATM    7  C10 UNK     1      14.398   9.176   9.656  1.00  0.00     0.015 A 
HETATM    8  C11 UNK     1      17.060   8.368   9.902  1.00  0.00     0.045 A 
HETATM    9  C12 UNK     1      15.463   5.058   9.778  1.00  0.00     0.288 A 
HETATM   10  C13 UNK     1      16.751   9.723   9.866  1.00  0.00    -0.059 A 
HETATM   11  C14 UNK     1      15.422  10.127   9.743  1.00  0.00     0.007 A 
HETATM   12  C15 UNK     1      17.835  10.742   9.958  1.00  0.00     0.048 C 
ENDROOT
BRANCH   3  13
HETATM   13  C3  UNK     1      12.220   7.123   9.470  1.00  0.00     0.312 C 
BRANCH  13  14
HETATM   14  N1  UNK     1      11.602   6.479   8.313  1.00  0.00     0.096 N 
HETATM   15  C1  UNK     1      10.167   6.785   8.251  1.00  0.00     0.302 C 
HETATM   16  C4  UNK     1       9.522   6.119   7.033  1.00  0.00     0.299 C 
HETATM   17  N2  UNK     1      10.182   6.515   5.786  1.00  0.00     0.086 N 
HETATM   18  C5  UNK     1      11.614   6.217   5.859  1.00  0.00     0.299 C 
HETATM   19  H11 UNK     1       9.767   6.009   5.005  1.00  0.00     0.315 HD
HETATM   20  C2  UNK     1      12.270   6.884   7.070  1.00  0.00     0.302 C 
ENDBRANCH  13  14
ENDBRANCH   3  13
TORSDOF 2
ENDMDL
MODEL 4
REMARK VINA RESULT:      -7.2     16.446     17.912
REMARK  2 active torsions:
REMARK  status: ('A' for Active; 'I' for Inactive)
REMARK    1  A    between atoms: C3_7  and  N1_3 
REMARK    2  A    between atoms: C3_7  and  C6_10 
ROOT
HETATM    1  O1  UNK     1      20.612   6.926  33.146  1.00  0.00    -0.275 OA
HETATM    2  O2  UNK     1      22.597   6.129  32.340  1.00  0.00    -0.260 OA
HETATM    3  C6  UNK     1      19.317   5.546  31.044  1.00  0.00    -0.011 A 
HETATM    4  C7  UNK     1      18.534   6.329  32.010  1.00  0.00     0.006 A 
HETATM    5  C8  UNK     1      20.650   5.497  31.176  1.00  0.00     0.092 A 
HETATM    6  C9  UNK     1      19.209   6.996  33.032  1.00  0.00     0.090 A 
HETATM    7  C10 UNK     1      17.139   6.447  31.966  1.00  0.00     0.015 A 
HETATM    8  C11 UNK     1      18.542   7.761  33.992  1.00  0.00     0.045 A 
HETATM    9  C12 UNK     1      21.377   6.195  32.250  1.00  0.00     0.288 A 
HETATM   10  C13 UNK     1      17.157   7.867  33.931  1.00  0.00    -0.059 A 
HETATM   11  C14 UNK     1      16.456   7.211  32.920  1.00  0.00     0.007 A 
HETATM   12  C15 UNK     1      16.422   8.678  34.944  1.00  0.00     0.048 C 
ENDROOT
BRANCH   3  13
HETATM   13  C3  UNK     1      18.621   4.817  29.931  1.00  0.00     0.312 C 
BRANCH  13  14
HETATM   14  N1  UNK     1      18.946   3.392  29.931  1.00  0.00     0.096 N 
HETATM   15  C1  UNK     1      18.601   2.778  31.219  1.00  0.00     0.302 C 
HETATM   16  C4  UNK     1      18.933   1.283  31.213  1.00  0.00     0.299 C 
HETATM   17  N2  UNK     1      18.258   0.583  30.118  1.00  0.00     0.086 N 
HETATM   18  C5  UNK     1      18.597   1.207  28.837  1.00  0.00     0.299 C 
HETATM   19  H11 UNK     1      18.546  -0.394  30.108  1.00  0.00     0.315 HD
HETATM   20  C2  UNK     1      18.263   2.701  28.830  1.00  0.00     0.302 C 
ENDBRANCH  13  14
ENDBRANCH   3  13
TORSDOF 2
ENDMDL
MODEL 5
REMARK VINA RESULT:      -7.1     18.911     20.530
REMARK  2 active torsions:
REMARK  status: ('A' for Active; 'I' for Inactive)
REMARK    1  A    between atoms: C3_7  and  N1_3 
REMARK    2  A    between atoms: C3_7  and  C6_10 
ROOT
HETATM    1  O1  UNK     1      14.423   8.779  32.894  1.00  0.00    -0.275 OA
HETATM    2  O2  UNK     1      13.406   6.935  32.004  1.00  0.00    -0.260 OA
HETATM    3  C6  UNK     1      16.884   7.404  32.681  1.00  0.00    -0.011 A 
HETATM    4  C7  UNK     1      16.842   8.767  33.227  1.00  0.00     0.006 A 
HETATM    5  C8  UNK     1      15.741   6.827  32.286  1.00  0.00     0.092 A 
HETATM    6  C9  UNK     1      15.608   9.412  33.317  1.00  0.00     0.090 A 
HETATM    7  C10 UNK     1      17.974   9.464  33.668  1.00  0.00     0.015 A 
HETATM    8  C11 UNK     1      15.479  10.708  33.823  1.00  0.00     0.045 A 
HETATM    9  C12 UNK     1      14.431   7.495  32.374  1.00  0.00     0.288 A 
HETATM   10  C13 UNK     1      16.615  11.383  34.256  1.00  0.00    -0.059 A 
HETATM   11  C14 UNK     1      17.861  10.762  34.178  1.00  0.00     0.007 A 
HETATM   12  C15 UNK     1      16.502  12.766  34.801  1.00  0.00     0.048 C 
ENDROOT
BRANCH   3  13
HETATM   13  C3  UNK     1      18.196   6.681  32.571  1.00  0.00     0.312 C 
BRANCH  13  14
HETATM   14  N1  UNK     1      18.123   5.565  31.632  1.00  0.00     0.096 N 
HETATM   15  C1  UNK     1      19.140   5.701  30.581  1.00  0.00     0.302 C 
HETATM   16  C4  UNK     1      19.069   4.524  29.603  1.00  0.00     0.299 C 
HETATM   17  N2  UNK     1      19.215   3.239  30.290  1.00  0.00     0.086 N 
HETATM   18  C5  UNK     1      18.206   3.115  31.344  1.00  0.00     0.299 C 
HETATM   19  H11 UNK     1      19.104   2.479  29.621  1.00  0.00     0.315 HD
HETATM   20  C2  UNK     1      18.272   4.282  32.332  1.00  0.00     0.302 C 
ENDBRANCH  13  14
ENDBRANCH   3  13
TORSDOF 2
ENDMDL
MODEL 6
REMARK VINA RESULT:      -7.0     11.174     12.968
REMARK  2 active torsions:
REMARK  status: ('A' for Active; 'I' for Inactive)
REMARK    1  A    between atoms: C3_7  and  N1_3 
REMARK    2  A    between atoms: C3_7  and  C6_10 
ROOT
HETATM    1  O1  UNK     1      19.404  -0.995  34.147  1.00  0.00    -0.275 OA
HETATM    2  O2  UNK     1      20.634  -2.188  32.633  1.00  0.00    -0.260 OA
HETATM    3  C6  UNK     1      19.823  -3.096  35.994  1.00  0.00    -0.011 A 
HETATM    4  C7  UNK     1      19.038  -1.916  36.379  1.00  0.00     0.006 A 
HETATM    5  C8  UNK     1      20.336  -3.159  34.757  1.00  0.00     0.092 A 
HETATM    6  C9  UNK     1      18.853  -0.901  35.440  1.00  0.00     0.090 A 
HETATM    7  C10 UNK     1      18.458  -1.746  37.644  1.00  0.00     0.015 A 
HETATM    8  C11 UNK     1      18.121   0.254  35.725  1.00  0.00     0.045 A 
HETATM    9  C12 UNK     1      20.150  -2.096  33.755  1.00  0.00     0.288 A 
HETATM   10  C13 UNK     1      17.553   0.404  36.985  1.00  0.00    -0.059 A 
HETATM   11  C14 UNK     1      17.721  -0.595  37.943  1.00  0.00     0.007 A 
HETATM   12  C15 UNK     1      16.766   1.628  37.312  1.00  0.00     0.048 C 
ENDROOT
BRANCH   3  13
HETATM   13  C3  UNK     1      20.040  -4.206  36.981  1.00  0.00     0.312 C 
BRANCH  13  14
HETATM   14  N1  UNK     1      19.932  -5.520  36.351  1.00  0.00     0.096 N 
HETATM   15  C1  UNK     1      20.921  -6.450  36.912  1.00  0.00     0.302 C 
HETATM   16  C4  UNK     1      20.798  -7.830  36.258  1.00  0.00     0.299 C 
HETATM   17  N2  UNK     1      19.447  -8.378  36.397  1.00  0.00     0.086 N 
HETATM   18  C5  UNK     1      18.466  -7.440  35.847  1.00  0.00     0.299 C 
HETATM   19  H11 UNK     1      19.386  -9.266  35.902  1.00  0.00     0.315 HD
HETATM   20  C2  UNK     1      18.574  -6.060  36.498  1.00  0.00     0.302 C 
ENDBRANCH  13  14
ENDBRANCH   3  13
TORSDOF 2
ENDMDL
MODEL 7
REMARK VINA RESULT:      -7.0      2.538      6.083
REMARK  2 active torsions:
REMARK  status: ('A' for Active; 'I' for Inactive)
REMARK    1  A    between atoms: C3_7  and  N1_3 
REMARK    2  A    between atoms: C3_7  and  C6_10 
ROOT
HETATM    1  O1  UNK     1      30.826  -3.761  38.341  1.00  0.00    -0.275 OA
HETATM    2  O2  UNK     1      29.356  -3.600  40.084  1.00  0.00    -0.260 OA
HETATM    3  C6  UNK     1      29.490  -6.128  37.560  1.00  0.00    -0.011 A 
HETATM    4  C7  UNK     1      30.636  -5.633  36.785  1.00  0.00     0.006 A 
HETATM    5  C8  UNK     1      29.091  -5.440  38.639  1.00  0.00     0.092 A 
HETATM    6  C9  UNK     1      31.269  -4.462  37.202  1.00  0.00     0.090 A 
HETATM    7  C10 UNK     1      31.136  -6.271  35.642  1.00  0.00     0.015 A 
HETATM    8  C11 UNK     1      32.364  -3.923  36.523  1.00  0.00     0.045 A 
HETATM    9  C12 UNK     1      29.748  -4.202  39.091  1.00  0.00     0.288 A 
HETATM   10  C13 UNK     1      32.846  -4.572  35.391  1.00  0.00    -0.059 A 
HETATM   11  C14 UNK     1      32.233  -5.744  34.951  1.00  0.00     0.007 A 
HETATM   12  C15 UNK     1      34.014  -4.016  34.649  1.00  0.00     0.048 C 
ENDROOT
BRANCH   3  13
HETATM   13  C3  UNK     1      28.787  -7.386  37.137  1.00  0.00     0.312 C 
BRANCH  13  14
HETATM   14  N1  UNK     1      28.151  -8.057  38.269  1.00  0.00     0.096 N 
HETATM   15  C1  UNK     1      26.705  -8.188  38.052  1.00  0.00     0.302 C 
HETATM   16  C4  UNK     1      26.042  -8.902  39.233  1.00  0.00     0.299 C 
HETATM   17  N2  UNK     1      26.642 -10.215  39.479  1.00  0.00     0.086 N 
HETATM   18  C5  UNK     1      28.086 -10.078  39.684  1.00  0.00     0.299 C 
HETATM   19  H11 UNK     1      26.219 -10.634  40.305  1.00  0.00     0.315 HD
HETATM   20  C2  UNK     1      28.760  -9.372  38.505  1.00  0.00     0.302 C 
ENDBRANCH  13  14
ENDBRANCH   3  13
TORSDOF 2
ENDMDL
MODEL 8
REMARK VINA RESULT:      -7.0     14.546     15.529
REMARK  2 active torsions:
REMARK  status: ('A' for Active; 'I' for Inactive)
REMARK    1  A    between atoms: C3_7  and  N1_3 
REMARK    2  A    between atoms: C3_7  and  C6_10 
ROOT
HETATM    1  O1  UNK     1      20.281  -1.060  30.443  1.00  0.00    -0.275 OA
HETATM    2  O2  UNK     1      20.742  -0.606  28.250  1.00  0.00    -0.260 OA
HETATM    3  C6  UNK     1      18.831   1.366  30.539  1.00  0.00    -0.011 A 
HETATM    4  C7  UNK     1      18.932   0.515  31.732  1.00  0.00     0.006 A 
HETATM    5  C8  UNK     1      19.434   0.973  29.409  1.00  0.00     0.092 A 
HETATM    6  C9  UNK     1      19.657  -0.674  31.645  1.00  0.00     0.090 A 
HETATM    7  C10 UNK     1      18.341   0.828  32.964  1.00  0.00     0.015 A 
HETATM    8  C11 UNK     1      19.803  -1.540  32.732  1.00  0.00     0.045 A 
HETATM    9  C12 UNK     1      20.202  -0.279  29.301  1.00  0.00     0.288 A 
HETATM   10  C13 UNK     1      19.209  -1.212  33.945  1.00  0.00    -0.059 A 
HETATM   11  C14 UNK     1      18.479  -0.030  34.061  1.00  0.00     0.007 A 
HETATM   12  C15 UNK     1      19.351  -2.120  35.119  1.00  0.00     0.048 C 
ENDROOT
BRANCH   3  13
HETATM   13  C3  UNK     1      18.059   2.652  30.600  1.00  0.00     0.312 C 
BRANCH  13  14
HETATM   14  N1  UNK     1      18.885   3.757  31.082  1.00  0.00     0.096 N 
HETATM   15  C1  UNK     1      19.178   4.701  29.995  1.00  0.00     0.302 C 
HETATM   16  C4  UNK     1      20.034   5.864  30.505  1.00  0.00     0.299 C 
HETATM   17  N2  UNK     1      19.394   6.558  31.624  1.00  0.00     0.086 N 
HETATM   18  C5  UNK     1      19.095   5.610  32.699  1.00  0.00     0.299 C 
HETATM   19  H11 UNK     1      20.016   7.285  31.974  1.00  0.00     0.315 HD
HETATM   20  C2  UNK     1      18.233   4.446  32.203  1.00  0.00     0.302 C 
ENDBRANCH  13  14
ENDBRANCH   3  13
TORSDOF 2
ENDMDL
MODEL 9
REMARK VINA RESULT:      -7.0     34.891     36.168
REMARK  2 active torsions:
REMARK  status: ('A' for Active; 'I' for Inactive)
REMARK    1  A    between atoms: C3_7  and  N1_3 
REMARK    2  A    between atoms: C3_7  and  C6_10 
ROOT
HETATM    1  O1  UNK     1      13.827   4.675   8.688  1.00  0.00    -0.275 OA
HETATM    2  O2  UNK     1      15.652   3.976   9.875  1.00  0.00    -0.260 OA
HETATM    3  C6  UNK     1      14.343   7.293   9.626  1.00  0.00    -0.011 A 
HETATM    4  C7  UNK     1      13.203   7.035   8.736  1.00  0.00     0.006 A 
HETATM    5  C8  UNK     1      15.131   6.270   9.984  1.00  0.00     0.092 A 
HETATM    6  C9  UNK     1      12.981   5.730   8.295  1.00  0.00     0.090 A 
HETATM    7  C10 UNK     1      12.317   8.029   8.299  1.00  0.00     0.015 A 
HETATM    8  C11 UNK     1      11.922   5.399   7.447  1.00  0.00     0.045 A 
HETATM    9  C12 UNK     1      14.911   4.887   9.527  1.00  0.00     0.288 A 
HETATM   10  C13 UNK     1      11.053   6.399   7.025  1.00  0.00    -0.059 A 
HETATM   11  C14 UNK     1      11.250   7.713   7.450  1.00  0.00     0.007 A 
HETATM   12  C15 UNK     1       9.914   6.070   6.121  1.00  0.00     0.048 C 
ENDROOT
BRANCH   3  13
HETATM   13  C3  UNK     1      14.609   8.686  10.118  1.00  0.00     0.312 C 
BRANCH  13  14
HETATM   14  N1  UNK     1      15.511   9.413   9.227  1.00  0.00     0.096 N 
HETATM   15  C1  UNK     1      14.870  10.631   8.718  1.00  0.00     0.302 C 
HETATM   16  C4  UNK     1      15.820  11.397   7.793  1.00  0.00     0.299 C 
HETATM   17  N2  UNK     1      17.080  11.726   8.462  1.00  0.00     0.086 N 
HETATM   18  C5  UNK     1      17.708  10.508   8.978  1.00  0.00     0.299 C 
HETATM   19  H11 UNK     1      17.709  12.181   7.802  1.00  0.00     0.315 HD
HETATM   20  C2  UNK     1      16.770   9.737   9.910  1.00  0.00     0.302 C 
ENDBRANCH  13  14
ENDBRANCH   3  13
TORSDOF 2
ENDMDL
MODEL 10
REMARK VINA RESULT:      -7.0      0.960      1.234
REMARK  2 active torsions:
REMARK  status: ('A' for Active; 'I' for Inactive)
REMARK    1  A    between atoms: C3_7  and  N1_3 
REMARK    2  A    between atoms: C3_7  and  C6_10 
ROOT
HETATM    1  O1  UNK     1      28.558  -5.392  39.483  1.00  0.00    -0.275 OA
HETATM    2  O2  UNK     1      29.371  -3.269  39.728  1.00  0.00    -0.260 OA
HETATM    3  C6  UNK     1      31.064  -6.120  38.391  1.00  0.00    -0.011 A 
HETATM    4  C7  UNK     1      29.995  -7.119  38.525  1.00  0.00     0.006 A 
HETATM    5  C8  UNK     1      30.831  -4.863  38.795  1.00  0.00     0.092 A 
HETATM    6  C9  UNK     1      28.773  -6.721  39.068  1.00  0.00     0.090 A 
HETATM    7  C10 UNK     1      30.130  -8.459  38.137  1.00  0.00     0.015 A 
HETATM    8  C11 UNK     1      27.705  -7.607  39.231  1.00  0.00     0.045 A 
HETATM    9  C12 UNK     1      29.548  -4.428  39.370  1.00  0.00     0.288 A 
HETATM   10  C13 UNK     1      27.858  -8.933  38.839  1.00  0.00    -0.059 A 
HETATM   11  C14 UNK     1      29.068  -9.358  38.293  1.00  0.00     0.007 A 
HETATM   12  C15 UNK     1      26.732  -9.897  39.002  1.00  0.00     0.048 C 
ENDROOT
BRANCH   3  13
HETATM   13  C3  UNK     1      32.391  -6.516  37.810  1.00  0.00     0.312 C 
BRANCH  13  14
HETATM   14  N1  UNK     1      32.857  -5.550  36.818  1.00  0.00     0.096 N 
HETATM   15  C1  UNK     1      34.300  -5.695  36.588  1.00  0.00     0.302 C 
HETATM   16  C4  UNK     1      34.785  -4.690  35.539  1.00  0.00     0.299 C 
HETATM   17  N2  UNK     1      34.052  -4.825  34.278  1.00  0.00     0.086 N 
HETATM   18  C5  UNK     1      32.613  -4.691  34.517  1.00  0.00     0.299 C 
HETATM   19  H11 UNK     1      34.358  -4.105  33.626  1.00  0.00     0.315 HD
HETATM   20  C2  UNK     1      32.116  -5.696  35.558  1.00  0.00     0.302 C 
ENDBRANCH  13  14
ENDBRANCH   3  13
TORSDOF 2
ENDMDL
