MODEL 1
REMARK VINA RESULT:     -10.5      0.000      0.000
REMARK  8 active torsions:
REMARK  status: ('A' for Active; 'I' for Inactive)
REMARK    1  A    between atoms: C1_9  and  O1_1 
REMARK    2  A    between atoms: C5_13  and  O1_1 
REMARK    3  A    between atoms: C10_18  and  O3_3 
REMARK    4  A    between atoms: C9_17  and  O3_3 
REMARK       I    between atoms: C7_15  and  N1_7 
REMARK    5  A    between atoms: N1_7  and  N2_8 
REMARK       I    between atoms: C15_23  and  N2_8 
REMARK    6  A    between atoms: C1_9  and  C7_15 
REMARK    7  A    between atoms: C15_23  and  C4_12 
REMARK    8  A    between atoms: C10_18  and  C14_22 
ROOT
HETATM    1  O4  UNK     1      17.850  -0.971  37.921  1.00  0.00    -0.269 OA
HETATM    2  N1  UNK     1      18.013  -2.181  35.949  1.00  0.00    -0.265 N 
HETATM    3  C7  UNK     1      17.774  -1.044  36.696  1.00  0.00     0.265 C 
HETATM    4  H14 UNK     1      17.914  -2.235  34.941  1.00  0.00     0.190 HD
ENDROOT
BRANCH   3   5
HETATM    5  C1  UNK     1      17.415   0.154  35.828  1.00  0.00     0.218 C 
HETATM    6  C8  UNK     1      16.046  -0.021  35.192  1.00  0.00     0.050 C 
BRANCH   5   7
HETATM    7  O1  UNK     1      18.374   0.284  34.792  1.00  0.00    -0.337 OA
BRANCH   7   8
HETATM    8  C5  UNK     1      18.332   1.434  34.047  1.00  0.00     0.070 A 
HETATM    9  C12 UNK     1      18.343   1.364  32.653  1.00  0.00     0.039 A 
HETATM   10  C16 UNK     1      18.299   2.534  31.896  1.00  0.00     0.039 A 
HETATM   11  C9  UNK     1      18.246   3.775  32.532  1.00  0.00     0.069 A 
HETATM   12  C17 UNK     1      18.237   3.845  33.924  1.00  0.00     0.039 A 
HETATM   13  C13 UNK     1      18.280   2.676  34.682  1.00  0.00     0.039 A 
BRANCH  11  14
HETATM   14  O3  UNK     1      18.202   4.917  31.792  1.00  0.00    -0.347 OA
BRANCH  14  15
HETATM   15  C10 UNK     1      19.368   5.738  31.795  1.00  0.00     0.214 C 
BRANCH  15  16
HETATM   16  C14 UNK     1      19.112   6.951  32.639  1.00  0.00    -0.034 A 
HETATM   17  C22 UNK     1      20.084   7.394  33.536  1.00  0.00     0.009 A 
HETATM   18  C24 UNK     1      19.847   8.523  34.321  1.00  0.00     0.001 A 
HETATM   19  C26 UNK     1      18.637   9.209  34.208  1.00  0.00     0.000 A 
HETATM   20  C25 UNK     1      17.666   8.766  33.310  1.00  0.00     0.001 A 
HETATM   21  C23 UNK     1      17.903   7.638  32.526  1.00  0.00     0.009 A 
ENDBRANCH  15  16
ENDBRANCH  14  15
ENDBRANCH  11  14
ENDBRANCH   7   8
ENDBRANCH   5   7
ENDBRANCH   3   5
BRANCH   2  22
HETATM   22  N2  UNK     1      18.368  -3.340  36.594  1.00  0.00    -0.263 N 
HETATM   23  C15 UNK     1      19.555  -3.957  36.259  1.00  0.00     0.276 C 
HETATM   24  O5  UNK     1      20.363  -3.573  35.415  1.00  0.00    -0.266 OA
HETATM   25  H15 UNK     1      17.705  -3.692  37.276  1.00  0.00     0.190 HD
BRANCH  23  26
HETATM   26  C4  UNK     1      19.794  -5.181  37.034  1.00  0.00     0.110 A 
HETATM   27  C18 UNK     1      18.777  -6.251  37.146  1.00  0.00     0.304 A 
HETATM   28  O2  UNK     1      19.121  -7.363  37.908  1.00  0.00    -0.274 OA
HETATM   29  O6  UNK     1      17.683  -6.166  36.596  1.00  0.00    -0.259 OA
HETATM   30  C3  UNK     1      20.374  -7.471  38.542  1.00  0.00     0.089 A 
HETATM   31  C19 UNK     1      20.627  -8.623  39.284  1.00  0.00     0.038 A 
HETATM   32  C2  UNK     1      21.316  -6.454  38.424  1.00  0.00    -0.001 A 
HETATM   33  C21 UNK     1      21.858  -8.758  39.923  1.00  0.00     0.003 A 
HETATM   34  C20 UNK     1      22.816  -7.747  39.816  1.00  0.00     0.001 A 
HETATM   35  C11 UNK     1      22.547  -6.596  39.069  1.00  0.00     0.014 A 
HETATM   36  C6  UNK     1      20.986  -5.278  37.634  1.00  0.00     0.037 A 
ENDBRANCH  23  26
ENDBRANCH   2  22
TORSDOF 8
ENDMDL
MODEL 2
REMARK VINA RESULT:     -10.2      2.089     12.627
REMARK  8 active torsions:
REMARK  status: ('A' for Active; 'I' for Inactive)
REMARK    1  A    between atoms: C1_9  and  O1_1 
REMARK    2  A    between atoms: C5_13  and  O1_1 
REMARK    3  A    between atoms: C10_18  and  O3_3 
REMARK    4  A    between atoms: C9_17  and  O3_3 
REMARK       I    between atoms: C7_15  and  N1_7 
REMARK    5  A    between atoms: N1_7  and  N2_8 
REMARK       I    between atoms: C15_23  and  N2_8 
REMARK    6  A    between atoms: C1_9  and  C7_15 
REMARK    7  A    between atoms: C15_23  and  C4_12 
REMARK    8  A    between atoms: C10_18  and  C14_22 
ROOT
HETATM    1  O4  UNK     1      20.057  -2.157  33.941  1.00  0.00    -0.269 OA
HETATM    2  N1  UNK     1      18.912  -0.583  35.203  1.00  0.00    -0.265 N 
HETATM    3  C7  UNK     1      19.453  -1.832  34.961  1.00  0.00     0.265 C 
HETATM    4  H14 UNK     1      18.388  -0.339  36.036  1.00  0.00     0.190 HD
ENDROOT
BRANCH   3   5
HETATM    5  C1  UNK     1      19.239  -2.790  36.123  1.00  0.00     0.218 C 
HETATM    6  C8  UNK     1      19.037  -2.033  37.427  1.00  0.00     0.050 C 
BRANCH   5   7
HETATM    7  O1  UNK     1      20.381  -3.618  36.263  1.00  0.00    -0.337 OA
BRANCH   7   8
HETATM    8  C5  UNK     1      20.228  -4.773  36.987  1.00  0.00     0.070 A 
HETATM    9  C12 UNK     1      19.193  -5.657  36.679  1.00  0.00     0.039 A 
HETATM   10  C16 UNK     1      19.037  -6.831  37.414  1.00  0.00     0.039 A 
HETATM   11  C9  UNK     1      19.916  -7.123  38.457  1.00  0.00     0.069 A 
HETATM   12  C17 UNK     1      20.950  -6.239  38.766  1.00  0.00     0.039 A 
HETATM   13  C13 UNK     1      21.106  -5.065  38.031  1.00  0.00     0.039 A 
BRANCH  11  14
HETATM   14  O3  UNK     1      19.765  -8.271  39.174  1.00  0.00    -0.347 OA
BRANCH  14  15
HETATM   15  C10 UNK     1      20.902  -9.125  39.280  1.00  0.00     0.214 C 
BRANCH  15  16
HETATM   16  C14 UNK     1      21.226  -9.679  37.924  1.00  0.00    -0.034 A 
HETATM   17  C22 UNK     1      20.370 -10.604  37.326  1.00  0.00     0.009 A 
HETATM   18  C24 UNK     1      20.670 -11.120  36.064  1.00  0.00     0.001 A 
HETATM   19  C26 UNK     1      21.827 -10.711  35.402  1.00  0.00     0.000 A 
HETATM   20  C25 UNK     1      22.683  -9.786  36.000  1.00  0.00     0.001 A 
HETATM   21  C23 UNK     1      22.383  -9.270  37.261  1.00  0.00     0.009 A 
ENDBRANCH  15  16
ENDBRANCH  14  15
ENDBRANCH  11  14
ENDBRANCH   7   8
ENDBRANCH   5   7
ENDBRANCH   3   5
BRANCH   2  22
HETATM   22  N2  UNK     1      19.044   0.396  34.250  1.00  0.00    -0.263 N 
HETATM   23  C15 UNK     1      17.919   1.062  33.812  1.00  0.00     0.276 C 
HETATM   24  O5  UNK     1      16.765   0.870  34.192  1.00  0.00    -0.266 OA
HETATM   25  H15 UNK     1      19.983   0.555  33.901  1.00  0.00     0.190 HD
BRANCH  23  26
HETATM   26  C4  UNK     1      18.222   2.078  32.797  1.00  0.00     0.110 A 
HETATM   27  C18 UNK     1      18.683   1.716  31.437  1.00  0.00     0.304 A 
HETATM   28  O2  UNK     1      18.937   2.768  30.563  1.00  0.00    -0.274 OA
HETATM   29  O6  UNK     1      18.833   0.548  31.093  1.00  0.00    -0.259 OA
HETATM   30  C3  UNK     1      18.766   4.112  30.948  1.00  0.00     0.089 A 
HETATM   31  C19 UNK     1      19.046   5.097  30.002  1.00  0.00     0.038 A 
HETATM   32  C2  UNK     1      18.332   4.430  32.231  1.00  0.00    -0.001 A 
HETATM   33  C21 UNK     1      18.887   6.435  30.353  1.00  0.00     0.003 A 
HETATM   34  C20 UNK     1      18.453   6.774  31.637  1.00  0.00     0.001 A 
HETATM   35  C11 UNK     1      18.176   5.775  32.575  1.00  0.00     0.014 A 
HETATM   36  C6  UNK     1      18.058   3.352  33.168  1.00  0.00     0.037 A 
ENDBRANCH  23  26
ENDBRANCH   2  22
TORSDOF 8
ENDMDL
MODEL 3
REMARK VINA RESULT:     -10.0      1.007      2.036
REMARK  8 active torsions:
REMARK  status: ('A' for Active; 'I' for Inactive)
REMARK    1  A    between atoms: C1_9  and  O1_1 
REMARK    2  A    between atoms: C5_13  and  O1_1 
REMARK    3  A    between atoms: C10_18  and  O3_3 
REMARK    4  A    between atoms: C9_17  and  O3_3 
REMARK       I    between atoms: C7_15  and  N1_7 
REMARK    5  A    between atoms: N1_7  and  N2_8 
REMARK       I    between atoms: C15_23  and  N2_8 
REMARK    6  A    between atoms: C1_9  and  C7_15 
REMARK    7  A    between atoms: C15_23  and  C4_12 
REMARK    8  A    between atoms: C10_18  and  C14_22 
ROOT
HETATM    1  O4  UNK     1      17.845  -1.072  37.936  1.00  0.00    -0.269 OA
HETATM    2  N1  UNK     1      18.378  -2.250  36.010  1.00  0.00    -0.265 N 
HETATM    3  C7  UNK     1      17.912  -1.154  36.711  1.00  0.00     0.265 C 
HETATM    4  H14 UNK     1      18.397  -2.315  34.998  1.00  0.00     0.190 HD
ENDROOT
BRANCH   3   5
HETATM    5  C1  UNK     1      17.496  -0.013  35.793  1.00  0.00     0.218 C 
HETATM    6  C8  UNK     1      16.218  -0.353  35.043  1.00  0.00     0.050 C 
BRANCH   5   7
HETATM    7  O1  UNK     1      18.521   0.219  34.842  1.00  0.00    -0.337 OA
BRANCH   7   8
HETATM    8  C5  UNK     1      18.421   1.359  34.085  1.00  0.00     0.070 A 
HETATM    9  C12 UNK     1      18.271   2.598  34.707  1.00  0.00     0.039 A 
HETATM   10  C16 UNK     1      18.170   3.757  33.938  1.00  0.00     0.039 A 
HETATM   11  C9  UNK     1      18.218   3.676  32.546  1.00  0.00     0.069 A 
HETATM   12  C17 UNK     1      18.367   2.437  31.924  1.00  0.00     0.039 A 
HETATM   13  C13 UNK     1      18.468   1.278  32.693  1.00  0.00     0.039 A 
BRANCH  11  14
HETATM   14  O3  UNK     1      18.121   4.808  31.795  1.00  0.00    -0.347 OA
BRANCH  14  15
HETATM   15  C10 UNK     1      19.274   5.645  31.730  1.00  0.00     0.214 C 
BRANCH  15  16
HETATM   16  C14 UNK     1      19.046   6.861  32.578  1.00  0.00    -0.034 A 
HETATM   17  C22 UNK     1      17.838   7.554  32.492  1.00  0.00     0.009 A 
HETATM   18  C24 UNK     1      17.624   8.685  33.281  1.00  0.00     0.001 A 
HETATM   19  C26 UNK     1      18.619   9.122  34.155  1.00  0.00     0.000 A 
HETATM   20  C25 UNK     1      19.827   8.429  34.241  1.00  0.00     0.001 A 
HETATM   21  C23 UNK     1      20.040   7.298  33.453  1.00  0.00     0.009 A 
ENDBRANCH  15  16
ENDBRANCH  14  15
ENDBRANCH  11  14
ENDBRANCH   7   8
ENDBRANCH   5   7
ENDBRANCH   3   5
BRANCH   2  22
HETATM   22  N2  UNK     1      18.810  -3.352  36.705  1.00  0.00    -0.263 N 
HETATM   23  C15 UNK     1      19.747  -4.183  36.129  1.00  0.00     0.276 C 
HETATM   24  O5  UNK     1      20.259  -4.046  35.019  1.00  0.00    -0.266 OA
HETATM   25  H15 UNK     1      18.382  -3.502  37.612  1.00  0.00     0.190 HD
BRANCH  23  26
HETATM   26  C4  UNK     1      20.107  -5.314  36.993  1.00  0.00     0.110 A 
HETATM   27  C18 UNK     1      21.274  -5.266  37.902  1.00  0.00     0.304 A 
HETATM   28  O2  UNK     1      21.513  -6.400  38.672  1.00  0.00    -0.274 OA
HETATM   29  O6  UNK     1      21.998  -4.278  37.978  1.00  0.00    -0.259 OA
HETATM   30  C3  UNK     1      20.688  -7.539  38.595  1.00  0.00     0.089 A 
HETATM   31  C19 UNK     1      21.008  -8.627  39.406  1.00  0.00     0.038 A 
HETATM   32  C2  UNK     1      19.596  -7.563  37.733  1.00  0.00    -0.001 A 
HETATM   33  C21 UNK     1      20.210  -9.767  39.350  1.00  0.00     0.003 A 
HETATM   34  C20 UNK     1      19.110  -9.810  38.491  1.00  0.00     0.001 A 
HETATM   35  C11 UNK     1      18.802  -8.712  37.683  1.00  0.00     0.014 A 
HETATM   36  C6  UNK     1      19.320  -6.393  36.915  1.00  0.00     0.037 A 
ENDBRANCH  23  26
ENDBRANCH   2  22
TORSDOF 8
ENDMDL
MODEL 4
REMARK VINA RESULT:      -9.8      3.728     12.082
REMARK  8 active torsions:
REMARK  status: ('A' for Active; 'I' for Inactive)
REMARK    1  A    between atoms: C1_9  and  O1_1 
REMARK    2  A    between atoms: C5_13  and  O1_1 
REMARK    3  A    between atoms: C10_18  and  O3_3 
REMARK    4  A    between atoms: C9_17  and  O3_3 
REMARK       I    between atoms: C7_15  and  N1_7 
REMARK    5  A    between atoms: N1_7  and  N2_8 
REMARK       I    between atoms: C15_23  and  N2_8 
REMARK    6  A    between atoms: C1_9  and  C7_15 
REMARK    7  A    between atoms: C15_23  and  C4_12 
REMARK    8  A    between atoms: C10_18  and  C14_22 
ROOT
HETATM    1  O4  UNK     1      19.883  -6.785  34.958  1.00  0.00    -0.269 OA
HETATM    2  N1  UNK     1      18.950  -6.204  37.001  1.00  0.00    -0.265 N 
HETATM    3  C7  UNK     1      19.513  -7.081  36.092  1.00  0.00     0.265 C 
HETATM    4  H14 UNK     1      18.619  -6.470  37.922  1.00  0.00     0.190 HD
ENDROOT
BRANCH   3   5
HETATM    5  C1  UNK     1      19.654  -8.487  36.657  1.00  0.00     0.218 C 
HETATM    6  C8  UNK     1      18.332  -9.236  36.598  1.00  0.00     0.050 C 
BRANCH   5   7
HETATM    7  O1  UNK     1      20.060  -8.409  38.012  1.00  0.00    -0.337 OA
BRANCH   7   8
HETATM    8  C5  UNK     1      21.394  -8.196  38.251  1.00  0.00     0.070 A 
HETATM    9  C12 UNK     1      22.353  -8.787  37.428  1.00  0.00     0.039 A 
HETATM   10  C16 UNK     1      23.709  -8.570  37.669  1.00  0.00     0.039 A 
HETATM   11  C9  UNK     1      24.107  -7.762  38.734  1.00  0.00     0.069 A 
HETATM   12  C17 UNK     1      23.149  -7.171  39.558  1.00  0.00     0.039 A 
HETATM   13  C13 UNK     1      21.793  -7.388  39.317  1.00  0.00     0.039 A 
BRANCH  11  14
HETATM   14  O3  UNK     1      25.431  -7.549  38.969  1.00  0.00    -0.347 OA
BRANCH  14  15
HETATM   15  C10 UNK     1      26.252  -8.701  39.148  1.00  0.00     0.214 C 
BRANCH  15  16
HETATM   16  C14 UNK     1      27.672  -8.346  38.821  1.00  0.00    -0.034 A 
HETATM   17  C22 UNK     1      28.106  -7.025  38.939  1.00  0.00     0.009 A 
HETATM   18  C24 UNK     1      29.427  -6.694  38.636  1.00  0.00     0.001 A 
HETATM   19  C26 UNK     1      30.315  -7.685  38.215  1.00  0.00     0.000 A 
HETATM   20  C25 UNK     1      29.881  -9.006  38.097  1.00  0.00     0.001 A 
HETATM   21  C23 UNK     1      28.560  -9.336  38.401  1.00  0.00     0.009 A 
ENDBRANCH  15  16
ENDBRANCH  14  15
ENDBRANCH  11  14
ENDBRANCH   7   8
ENDBRANCH   5   7
ENDBRANCH   3   5
BRANCH   2  22
HETATM   22  N2  UNK     1      18.777  -4.891  36.641  1.00  0.00    -0.263 N 
HETATM   23  C15 UNK     1      19.774  -3.981  36.925  1.00  0.00     0.276 C 
HETATM   24  O5  UNK     1      20.842  -4.222  37.485  1.00  0.00    -0.266 OA
HETATM   25  H15 UNK     1      17.893  -4.662  36.200  1.00  0.00     0.190 HD
BRANCH  23  26
HETATM   26  C4  UNK     1      19.443  -2.622  36.479  1.00  0.00     0.110 A 
HETATM   27  C18 UNK     1      19.934  -2.077  35.193  1.00  0.00     0.304 A 
HETATM   28  O2  UNK     1      19.552  -0.776  34.880  1.00  0.00    -0.274 OA
HETATM   29  O6  UNK     1      20.641  -2.735  34.437  1.00  0.00    -0.259 OA
HETATM   30  C3  UNK     1      18.739  -0.012  35.740  1.00  0.00     0.089 A 
HETATM   31  C19 UNK     1      18.409   1.281  35.340  1.00  0.00     0.038 A 
HETATM   32  C2  UNK     1      18.289  -0.544  36.944  1.00  0.00    -0.001 A 
HETATM   33  C21 UNK     1      17.606   2.061  36.170  1.00  0.00     0.003 A 
HETATM   34  C20 UNK     1      17.146   1.544  37.384  1.00  0.00     0.001 A 
HETATM   35  C11 UNK     1      17.485   0.244  37.772  1.00  0.00     0.014 A 
HETATM   36  C6  UNK     1      18.671  -1.902  37.300  1.00  0.00     0.037 A 
ENDBRANCH  23  26
ENDBRANCH   2  22
TORSDOF 8
ENDMDL
MODEL 5
REMARK VINA RESULT:      -9.7      2.227     12.895
REMARK  8 active torsions:
REMARK  status: ('A' for Active; 'I' for Inactive)
REMARK    1  A    between atoms: C1_9  and  O1_1 
REMARK    2  A    between atoms: C5_13  and  O1_1 
REMARK    3  A    between atoms: C10_18  and  O3_3 
REMARK    4  A    between atoms: C9_17  and  O3_3 
REMARK       I    between atoms: C7_15  and  N1_7 
REMARK    5  A    between atoms: N1_7  and  N2_8 
REMARK       I    between atoms: C15_23  and  N2_8 
REMARK    6  A    between atoms: C1_9  and  C7_15 
REMARK    7  A    between atoms: C15_23  and  C4_12 
REMARK    8  A    between atoms: C10_18  and  C14_22 
ROOT
HETATM    1  O4  UNK     1      19.303   2.425  36.239  1.00  0.00    -0.269 OA
HETATM    2  N1  UNK     1      18.139   2.886  34.286  1.00  0.00    -0.265 N 
HETATM    3  C7  UNK     1      18.624   2.059  35.281  1.00  0.00     0.265 C 
HETATM    4  H14 UNK     1      17.608   2.565  33.484  1.00  0.00     0.190 HD
ENDROOT
BRANCH   3   5
HETATM    5  C1  UNK     1      18.206   0.610  35.084  1.00  0.00     0.218 C 
HETATM    6  C8  UNK     1      16.781   0.517  34.561  1.00  0.00     0.050 C 
BRANCH   5   7
HETATM    7  O1  UNK     1      18.268  -0.069  36.327  1.00  0.00    -0.337 OA
BRANCH   7   8
HETATM    8  C5  UNK     1      18.910  -1.281  36.343  1.00  0.00     0.070 A 
HETATM    9  C12 UNK     1      18.970  -2.023  37.523  1.00  0.00     0.039 A 
HETATM   10  C16 UNK     1      19.621  -3.256  37.539  1.00  0.00     0.039 A 
HETATM   11  C9  UNK     1      20.215  -3.746  36.375  1.00  0.00     0.069 A 
HETATM   12  C17 UNK     1      20.157  -3.003  35.196  1.00  0.00     0.039 A 
HETATM   13  C13 UNK     1      19.505  -1.771  35.180  1.00  0.00     0.039 A 
BRANCH  11  14
HETATM   14  O3  UNK     1      20.850  -4.950  36.390  1.00  0.00    -0.347 OA
BRANCH  14  15
HETATM   15  C10 UNK     1      20.079  -6.096  36.034  1.00  0.00     0.214 C 
BRANCH  15  16
HETATM   16  C14 UNK     1      19.995  -7.017  37.214  1.00  0.00    -0.034 A 
HETATM   17  C22 UNK     1      20.761  -6.763  38.353  1.00  0.00     0.009 A 
HETATM   18  C24 UNK     1      20.683  -7.619  39.452  1.00  0.00     0.001 A 
HETATM   19  C26 UNK     1      19.839  -8.729  39.412  1.00  0.00     0.000 A 
HETATM   20  C25 UNK     1      19.072  -8.982  38.274  1.00  0.00     0.001 A 
HETATM   21  C23 UNK     1      19.151  -8.126  37.176  1.00  0.00     0.009 A 
ENDBRANCH  15  16
ENDBRANCH  14  15
ENDBRANCH  11  14
ENDBRANCH   7   8
ENDBRANCH   5   7
ENDBRANCH   3   5
BRANCH   2  22
HETATM   22  N2  UNK     1      18.418   4.229  34.340  1.00  0.00    -0.263 N 
HETATM   23  C15 UNK     1      18.020   5.039  33.298  1.00  0.00     0.276 C 
HETATM   24  O5  UNK     1      17.420   4.682  32.285  1.00  0.00    -0.266 OA
HETATM   25  H15 UNK     1      18.936   4.544  35.153  1.00  0.00     0.190 HD
BRANCH  23  26
HETATM   26  C4  UNK     1      18.389   6.446  33.502  1.00  0.00     0.110 A 
HETATM   27  C18 UNK     1      19.800   6.892  33.526  1.00  0.00     0.304 A 
HETATM   28  O2  UNK     1      20.023   8.250  33.727  1.00  0.00    -0.274 OA
HETATM   29  O6  UNK     1      20.731   6.107  33.375  1.00  0.00    -0.259 OA
HETATM   30  C3  UNK     1      18.961   9.160  33.899  1.00  0.00     0.089 A 
HETATM   31  C19 UNK     1      19.284  10.502  34.094  1.00  0.00     0.038 A 
HETATM   32  C2  UNK     1      17.642   8.720  33.873  1.00  0.00    -0.001 A 
HETATM   33  C21 UNK     1      18.255  11.425  34.267  1.00  0.00     0.003 A 
HETATM   34  C20 UNK     1      16.924  11.002  34.246  1.00  0.00     0.001 A 
HETATM   35  C11 UNK     1      16.616   9.652  34.049  1.00  0.00     0.014 A 
HETATM   36  C6  UNK     1      17.377   7.305  33.665  1.00  0.00     0.037 A 
ENDBRANCH  23  26
ENDBRANCH   2  22
TORSDOF 8
ENDMDL
MODEL 6
REMARK VINA RESULT:      -9.7     25.538     28.131
REMARK  8 active torsions:
REMARK  status: ('A' for Active; 'I' for Inactive)
REMARK    1  A    between atoms: C1_9  and  O1_1 
REMARK    2  A    between atoms: C5_13  and  O1_1 
REMARK    3  A    between atoms: C10_18  and  O3_3 
REMARK    4  A    between atoms: C9_17  and  O3_3 
REMARK       I    between atoms: C7_15  and  N1_7 
REMARK    5  A    between atoms: N1_7  and  N2_8 
REMARK       I    between atoms: C15_23  and  N2_8 
REMARK    6  A    between atoms: C1_9  and  C7_15 
REMARK    7  A    between atoms: C15_23  and  C4_12 
REMARK    8  A    between atoms: C10_18  and  C14_22 
ROOT
HETATM    1  O4  UNK     1       9.031   6.603   9.971  1.00  0.00    -0.269 OA
HETATM    2  N1  UNK     1       8.026   4.885   8.780  1.00  0.00    -0.265 N 
HETATM    3  C7  UNK     1       8.765   6.046   8.908  1.00  0.00     0.265 C 
HETATM    4  H14 UNK     1       7.787   4.454   7.894  1.00  0.00     0.190 HD
ENDROOT
BRANCH   3   5
HETATM    5  C1  UNK     1       9.249   6.574   7.566  1.00  0.00     0.218 C 
HETATM    6  C8  UNK     1       8.087   6.783   6.608  1.00  0.00     0.050 C 
BRANCH   5   7
HETATM    7  O1  UNK     1      10.140   5.635   6.987  1.00  0.00    -0.337 OA
BRANCH   7   8
HETATM    8  C5  UNK     1      11.445   5.676   7.406  1.00  0.00     0.070 A 
HETATM    9  C12 UNK     1      11.949   4.661   8.221  1.00  0.00     0.039 A 
HETATM   10  C16 UNK     1      13.276   4.702   8.646  1.00  0.00     0.039 A 
HETATM   11  C9  UNK     1      14.101   5.758   8.256  1.00  0.00     0.069 A 
HETATM   12  C17 UNK     1      13.597   6.773   7.443  1.00  0.00     0.039 A 
HETATM   13  C13 UNK     1      12.270   6.733   7.019  1.00  0.00     0.039 A 
BRANCH  11  14
HETATM   14  O3  UNK     1      15.397   5.797   8.670  1.00  0.00    -0.347 OA
BRANCH  14  15
HETATM   15  C10 UNK     1      15.629   6.013  10.061  1.00  0.00     0.214 C 
BRANCH  15  16
HETATM   16  C14 UNK     1      15.864   7.475  10.298  1.00  0.00    -0.034 A 
HETATM   17  C22 UNK     1      14.961   8.211  11.066  1.00  0.00     0.009 A 
HETATM   18  C24 UNK     1      15.179   9.571  11.288  1.00  0.00     0.001 A 
HETATM   19  C26 UNK     1      16.300  10.196  10.741  1.00  0.00     0.000 A 
HETATM   20  C25 UNK     1      17.203   9.460   9.973  1.00  0.00     0.001 A 
HETATM   21  C23 UNK     1      16.985   8.100   9.752  1.00  0.00     0.009 A 
ENDBRANCH  15  16
ENDBRANCH  14  15
ENDBRANCH  11  14
ENDBRANCH   7   8
ENDBRANCH   5   7
ENDBRANCH   3   5
BRANCH   2  22
HETATM   22  N2  UNK     1       7.538   4.277   9.910  1.00  0.00    -0.263 N 
HETATM   23  C15 UNK     1       6.319   4.680  10.415  1.00  0.00     0.276 C 
HETATM   24  O5  UNK     1       5.591   5.555   9.950  1.00  0.00    -0.266 OA
HETATM   25  H15 UNK     1       8.133   3.570  10.328  1.00  0.00     0.190 HD
BRANCH  23  26
HETATM   26  C4  UNK     1       5.934   3.938  11.622  1.00  0.00     0.110 A 
HETATM   27  C18 UNK     1       5.489   2.527  11.568  1.00  0.00     0.304 A 
HETATM   28  O2  UNK     1       5.151   1.932  12.780  1.00  0.00    -0.274 OA
HETATM   29  O6  UNK     1       5.422   1.909  10.511  1.00  0.00    -0.259 OA
HETATM   30  C3  UNK     1       5.227   2.634  13.999  1.00  0.00     0.089 A 
HETATM   31  C19 UNK     1       4.867   1.952  15.161  1.00  0.00     0.038 A 
HETATM   32  C2  UNK     1       5.647   3.959  14.027  1.00  0.00    -0.001 A 
HETATM   33  C21 UNK     1       4.932   2.619  16.382  1.00  0.00     0.003 A 
HETATM   34  C20 UNK     1       5.350   3.951  16.430  1.00  0.00     0.001 A 
HETATM   35  C11 UNK     1       5.708   4.621  15.256  1.00  0.00     0.014 A 
HETATM   36  C6  UNK     1       6.008   4.609  12.777  1.00  0.00     0.037 A 
ENDBRANCH  23  26
ENDBRANCH   2  22
TORSDOF 8
ENDMDL
MODEL 7
REMARK VINA RESULT:      -9.5      5.180      8.996
REMARK  8 active torsions:
REMARK  status: ('A' for Active; 'I' for Inactive)
REMARK    1  A    between atoms: C1_9  and  O1_1 
REMARK    2  A    between atoms: C5_13  and  O1_1 
REMARK    3  A    between atoms: C10_18  and  O3_3 
REMARK    4  A    between atoms: C9_17  and  O3_3 
REMARK       I    between atoms: C7_15  and  N1_7 
REMARK    5  A    between atoms: N1_7  and  N2_8 
REMARK       I    between atoms: C15_23  and  N2_8 
REMARK    6  A    between atoms: C1_9  and  C7_15 
REMARK    7  A    between atoms: C15_23  and  C4_12 
REMARK    8  A    between atoms: C10_18  and  C14_22 
ROOT
HETATM    1  O4  UNK     1      23.173  -8.488  36.897  1.00  0.00    -0.269 OA
HETATM    2  N1  UNK     1      23.686  -8.271  39.149  1.00  0.00    -0.265 N 
HETATM    3  C7  UNK     1      22.835  -8.272  38.059  1.00  0.00     0.265 C 
HETATM    4  H14 UNK     1      23.399  -8.059  40.098  1.00  0.00     0.190 HD
ENDROOT
BRANCH   3   5
HETATM    5  C1  UNK     1      21.392  -7.992  38.452  1.00  0.00     0.218 C 
HETATM    6  C8  UNK     1      20.735  -9.230  39.042  1.00  0.00     0.050 C 
BRANCH   5   7
HETATM    7  O1  UNK     1      20.660  -7.606  37.301  1.00  0.00    -0.337 OA
BRANCH   7   8
HETATM    8  C5  UNK     1      20.520  -6.261  37.076  1.00  0.00     0.070 A 
HETATM    9  C12 UNK     1      20.991  -5.343  38.015  1.00  0.00     0.039 A 
HETATM   10  C16 UNK     1      20.850  -3.975  37.786  1.00  0.00     0.039 A 
HETATM   11  C9  UNK     1      20.236  -3.524  36.617  1.00  0.00     0.069 A 
HETATM   12  C17 UNK     1      19.763  -4.441  35.679  1.00  0.00     0.039 A 
HETATM   13  C13 UNK     1      19.904  -5.809  35.908  1.00  0.00     0.039 A 
BRANCH  11  14
HETATM   14  O3  UNK     1      20.099  -2.188  36.392  1.00  0.00    -0.347 OA
BRANCH  14  15
HETATM   15  C10 UNK     1      19.362  -1.796  35.235  1.00  0.00     0.214 C 
BRANCH  15  16
HETATM   16  C14 UNK     1      18.183  -0.972  35.661  1.00  0.00    -0.034 A 
HETATM   17  C22 UNK     1      18.105  -0.489  36.967  1.00  0.00     0.009 A 
HETATM   18  C24 UNK     1      17.009   0.279  37.364  1.00  0.00     0.001 A 
HETATM   19  C26 UNK     1      15.991   0.562  36.453  1.00  0.00     0.000 A 
HETATM   20  C25 UNK     1      16.070   0.080  35.146  1.00  0.00     0.001 A 
HETATM   21  C23 UNK     1      17.166  -0.687  34.750  1.00  0.00     0.009 A 
ENDBRANCH  15  16
ENDBRANCH  14  15
ENDBRANCH  11  14
ENDBRANCH   7   8
ENDBRANCH   5   7
ENDBRANCH   3   5
BRANCH   2  22
HETATM   22  N2  UNK     1      25.020  -8.529  38.953  1.00  0.00    -0.263 N 
HETATM   23  C15 UNK     1      25.881  -7.476  38.731  1.00  0.00     0.276 C 
HETATM   24  O5  UNK     1      25.580  -6.285  38.687  1.00  0.00    -0.266 OA
HETATM   25  H15 UNK     1      25.289  -9.507  38.959  1.00  0.00     0.190 HD
BRANCH  23  26
HETATM   26  C4  UNK     1      27.271  -7.912  38.541  1.00  0.00     0.110 A 
HETATM   27  C18 UNK     1      27.621  -9.328  38.286  1.00  0.00     0.304 A 
HETATM   28  O2  UNK     1      28.972  -9.617  38.122  1.00  0.00    -0.274 OA
HETATM   29  O6  UNK     1      26.767 -10.206  38.221  1.00  0.00    -0.259 OA
HETATM   30  C3  UNK     1      29.961  -8.616  38.194  1.00  0.00     0.089 A 
HETATM   31  C19 UNK     1      31.288  -9.003  38.017  1.00  0.00     0.038 A 
HETATM   32  C2  UNK     1      29.610  -7.292  38.435  1.00  0.00    -0.001 A 
HETATM   33  C21 UNK     1      32.288  -8.036  38.082  1.00  0.00     0.003 A 
HETATM   34  C20 UNK     1      31.955  -6.701  38.324  1.00  0.00     0.001 A 
HETATM   35  C11 UNK     1      30.619  -6.328  38.500  1.00  0.00     0.014 A 
HETATM   36  C6  UNK     1      28.205  -6.958  38.611  1.00  0.00     0.037 A 
ENDBRANCH  23  26
ENDBRANCH   2  22
TORSDOF 8
ENDMDL
MODEL 8
REMARK VINA RESULT:      -9.4     12.144     15.125
REMARK  8 active torsions:
REMARK  status: ('A' for Active; 'I' for Inactive)
REMARK    1  A    between atoms: C1_9  and  O1_1 
REMARK    2  A    between atoms: C5_13  and  O1_1 
REMARK    3  A    between atoms: C10_18  and  O3_3 
REMARK    4  A    between atoms: C9_17  and  O3_3 
REMARK       I    between atoms: C7_15  and  N1_7 
REMARK    5  A    between atoms: N1_7  and  N2_8 
REMARK       I    between atoms: C15_23  and  N2_8 
REMARK    6  A    between atoms: C1_9  and  C7_15 
REMARK    7  A    between atoms: C15_23  and  C4_12 
REMARK    8  A    between atoms: C10_18  and  C14_22 
ROOT
HETATM    1  O4  UNK     1      33.106  -6.053  33.921  1.00  0.00    -0.269 OA
HETATM    2  N1  UNK     1      31.150  -4.808  33.886  1.00  0.00    -0.265 N 
HETATM    3  C7  UNK     1      32.424  -5.114  34.325  1.00  0.00     0.265 C 
HETATM    4  H14 UNK     1      30.587  -4.048  34.252  1.00  0.00     0.190 HD
ENDROOT
BRANCH   3   5
HETATM    5  C1  UNK     1      32.926  -4.132  35.374  1.00  0.00     0.218 C 
HETATM    6  C8  UNK     1      34.287  -3.571  34.992  1.00  0.00     0.050 C 
BRANCH   5   7
HETATM    7  O1  UNK     1      33.054  -4.801  36.617  1.00  0.00    -0.337 OA
BRANCH   7   8
HETATM    8  C5  UNK     1      31.900  -5.033  37.321  1.00  0.00     0.070 A 
HETATM    9  C12 UNK     1      31.695  -6.267  37.939  1.00  0.00     0.039 A 
HETATM   10  C16 UNK     1      30.523  -6.502  38.655  1.00  0.00     0.039 A 
HETATM   11  C9  UNK     1      29.553  -5.503  38.754  1.00  0.00     0.069 A 
HETATM   12  C17 UNK     1      29.757  -4.270  38.135  1.00  0.00     0.039 A 
HETATM   13  C13 UNK     1      30.930  -4.035  37.418  1.00  0.00     0.039 A 
BRANCH  11  14
HETATM   14  O3  UNK     1      28.409  -5.732  39.454  1.00  0.00    -0.347 OA
BRANCH  14  15
HETATM   15  C10 UNK     1      27.248  -6.083  38.704  1.00  0.00     0.214 C 
BRANCH  15  16
HETATM   16  C14 UNK     1      27.143  -7.578  38.634  1.00  0.00    -0.034 A 
HETATM   17  C22 UNK     1      26.733  -8.193  37.450  1.00  0.00     0.009 A 
HETATM   18  C24 UNK     1      26.636  -9.583  37.383  1.00  0.00     0.001 A 
HETATM   19  C26 UNK     1      26.948 -10.358  38.500  1.00  0.00     0.000 A 
HETATM   20  C25 UNK     1      27.359  -9.743  39.683  1.00  0.00     0.001 A 
HETATM   21  C23 UNK     1      27.456  -8.353  39.750  1.00  0.00     0.009 A 
ENDBRANCH  15  16
ENDBRANCH  14  15
ENDBRANCH  11  14
ENDBRANCH   7   8
ENDBRANCH   5   7
ENDBRANCH   3   5
BRANCH   2  22
HETATM   22  N2  UNK     1      30.570  -5.594  32.922  1.00  0.00    -0.263 N 
HETATM   23  C15 UNK     1      29.602  -6.503  33.291  1.00  0.00     0.276 C 
HETATM   24  O5  UNK     1      29.181  -6.698  34.430  1.00  0.00    -0.266 OA
HETATM   25  H15 UNK     1      30.919  -5.471  31.978  1.00  0.00     0.190 HD
BRANCH  23  26
HETATM   26  C4  UNK     1      29.079  -7.267  32.151  1.00  0.00     0.110 A 
HETATM   27  C18 UNK     1      27.681  -7.123  31.686  1.00  0.00     0.304 A 
HETATM   28  O2  UNK     1      27.303  -7.900  30.594  1.00  0.00    -0.274 OA
HETATM   29  O6  UNK     1      26.891  -6.359  32.230  1.00  0.00    -0.259 OA
HETATM   30  C3  UNK     1      28.203  -8.780  29.961  1.00  0.00     0.089 A 
HETATM   31  C19 UNK     1      27.732  -9.516  28.875  1.00  0.00     0.038 A 
HETATM   32  C2  UNK     1      29.512  -8.900  30.415  1.00  0.00    -0.001 A 
HETATM   33  C21 UNK     1      28.598 -10.395  28.229  1.00  0.00     0.003 A 
HETATM   34  C20 UNK     1      29.916 -10.529  28.671  1.00  0.00     0.001 A 
HETATM   35  C11 UNK     1      30.374  -9.784  29.762  1.00  0.00     0.014 A 
HETATM   36  C6  UNK     1      29.937  -8.101  31.554  1.00  0.00     0.037 A 
ENDBRANCH  23  26
ENDBRANCH   2  22
TORSDOF 8
ENDMDL
MODEL 9
REMARK VINA RESULT:      -9.3      8.971     12.442
REMARK  8 active torsions:
REMARK  status: ('A' for Active; 'I' for Inactive)
REMARK    1  A    between atoms: C1_9  and  O1_1 
REMARK    2  A    between atoms: C5_13  and  O1_1 
REMARK    3  A    between atoms: C10_18  and  O3_3 
REMARK    4  A    between atoms: C9_17  and  O3_3 
REMARK       I    between atoms: C7_15  and  N1_7 
REMARK    5  A    between atoms: N1_7  and  N2_8 
REMARK       I    between atoms: C15_23  and  N2_8 
REMARK    6  A    between atoms: C1_9  and  C7_15 
REMARK    7  A    between atoms: C15_23  and  C4_12 
REMARK    8  A    between atoms: C10_18  and  C14_22 
ROOT
HETATM    1  O4  UNK     1      24.378  -9.300  36.795  1.00  0.00    -0.269 OA
HETATM    2  N1  UNK     1      26.069 -10.842  36.415  1.00  0.00    -0.265 N 
HETATM    3  C7  UNK     1      24.751 -10.432  36.495  1.00  0.00     0.265 C 
HETATM    4  H14 UNK     1      26.361 -11.788  36.198  1.00  0.00     0.190 HD
ENDROOT
BRANCH   3   5
HETATM    5  C1  UNK     1      23.777 -11.547  36.145  1.00  0.00     0.218 C 
HETATM    6  C8  UNK     1      24.508 -12.759  35.590  1.00  0.00     0.050 C 
BRANCH   5   7
HETATM    7  O1  UNK     1      22.872 -11.083  35.157  1.00  0.00    -0.337 OA
BRANCH   7   8
HETATM    8  C5  UNK     1      21.813 -10.326  35.589  1.00  0.00     0.070 A 
HETATM    9  C12 UNK     1      21.543  -9.096  34.987  1.00  0.00     0.039 A 
HETATM   10  C16 UNK     1      20.466  -8.327  35.426  1.00  0.00     0.039 A 
HETATM   11  C9  UNK     1      19.660  -8.785  36.468  1.00  0.00     0.069 A 
HETATM   12  C17 UNK     1      19.930 -10.013  37.071  1.00  0.00     0.039 A 
HETATM   13  C13 UNK     1      21.007 -10.783  36.632  1.00  0.00     0.039 A 
BRANCH  11  14
HETATM   14  O3  UNK     1      18.608  -8.034  36.895  1.00  0.00    -0.347 OA
BRANCH  14  15
HETATM   15  C10 UNK     1      18.677  -7.515  38.221  1.00  0.00     0.214 C 
BRANCH  15  16
HETATM   16  C14 UNK     1      20.035  -6.919  38.444  1.00  0.00    -0.034 A 
HETATM   17  C22 UNK     1      20.391  -5.734  37.799  1.00  0.00     0.009 A 
HETATM   18  C24 UNK     1      21.654  -5.178  38.005  1.00  0.00     0.001 A 
HETATM   19  C26 UNK     1      22.561  -5.808  38.858  1.00  0.00     0.000 A 
HETATM   20  C25 UNK     1      22.205  -6.992  39.504  1.00  0.00     0.001 A 
HETATM   21  C23 UNK     1      20.942  -7.547  39.297  1.00  0.00     0.009 A 
ENDBRANCH  15  16
ENDBRANCH  14  15
ENDBRANCH  11  14
ENDBRANCH   7   8
ENDBRANCH   5   7
ENDBRANCH   3   5
BRANCH   2  22
HETATM   22  N2  UNK     1      27.066  -9.937  36.684  1.00  0.00    -0.263 N 
HETATM   23  C15 UNK     1      27.533  -9.818  37.976  1.00  0.00     0.276 C 
HETATM   24  O5  UNK     1      27.143 -10.455  38.954  1.00  0.00    -0.266 OA
HETATM   25  H15 UNK     1      27.386  -9.381  35.899  1.00  0.00     0.190 HD
BRANCH  23  26
HETATM   26  C4  UNK     1      28.596  -8.813  38.103  1.00  0.00     0.110 A 
HETATM   27  C18 UNK     1      30.027  -9.187  38.153  1.00  0.00     0.304 A 
HETATM   28  O2  UNK     1      30.941  -8.144  38.274  1.00  0.00    -0.274 OA
HETATM   29  O6  UNK     1      30.395 -10.355  38.089  1.00  0.00    -0.259 OA
HETATM   30  C3  UNK     1      30.529  -6.799  38.345  1.00  0.00     0.089 A 
HETATM   31  C19 UNK     1      31.518  -5.825  38.466  1.00  0.00     0.038 A 
HETATM   32  C2  UNK     1      29.178  -6.470  38.298  1.00  0.00    -0.001 A 
HETATM   33  C21 UNK     1      31.141  -4.486  38.539  1.00  0.00     0.003 A 
HETATM   34  C20 UNK     1      29.789  -4.136  38.494  1.00  0.00     0.001 A 
HETATM   35  C11 UNK     1      28.809  -5.125  38.373  1.00  0.00     0.014 A 
HETATM   36  C6  UNK     1      28.199  -7.538  38.171  1.00  0.00     0.037 A 
ENDBRANCH  23  26
ENDBRANCH   2  22
TORSDOF 8
ENDMDL
MODEL 10
REMARK VINA RESULT:      -9.3      2.399     12.849
REMARK  8 active torsions:
REMARK  status: ('A' for Active; 'I' for Inactive)
REMARK    1  A    between atoms: C1_9  and  O1_1 
REMARK    2  A    between atoms: C5_13  and  O1_1 
REMARK    3  A    between atoms: C10_18  and  O3_3 
REMARK    4  A    between atoms: C9_17  and  O3_3 
REMARK       I    between atoms: C7_15  and  N1_7 
REMARK    5  A    between atoms: N1_7  and  N2_8 
REMARK       I    between atoms: C15_23  and  N2_8 
REMARK    6  A    between atoms: C1_9  and  C7_15 
REMARK    7  A    between atoms: C15_23  and  C4_12 
REMARK    8  A    between atoms: C10_18  and  C14_22 
ROOT
HETATM    1  O4  UNK     1      17.665   2.270  36.334  1.00  0.00    -0.269 OA
HETATM    2  N1  UNK     1      18.429   2.475  34.154  1.00  0.00    -0.265 N 
HETATM    3  C7  UNK     1      18.069   1.770  35.287  1.00  0.00     0.265 C 
HETATM    4  H14 UNK     1      18.792   2.050  33.308  1.00  0.00     0.190 HD
ENDROOT
BRANCH   3   5
HETATM    5  C1  UNK     1      18.206   0.266  35.100  1.00  0.00     0.218 C 
HETATM    6  C8  UNK     1      16.846  -0.414  35.116  1.00  0.00     0.050 C 
BRANCH   5   7
HETATM    7  O1  UNK     1      18.983  -0.269  36.158  1.00  0.00    -0.337 OA
BRANCH   7   8
HETATM    8  C5  UNK     1      19.329  -1.593  36.068  1.00  0.00     0.070 A 
HETATM    9  C12 UNK     1      19.914  -2.083  34.900  1.00  0.00     0.039 A 
HETATM   10  C16 UNK     1      20.267  -3.429  34.809  1.00  0.00     0.039 A 
HETATM   11  C9  UNK     1      20.036  -4.285  35.887  1.00  0.00     0.069 A 
HETATM   12  C17 UNK     1      19.450  -3.795  37.054  1.00  0.00     0.039 A 
HETATM   13  C13 UNK     1      19.097  -2.450  37.145  1.00  0.00     0.039 A 
BRANCH  11  14
HETATM   14  O3  UNK     1      20.382  -5.599  35.798  1.00  0.00    -0.347 OA
BRANCH  14  15
HETATM   15  C10 UNK     1      19.882  -6.472  36.809  1.00  0.00     0.214 C 
BRANCH  15  16
HETATM   16  C14 UNK     1      20.308  -7.876  36.499  1.00  0.00    -0.034 A 
HETATM   17  C22 UNK     1      21.140  -8.128  35.408  1.00  0.00     0.009 A 
HETATM   18  C24 UNK     1      21.537  -9.434  35.118  1.00  0.00     0.001 A 
HETATM   19  C26 UNK     1      21.102 -10.488  35.921  1.00  0.00     0.000 A 
HETATM   20  C25 UNK     1      20.270 -10.237  37.012  1.00  0.00     0.001 A 
HETATM   21  C23 UNK     1      19.873  -8.931  37.301  1.00  0.00     0.009 A 
ENDBRANCH  15  16
ENDBRANCH  14  15
ENDBRANCH  11  14
ENDBRANCH   7   8
ENDBRANCH   5   7
ENDBRANCH   3   5
BRANCH   2  22
HETATM   22  N2  UNK     1      18.338   3.844  34.164  1.00  0.00    -0.263 N 
HETATM   23  C15 UNK     1      17.996   4.503  33.002  1.00  0.00     0.276 C 
HETATM   24  O5  UNK     1      17.754   3.983  31.914  1.00  0.00    -0.266 OA
HETATM   25  H15 UNK     1      18.560   4.299  35.043  1.00  0.00     0.190 HD
BRANCH  23  26
HETATM   26  C4  UNK     1      17.940   5.960  33.173  1.00  0.00     0.110 A 
HETATM   27  C18 UNK     1      16.730   6.744  32.836  1.00  0.00     0.304 A 
HETATM   28  O2  UNK     1      16.799   8.118  33.042  1.00  0.00    -0.274 OA
HETATM   29  O6  UNK     1      15.715   6.213  32.397  1.00  0.00    -0.259 OA
HETATM   30  C3  UNK     1      17.959   8.737  33.546  1.00  0.00     0.089 A 
HETATM   31  C19 UNK     1      17.932  10.120  33.719  1.00  0.00     0.038 A 
HETATM   32  C2  UNK     1      19.086   7.982  33.856  1.00  0.00    -0.001 A 
HETATM   33  C21 UNK     1      19.065  10.760  34.216  1.00  0.00     0.003 A 
HETATM   34  C20 UNK     1      20.206  10.019  34.532  1.00  0.00     0.001 A 
HETATM   35  C11 UNK     1      20.218   8.632  34.353  1.00  0.00     0.014 A 
HETATM   36  C6  UNK     1      19.045   6.542  33.652  1.00  0.00     0.037 A 
ENDBRANCH  23  26
ENDBRANCH   2  22
TORSDOF 8
ENDMDL
