MODEL 1
REMARK VINA RESULT:      -8.7      0.000      0.000
REMARK  2 active torsions:
REMARK  status: ('A' for Active; 'I' for Inactive)
REMARK    1  A    between atoms: C1_6  and  N1_5 
REMARK       I    between atoms: C8_13  and  N1_5 
REMARK    2  A    between atoms: C8_13  and  C9_14 
ROOT
HETATM    1 Br1  UNK     1      17.717   8.258  34.565  1.00  0.00    -0.051 Br
HETATM    2  O2  UNK     1      18.660   3.895  30.457  1.00  0.00    -0.274 OA
HETATM    3  O3  UNK     1      18.891   1.684  29.927  1.00  0.00    -0.259 OA
HETATM    4  C9  UNK     1      18.497   2.196  32.207  1.00  0.00     0.108 A 
HETATM    5  C10 UNK     1      18.287   3.135  33.137  1.00  0.00     0.037 A 
HETATM    6  C11 UNK     1      18.252   4.540  32.765  1.00  0.00     0.000 A 
HETATM    7  C12 UNK     1      18.700   2.542  30.783  1.00  0.00     0.304 A 
HETATM    8  C13 UNK     1      18.440   4.888  31.431  1.00  0.00     0.089 A 
HETATM    9  C14 UNK     1      18.036   5.554  33.702  1.00  0.00     0.033 A 
HETATM   10  C15 UNK     1      18.417   6.215  31.008  1.00  0.00     0.039 A 
HETATM   11  C16 UNK     1      18.011   6.891  33.293  1.00  0.00     0.011 A 
HETATM   12  C17 UNK     1      18.200   7.220  31.949  1.00  0.00     0.022 A 
ENDROOT
BRANCH   4  13
HETATM   13  C8  UNK     1      18.514   0.800  32.683  1.00  0.00     0.258 C 
HETATM   14  O1  UNK     1      19.241  -0.033  32.153  1.00  0.00    -0.267 OA
HETATM   15  N1  UNK     1      17.650   0.592  33.737  1.00  0.00    -0.352 N 
HETATM   16  H14 UNK     1      17.043   1.344  34.049  1.00  0.00     0.163 HD
BRANCH  15  17
HETATM   17  C1  UNK     1      17.491  -0.692  34.370  1.00  0.00     0.084 C 
HETATM   18  C2  UNK     1      18.604  -1.002  35.376  1.00  0.00     0.025 C 
HETATM   19  C4  UNK     1      18.714  -0.091  36.594  1.00  0.00     0.002 C 
HETATM   20  C6  UNK     1      17.448   0.019  37.441  1.00  0.00     0.000 C 
HETATM   21  C7  UNK     1      16.387   0.905  36.800  1.00  0.00     0.000 C 
HETATM   22  C5  UNK     1      15.487   0.222  35.776  1.00  0.00     0.002 C 
HETATM   23  C3  UNK     1      16.083  -0.903  34.932  1.00  0.00     0.025 C 
ENDBRANCH  15  17
ENDBRANCH   4  13
TORSDOF 2
ENDMDL
MODEL 2
REMARK VINA RESULT:      -8.5      2.780      6.480
REMARK  2 active torsions:
REMARK  status: ('A' for Active; 'I' for Inactive)
REMARK    1  A    between atoms: C1_6  and  N1_5 
REMARK       I    between atoms: C8_13  and  N1_5 
REMARK    2  A    between atoms: C8_13  and  C9_14 
ROOT
HETATM    1 Br1  UNK     1      17.774   0.390  37.898  1.00  0.00    -0.051 Br
HETATM    2  O2  UNK     1      18.428   1.458  31.962  1.00  0.00    -0.274 OA
HETATM    3  O3  UNK     1      18.603   2.923  30.216  1.00  0.00    -0.259 OA
HETATM    4  C9  UNK     1      18.342   3.866  32.374  1.00  0.00     0.108 A 
HETATM    5  C10 UNK     1      18.197   3.664  33.688  1.00  0.00     0.037 A 
HETATM    6  C11 UNK     1      18.158   2.311  34.222  1.00  0.00     0.000 A 
HETATM    7  C12 UNK     1      18.468   2.741  31.421  1.00  0.00     0.304 A 
HETATM    8  C13 UNK     1      18.275   1.238  33.345  1.00  0.00     0.089 A 
HETATM    9  C14 UNK     1      18.007   2.052  35.587  1.00  0.00     0.033 A 
HETATM   10  C15 UNK     1      18.247  -0.081  33.790  1.00  0.00     0.039 A 
HETATM   11  C16 UNK     1      17.977   0.733  36.050  1.00  0.00     0.011 A 
HETATM   12  C17 UNK     1      18.097  -0.330  35.153  1.00  0.00     0.022 A 
ENDROOT
BRANCH   4  13
HETATM   13  C8  UNK     1      18.370   5.273  31.931  1.00  0.00     0.258 C 
HETATM   14  O1  UNK     1      19.349   5.726  31.350  1.00  0.00    -0.267 OA
HETATM   15  N1  UNK     1      17.211   5.949  32.250  1.00  0.00    -0.352 N 
HETATM   16  H14 UNK     1      16.491   5.487  32.796  1.00  0.00     0.163 HD
BRANCH  15  17
HETATM   17  C1  UNK     1      17.005   7.336  31.921  1.00  0.00     0.084 C 
HETATM   18  C2  UNK     1      15.526   7.691  31.738  1.00  0.00     0.025 C 
HETATM   19  C4  UNK     1      14.619   7.546  32.956  1.00  0.00     0.002 C 
HETATM   20  C6  UNK     1      15.057   8.333  34.190  1.00  0.00     0.000 C 
HETATM   21  C7  UNK     1      16.233   7.687  34.913  1.00  0.00     0.000 C 
HETATM   22  C5  UNK     1      17.614   8.031  34.365  1.00  0.00     0.002 C 
HETATM   23  C3  UNK     1      17.749   8.283  32.865  1.00  0.00     0.025 C 
ENDBRANCH  15  17
ENDBRANCH   4  13
TORSDOF 2
ENDMDL
MODEL 3
REMARK VINA RESULT:      -8.4      2.452      6.469
REMARK  2 active torsions:
REMARK  status: ('A' for Active; 'I' for Inactive)
REMARK    1  A    between atoms: C1_6  and  N1_5 
REMARK       I    between atoms: C8_13  and  N1_5 
REMARK    2  A    between atoms: C8_13  and  C9_14 
ROOT
HETATM    1 Br1  UNK     1      17.525   0.420  37.966  1.00  0.00    -0.051 Br
HETATM    2  O2  UNK     1      19.132  -0.464  32.183  1.00  0.00    -0.274 OA
HETATM    3  O3  UNK     1      19.445   0.338  30.066  1.00  0.00    -0.259 OA
HETATM    4  C9  UNK     1      18.672   1.885  31.684  1.00  0.00     0.108 A 
HETATM    5  C10 UNK     1      18.312   2.112  32.953  1.00  0.00     0.037 A 
HETATM    6  C11 UNK     1      18.343   1.034  33.928  1.00  0.00     0.000 A 
HETATM    7  C12 UNK     1      19.112   0.549  31.227  1.00  0.00     0.304 A 
HETATM    8  C13 UNK     1      18.754  -0.231  33.520  1.00  0.00     0.089 A 
HETATM    9  C14 UNK     1      17.975   1.225  35.262  1.00  0.00     0.033 A 
HETATM   10  C15 UNK     1      18.808  -1.306  34.404  1.00  0.00     0.039 A 
HETATM   11  C16 UNK     1      18.024   0.155  36.162  1.00  0.00     0.011 A 
HETATM   12  C17 UNK     1      18.439  -1.107  35.732  1.00  0.00     0.022 A 
ENDROOT
BRANCH   4  13
HETATM   13  C8  UNK     1      18.606   3.043  30.772  1.00  0.00     0.258 C 
HETATM   14  O1  UNK     1      18.488   2.879  29.563  1.00  0.00    -0.267 OA
HETATM   15  N1  UNK     1      18.695   4.246  31.439  1.00  0.00    -0.352 N 
HETATM   16  H14 UNK     1      18.862   4.257  32.440  1.00  0.00     0.163 HD
BRANCH  15  17
HETATM   17  C1  UNK     1      18.656   5.516  30.760  1.00  0.00     0.084 C 
HETATM   18  C2  UNK     1      17.750   6.536  31.457  1.00  0.00     0.025 C 
HETATM   19  C4  UNK     1      18.147   6.973  32.864  1.00  0.00     0.002 C 
HETATM   20  C6  UNK     1      19.554   7.553  32.992  1.00  0.00     0.000 C 
HETATM   21  C7  UNK     1      20.638   6.483  32.953  1.00  0.00     0.000 C 
HETATM   22  C5  UNK     1      21.086   6.046  31.563  1.00  0.00     0.002 C 
HETATM   23  C3  UNK     1      20.051   6.056  30.439  1.00  0.00     0.025 C 
ENDBRANCH  15  17
ENDBRANCH   4  13
TORSDOF 2
ENDMDL
MODEL 4
REMARK VINA RESULT:      -8.4     23.162     25.798
REMARK  2 active torsions:
REMARK  status: ('A' for Active; 'I' for Inactive)
REMARK    1  A    between atoms: C1_6  and  N1_5 
REMARK       I    between atoms: C8_13  and  N1_5 
REMARK    2  A    between atoms: C8_13  and  C9_14 
ROOT
HETATM    1 Br1  UNK     1       6.888   4.881   9.920  1.00  0.00    -0.051 Br
HETATM    2  O2  UNK     1      11.650   6.668   6.612  1.00  0.00    -0.274 OA
HETATM    3  O3  UNK     1      13.897   7.031   6.403  1.00  0.00    -0.259 OA
HETATM    4  C9  UNK     1      13.145   6.196   8.489  1.00  0.00     0.108 A 
HETATM    5  C10 UNK     1      12.115   5.796   9.244  1.00  0.00     0.037 A 
HETATM    6  C11 UNK     1      10.763   5.812   8.708  1.00  0.00     0.000 A 
HETATM    7  C12 UNK     1      12.955   6.665   7.098  1.00  0.00     0.304 A 
HETATM    8  C13 UNK     1      10.562   6.248   7.402  1.00  0.00     0.089 A 
HETATM    9  C14 UNK     1       9.658   5.404   9.460  1.00  0.00     0.033 A 
HETATM   10  C15 UNK     1       9.293   6.287   6.829  1.00  0.00     0.039 A 
HETATM   11  C16 UNK     1       8.379   5.437   8.898  1.00  0.00     0.011 A 
HETATM   12  C17 UNK     1       8.198   5.877   7.585  1.00  0.00     0.022 A 
ENDROOT
BRANCH   4  13
HETATM   13  C8  UNK     1      14.476   6.143   9.122  1.00  0.00     0.258 C 
HETATM   14  O1  UNK     1      15.221   5.189   8.932  1.00  0.00    -0.267 OA
HETATM   15  N1  UNK     1      14.732   7.249   9.904  1.00  0.00    -0.352 N 
HETATM   16  H14 UNK     1      14.009   7.948  10.044  1.00  0.00     0.163 HD
BRANCH  15  17
HETATM   17  C1  UNK     1      15.967   7.422  10.626  1.00  0.00     0.084 C 
HETATM   18  C2  UNK     1      17.042   8.137   9.802  1.00  0.00     0.025 C 
HETATM   19  C4  UNK     1      16.753   9.574   9.377  1.00  0.00     0.002 C 
HETATM   20  C6  UNK     1      16.434  10.538  10.518  1.00  0.00     0.000 C 
HETATM   21  C7  UNK     1      15.025  10.353  11.068  1.00  0.00     0.000 C 
HETATM   22  C5  UNK     1      14.864   9.262  12.120  1.00  0.00     0.002 C 
HETATM   23  C3  UNK     1      15.758   8.027  12.016  1.00  0.00     0.025 C 
ENDBRANCH  15  17
ENDBRANCH   4  13
TORSDOF 2
ENDMDL
MODEL 5
REMARK VINA RESULT:      -8.2     12.013     14.052
REMARK  2 active torsions:
REMARK  status: ('A' for Active; 'I' for Inactive)
REMARK    1  A    between atoms: C1_6  and  N1_5 
REMARK       I    between atoms: C8_13  and  N1_5 
REMARK    2  A    between atoms: C8_13  and  C9_14 
ROOT
HETATM    1 Br1  UNK     1      30.657  -9.198  38.150  1.00  0.00    -0.051 Br
HETATM    2  O2  UNK     1      25.809  -5.592  38.684  1.00  0.00    -0.274 OA
HETATM    3  O3  UNK     1      23.560  -5.323  38.990  1.00  0.00    -0.259 OA
HETATM    4  C9  UNK     1      24.370  -7.549  38.965  1.00  0.00     0.108 A 
HETATM    5  C10 UNK     1      25.419  -8.371  38.851  1.00  0.00     0.037 A 
HETATM    6  C11 UNK     1      26.754  -7.832  38.641  1.00  0.00     0.000 A 
HETATM    7  C12 UNK     1      24.519  -6.079  38.885  1.00  0.00     0.304 A 
HETATM    8  C13 UNK     1      26.918  -6.452  38.564  1.00  0.00     0.089 A 
HETATM    9  C14 UNK     1      27.878  -8.651  38.516  1.00  0.00     0.033 A 
HETATM   10  C15 UNK     1      28.168  -5.871  38.366  1.00  0.00     0.039 A 
HETATM   11  C16 UNK     1      29.140  -8.083  38.317  1.00  0.00     0.011 A 
HETATM   12  C17 UNK     1      29.284  -6.697  38.243  1.00  0.00     0.022 A 
ENDROOT
BRANCH   4  13
HETATM   13  C8  UNK     1      23.059  -8.192  39.175  1.00  0.00     0.258 C 
HETATM   14  O1  UNK     1      22.531  -8.189  40.281  1.00  0.00    -0.267 OA
HETATM   15  N1  UNK     1      22.559  -8.757  38.021  1.00  0.00    -0.352 N 
HETATM   16  H14 UNK     1      23.119  -8.759  37.175  1.00  0.00     0.163 HD
BRANCH  15  17
HETATM   17  C1  UNK     1      21.293  -9.444  37.978  1.00  0.00     0.084 C 
HETATM   18  C2  UNK     1      20.101  -8.511  38.213  1.00  0.00     0.025 C 
HETATM   19  C4  UNK     1      19.866  -7.409  37.185  1.00  0.00     0.002 C 
HETATM   20  C6  UNK     1      19.704  -7.887  35.744  1.00  0.00     0.000 C 
HETATM   21  C7  UNK     1      21.028  -8.285  35.104  1.00  0.00     0.000 C 
HETATM   22  C5  UNK     1      21.497  -9.708  35.386  1.00  0.00     0.002 C 
HETATM   23  C3  UNK     1      21.142 -10.326  36.736  1.00  0.00     0.025 C 
ENDBRANCH  15  17
ENDBRANCH   4  13
TORSDOF 2
ENDMDL
MODEL 6
REMARK VINA RESULT:      -8.1      4.573      7.122
REMARK  2 active torsions:
REMARK  status: ('A' for Active; 'I' for Inactive)
REMARK    1  A    between atoms: C1_6  and  N1_5 
REMARK       I    between atoms: C8_13  and  N1_5 
REMARK    2  A    between atoms: C8_13  and  C9_14 
ROOT
HETATM    1 Br1  UNK     1      12.513  12.566  36.824  1.00  0.00    -0.051 Br
HETATM    2  O2  UNK     1      15.157   9.585  32.249  1.00  0.00    -0.274 OA
HETATM    3  O3  UNK     1      16.745   8.129  31.483  1.00  0.00    -0.259 OA
HETATM    4  C9  UNK     1      16.722   8.547  33.815  1.00  0.00     0.108 A 
HETATM    5  C10 UNK     1      16.161   9.190  34.845  1.00  0.00     0.037 A 
HETATM    6  C11 UNK     1      15.038  10.088  34.625  1.00  0.00     0.000 A 
HETATM    7  C12 UNK     1      16.234   8.718  32.430  1.00  0.00     0.304 A 
HETATM    8  C13 UNK     1      14.562  10.265  33.330  1.00  0.00     0.089 A 
HETATM    9  C14 UNK     1      14.421  10.781  35.670  1.00  0.00     0.033 A 
HETATM   10  C15 UNK     1      13.490  11.109  33.050  1.00  0.00     0.039 A 
HETATM   11  C16 UNK     1      13.344  11.632  35.405  1.00  0.00     0.011 A 
HETATM   12  C17 UNK     1      12.881  11.795  34.098  1.00  0.00     0.022 A 
ENDROOT
BRANCH   4  13
HETATM   13  C8  UNK     1      17.854   7.658  34.141  1.00  0.00     0.258 C 
HETATM   14  O1  UNK     1      18.713   8.008  34.943  1.00  0.00    -0.267 OA
HETATM   15  N1  UNK     1      17.801   6.464  33.454  1.00  0.00    -0.352 N 
HETATM   16  H14 UNK     1      17.076   6.312  32.760  1.00  0.00     0.163 HD
BRANCH  15  17
HETATM   17  C1  UNK     1      18.798   5.435  33.606  1.00  0.00     0.084 C 
HETATM   18  C2  UNK     1      18.277   4.042  33.240  1.00  0.00     0.025 C 
HETATM   19  C4  UNK     1      17.849   3.818  31.793  1.00  0.00     0.002 C 
HETATM   20  C6  UNK     1      18.917   4.120  30.744  1.00  0.00     0.000 C 
HETATM   21  C7  UNK     1      19.113   5.613  30.517  1.00  0.00     0.000 C 
HETATM   22  C5  UNK     1      20.057   6.311  31.490  1.00  0.00     0.002 C 
HETATM   23  C3  UNK     1      20.122   5.792  32.925  1.00  0.00     0.025 C 
ENDBRANCH  15  17
ENDBRANCH   4  13
TORSDOF 2
ENDMDL
MODEL 7
REMARK VINA RESULT:      -8.0     23.886     25.166
REMARK  2 active torsions:
REMARK  status: ('A' for Active; 'I' for Inactive)
REMARK    1  A    between atoms: C1_6  and  N1_5 
REMARK       I    between atoms: C8_13  and  N1_5 
REMARK    2  A    between atoms: C8_13  and  C9_14 
ROOT
HETATM    1 Br1  UNK     1      19.546  11.833   9.509  1.00  0.00    -0.051 Br
HETATM    2  O2  UNK     1      14.041  10.200  11.466  1.00  0.00    -0.274 OA
HETATM    3  O3  UNK     1      12.374   8.645  11.631  1.00  0.00    -0.259 OA
HETATM    4  C9  UNK     1      14.318   7.997  10.442  1.00  0.00     0.108 A 
HETATM    5  C10 UNK     1      15.536   8.327   9.997  1.00  0.00     0.037 A 
HETATM    6  C11 UNK     1      16.084   9.646  10.270  1.00  0.00     0.000 A 
HETATM    7  C12 UNK     1      13.490   8.944  11.220  1.00  0.00     0.304 A 
HETATM    8  C13 UNK     1      15.322  10.553  10.999  1.00  0.00     0.089 A 
HETATM    9  C14 UNK     1      17.350  10.035   9.824  1.00  0.00     0.033 A 
HETATM   10  C15 UNK     1      15.788  11.832  11.296  1.00  0.00     0.039 A 
HETATM   11  C16 UNK     1      17.831  11.315  10.114  1.00  0.00     0.011 A 
HETATM   12  C17 UNK     1      17.052  12.210  10.848  1.00  0.00     0.022 A 
ENDROOT
BRANCH   4  13
HETATM   13  C8  UNK     1      13.852   6.636  10.114  1.00  0.00     0.258 C 
HETATM   14  O1  UNK     1      14.502   5.654  10.452  1.00  0.00    -0.267 OA
HETATM   15  N1  UNK     1      12.661   6.641   9.419  1.00  0.00    -0.352 N 
HETATM   16  H14 UNK     1      12.246   7.522   9.133  1.00  0.00     0.163 HD
BRANCH  15  17
HETATM   17  C1  UNK     1      12.008   5.431   8.987  1.00  0.00     0.084 C 
HETATM   18  C2  UNK     1      10.514   5.409   9.320  1.00  0.00     0.025 C 
HETATM   19  C4  UNK     1       9.636   6.464   8.652  1.00  0.00     0.002 C 
HETATM   20  C6  UNK     1       9.693   6.487   7.126  1.00  0.00     0.000 C 
HETATM   21  C7  UNK     1      10.970   7.125   6.594  1.00  0.00     0.000 C 
HETATM   22  C5  UNK     1      12.179   6.202   6.495  1.00  0.00     0.002 C 
HETATM   23  C3  UNK     1      12.315   5.084   7.528  1.00  0.00     0.025 C 
ENDBRANCH  15  17
ENDBRANCH   4  13
TORSDOF 2
ENDMDL
MODEL 8
REMARK VINA RESULT:      -8.0     24.394     26.259
REMARK  2 active torsions:
REMARK  status: ('A' for Active; 'I' for Inactive)
REMARK    1  A    between atoms: C1_6  and  N1_5 
REMARK       I    between atoms: C8_13  and  N1_5 
REMARK    2  A    between atoms: C8_13  and  C9_14 
ROOT
HETATM    1 Br1  UNK     1       4.529   3.592  15.207  1.00  0.00    -0.051 Br
HETATM    2  O2  UNK     1       6.541   3.671   9.485  1.00  0.00    -0.274 OA
HETATM    3  O3  UNK     1       7.708   4.692   7.805  1.00  0.00    -0.259 OA
HETATM    4  C9  UNK     1       7.638   5.819   9.888  1.00  0.00     0.108 A 
HETATM    5  C10 UNK     1       7.209   5.831  11.156  1.00  0.00     0.037 A 
HETATM    6  C11 UNK     1       6.402   4.734  11.667  1.00  0.00     0.000 A 
HETATM    7  C12 UNK     1       7.315   4.707   8.967  1.00  0.00     0.304 A 
HETATM    8  C13 UNK     1       6.087   3.678  10.818  1.00  0.00     0.089 A 
HETATM    9  C14 UNK     1       5.932   4.704  12.982  1.00  0.00     0.033 A 
HETATM   10  C15 UNK     1       5.319   2.597  11.245  1.00  0.00     0.039 A 
HETATM   11  C16 UNK     1       5.160   3.626  13.426  1.00  0.00     0.011 A 
HETATM   12  C17 UNK     1       4.856   2.575  12.559  1.00  0.00     0.022 A 
ENDROOT
BRANCH   4  13
HETATM   13  C8  UNK     1       8.449   6.975   9.465  1.00  0.00     0.258 C 
HETATM   14  O1  UNK     1       8.102   8.118   9.741  1.00  0.00    -0.267 OA
HETATM   15  N1  UNK     1       9.574   6.600   8.761  1.00  0.00    -0.352 N 
HETATM   16  H14 UNK     1       9.724   5.623   8.531  1.00  0.00     0.163 HD
BRANCH  15  17
HETATM   17  C1  UNK     1      10.520   7.555   8.241  1.00  0.00     0.084 C 
HETATM   18  C2  UNK     1      11.650   7.869   9.226  1.00  0.00     0.025 C 
HETATM   19  C4  UNK     1      12.579   6.721   9.609  1.00  0.00     0.002 C 
HETATM   20  C6  UNK     1      13.269   6.024   8.438  1.00  0.00     0.000 C 
HETATM   21  C7  UNK     1      12.335   5.094   7.674  1.00  0.00     0.000 C 
HETATM   22  C5  UNK     1      11.473   5.755   6.604  1.00  0.00     0.002 C 
HETATM   23  C3  UNK     1      11.014   7.193   6.839  1.00  0.00     0.025 C 
ENDBRANCH  15  17
ENDBRANCH   4  13
TORSDOF 2
ENDMDL
MODEL 9
REMARK VINA RESULT:      -7.9     24.312     25.944
REMARK  2 active torsions:
REMARK  status: ('A' for Active; 'I' for Inactive)
REMARK    1  A    between atoms: C1_6  and  N1_5 
REMARK       I    between atoms: C8_13  and  N1_5 
REMARK    2  A    between atoms: C8_13  and  C9_14 
ROOT
HETATM    1 Br1  UNK     1      16.524  10.516  10.194  1.00  0.00    -0.051 Br
HETATM    2  O2  UNK     1      14.035   5.095   9.093  1.00  0.00    -0.274 OA
HETATM    3  O3  UNK     1      12.311   3.829   8.286  1.00  0.00    -0.259 OA
HETATM    4  C9  UNK     1      12.067   6.181   8.130  1.00  0.00     0.108 A 
HETATM    5  C10 UNK     1      12.589   7.391   8.360  1.00  0.00     0.037 A 
HETATM    6  C11 UNK     1      13.896   7.519   8.985  1.00  0.00     0.000 A 
HETATM    7  C12 UNK     1      12.786   4.940   8.497  1.00  0.00     0.304 A 
HETATM    8  C13 UNK     1      14.590   6.366   9.338  1.00  0.00     0.089 A 
HETATM    9  C14 UNK     1      14.480   8.762   9.245  1.00  0.00     0.033 A 
HETATM   10  C15 UNK     1      15.845   6.419   9.938  1.00  0.00     0.039 A 
HETATM   11  C16 UNK     1      15.739   8.832   9.847  1.00  0.00     0.011 A 
HETATM   12  C17 UNK     1      16.420   7.663  10.193  1.00  0.00     0.022 A 
ENDROOT
BRANCH   4  13
HETATM   13  C8  UNK     1      10.738   6.155   7.492  1.00  0.00     0.258 C 
HETATM   14  O1  UNK     1      10.614   6.396   6.297  1.00  0.00    -0.267 OA
HETATM   15  N1  UNK     1       9.732   5.845   8.382  1.00  0.00    -0.352 N 
HETATM   16  H14 UNK     1       9.946   5.733   9.368  1.00  0.00     0.163 HD
BRANCH  15  17
HETATM   17  C1  UNK     1       8.347   5.762   7.992  1.00  0.00     0.084 C 
HETATM   18  C2  UNK     1       7.537   4.805   8.872  1.00  0.00     0.025 C 
HETATM   19  C4  UNK     1       7.400   5.165  10.349  1.00  0.00     0.002 C 
HETATM   20  C6  UNK     1       6.808   6.545  10.630  1.00  0.00     0.000 C 
HETATM   21  C7  UNK     1       7.803   7.672  10.385  1.00  0.00     0.000 C 
HETATM   22  C5  UNK     1       7.911   8.156   8.943  1.00  0.00     0.002 C 
HETATM   23  C3  UNK     1       7.698   7.137   7.826  1.00  0.00     0.025 C 
ENDBRANCH  15  17
ENDBRANCH   4  13
TORSDOF 2
ENDMDL
MODEL 10
REMARK VINA RESULT:      -7.9      6.181      9.920
REMARK  2 active torsions:
REMARK  status: ('A' for Active; 'I' for Inactive)
REMARK    1  A    between atoms: C1_6  and  N1_5 
REMARK       I    between atoms: C8_13  and  N1_5 
REMARK    2  A    between atoms: C8_13  and  C9_14 
ROOT
HETATM    1 Br1  UNK     1      20.734 -10.422  36.388  1.00  0.00    -0.051 Br
HETATM    2  O2  UNK     1      20.327  -4.703  38.369  1.00  0.00    -0.274 OA
HETATM    3  O3  UNK     1      20.074  -2.470  37.948  1.00  0.00    -0.259 OA
HETATM    4  C9  UNK     1      20.071  -3.913  36.069  1.00  0.00     0.108 A 
HETATM    5  C10 UNK     1      20.157  -5.163  35.601  1.00  0.00     0.037 A 
HETATM    6  C11 UNK     1      20.338  -6.278  36.517  1.00  0.00     0.000 A 
HETATM    7  C12 UNK     1      20.154  -3.615  37.516  1.00  0.00     0.304 A 
HETATM    8  C13 UNK     1      20.419  -6.021  37.882  1.00  0.00     0.089 A 
HETATM    9  C14 UNK     1      20.434  -7.599  36.073  1.00  0.00     0.033 A 
HETATM   10  C15 UNK     1      20.591  -7.043  38.812  1.00  0.00     0.039 A 
HETATM   11  C16 UNK     1      20.607  -8.636  36.995  1.00  0.00     0.011 A 
HETATM   12  C17 UNK     1      20.684  -8.358  38.361  1.00  0.00     0.022 A 
ENDROOT
BRANCH   4  13
HETATM   13  C8  UNK     1      19.887  -2.851  35.061  1.00  0.00     0.258 C 
HETATM   14  O1  UNK     1      20.555  -2.843  34.034  1.00  0.00    -0.267 OA
HETATM   15  N1  UNK     1      18.922  -1.937  35.428  1.00  0.00    -0.352 N 
HETATM   16  H14 UNK     1      18.481  -2.007  36.339  1.00  0.00     0.163 HD
BRANCH  15  17
HETATM   17  C1  UNK     1      18.568  -0.809  34.605  1.00  0.00     0.084 C 
HETATM   18  C2  UNK     1      17.172  -0.938  33.988  1.00  0.00     0.025 C 
HETATM   19  C4  UNK     1      15.987  -0.978  34.948  1.00  0.00     0.002 C 
HETATM   20  C6  UNK     1      15.881   0.211  35.900  1.00  0.00     0.000 C 
HETATM   21  C7  UNK     1      16.887   0.141  37.043  1.00  0.00     0.000 C 
HETATM   22  C5  UNK     1      18.278   0.681  36.732  1.00  0.00     0.002 C 
HETATM   23  C3  UNK     1      18.805   0.530  35.306  1.00  0.00     0.025 C 
ENDBRANCH  15  17
ENDBRANCH   4  13
TORSDOF 2
ENDMDL
