MODEL 1
REMARK VINA RESULT:      -7.4      0.000      0.000
REMARK  3 active torsions:
REMARK  status: ('A' for Active; 'I' for Inactive)
REMARK    1  A    between atoms: C12_17  and  O2_3 
REMARK    2  A    between atoms: C5_10  and  O2_3 
REMARK    3  A    between atoms: C11_16  and  C12_17 
ROOT
HETATM    1 Cl1  UNK     1      18.029   0.384  34.096  1.00  0.00    -0.081 Cl
HETATM    2  O1  UNK     1      18.288   5.449  34.145  1.00  0.00    -0.275 OA
HETATM    3  O3  UNK     1      18.390   7.730  34.277  1.00  0.00    -0.260 OA
HETATM    4  C1  UNK     1      18.537   4.367  31.968  1.00  0.00     0.007 A 
HETATM    5  C2  UNK     1      18.693   5.693  31.354  1.00  0.00    -0.043 A 
HETATM    6  C3  UNK     1      18.338   4.288  33.348  1.00  0.00     0.092 A 
HETATM    7  C4  UNK     1      18.576   3.165  31.248  1.00  0.00     0.054 A 
HETATM    8  C5  UNK     1      18.421   1.936  31.898  1.00  0.00     0.101 A 
HETATM    9  C6  UNK     1      18.182   3.069  34.010  1.00  0.00     0.065 A 
HETATM   10  C7  UNK     1      18.223   1.887  33.277  1.00  0.00     0.070 A 
HETATM   11  C8  UNK     1      18.641   6.780  32.136  1.00  0.00     0.090 A 
HETATM   12  C9  UNK     1      18.906   5.811  29.874  1.00  0.00     0.049 C 
HETATM   13  C10 UNK     1      18.433   6.713  33.594  1.00  0.00     0.288 A 
ENDROOT
BRANCH   8  14
HETATM   14  O2  UNK     1      18.466   0.795  31.153  1.00  0.00    -0.277 OA
BRANCH  14  15
HETATM   15  C12 UNK     1      19.739   0.497  30.634  1.00  0.00     0.263 C 
HETATM   16  O4  UNK     1      20.720   0.192  31.298  1.00  0.00    -0.265 OA
BRANCH  15  17
HETATM   17  C11 UNK     1      19.702   0.609  29.126  1.00  0.00     0.107 C 
HETATM   18  C13 UNK     1      19.775  -0.750  28.451  1.00  0.00     0.015 C 
ENDBRANCH  15  17
ENDBRANCH  14  15
ENDBRANCH   8  14
TORSDOF 3
ENDMDL
MODEL 2
REMARK VINA RESULT:      -7.2      2.994      6.000
REMARK  3 active torsions:
REMARK  status: ('A' for Active; 'I' for Inactive)
REMARK    1  A    between atoms: C12_17  and  O2_3 
REMARK    2  A    between atoms: C5_10  and  O2_3 
REMARK    3  A    between atoms: C11_16  and  C12_17 
ROOT
HETATM    1 Cl1  UNK     1      18.765  -1.843  35.347  1.00  0.00    -0.081 Cl
HETATM    2  O1  UNK     1      19.861  -1.032  30.461  1.00  0.00    -0.275 OA
HETATM    3  O3  UNK     1      20.391  -0.772  28.252  1.00  0.00    -0.260 OA
HETATM    4  C1  UNK     1      18.887   0.845  31.685  1.00  0.00     0.007 A 
HETATM    5  C2  UNK     1      18.960   1.650  30.458  1.00  0.00    -0.043 A 
HETATM    6  C3  UNK     1      19.342  -0.474  31.647  1.00  0.00     0.092 A 
HETATM    7  C4  UNK     1      18.384   1.324  32.902  1.00  0.00     0.054 A 
HETATM    8  C5  UNK     1      18.344   0.500  34.033  1.00  0.00     0.101 A 
HETATM    9  C6  UNK     1      19.308  -1.307  32.766  1.00  0.00     0.065 A 
HETATM   10  C7  UNK     1      18.805  -0.813  33.966  1.00  0.00     0.070 A 
HETATM   11  C8  UNK     1      19.458   1.094  29.345  1.00  0.00     0.090 A 
HETATM   12  C9  UNK     1      18.480   3.072  30.467  1.00  0.00     0.049 C 
HETATM   13  C10 UNK     1      19.940  -0.297  29.288  1.00  0.00     0.288 A 
ENDROOT
BRANCH   8  14
HETATM   14  O2  UNK     1      17.846   1.013  35.195  1.00  0.00    -0.277 OA
BRANCH  14  15
HETATM   15  C12 UNK     1      16.484   0.734  35.409  1.00  0.00     0.263 C 
HETATM   16  O4  UNK     1      15.649   0.565  34.530  1.00  0.00    -0.265 OA
BRANCH  15  17
HETATM   17  C11 UNK     1      16.215   0.673  36.896  1.00  0.00     0.107 C 
HETATM   18  C13 UNK     1      17.495   0.729  37.710  1.00  0.00     0.015 C 
ENDBRANCH  15  17
ENDBRANCH  14  15
ENDBRANCH   8  14
TORSDOF 3
ENDMDL
MODEL 3
REMARK VINA RESULT:      -7.1      3.136      4.525
REMARK  3 active torsions:
REMARK  status: ('A' for Active; 'I' for Inactive)
REMARK    1  A    between atoms: C12_17  and  O2_3 
REMARK    2  A    between atoms: C5_10  and  O2_3 
REMARK    3  A    between atoms: C11_16  and  C12_17 
ROOT
HETATM    1 Cl1  UNK     1      20.761   6.508  32.914  1.00  0.00    -0.081 Cl
HETATM    2  O1  UNK     1      16.815   9.090  34.784  1.00  0.00    -0.275 OA
HETATM    3  O3  UNK     1      15.107  10.308  35.694  1.00  0.00    -0.260 OA
HETATM    4  C1  UNK     1      16.319   7.463  33.030  1.00  0.00     0.007 A 
HETATM    5  C2  UNK     1      14.899   7.829  33.127  1.00  0.00    -0.043 A 
HETATM    6  C3  UNK     1      17.235   8.108  33.865  1.00  0.00     0.092 A 
HETATM    7  C4  UNK     1      16.817   6.500  32.142  1.00  0.00     0.054 A 
HETATM    8  C5  UNK     1      18.184   6.202  32.101  1.00  0.00     0.101 A 
HETATM    9  C6  UNK     1      18.600   7.821  33.836  1.00  0.00     0.065 A 
HETATM   10  C7  UNK     1      19.074   6.861  32.947  1.00  0.00     0.070 A 
HETATM   11  C8  UNK     1      14.530   8.766  34.010  1.00  0.00     0.090 A 
HETATM   12  C9  UNK     1      13.891   7.154  32.245  1.00  0.00     0.049 C 
HETATM   13  C10 UNK     1      15.483   9.456  34.897  1.00  0.00     0.288 A 
ENDROOT
BRANCH   8  14
HETATM   14  O2  UNK     1      18.619   5.256  31.221  1.00  0.00    -0.277 OA
BRANCH  14  15
HETATM   15  C12 UNK     1      18.279   3.939  31.578  1.00  0.00     0.263 C 
HETATM   16  O4  UNK     1      17.969   3.568  32.701  1.00  0.00    -0.265 OA
BRANCH  15  17
HETATM   17  C11 UNK     1      18.355   3.055  30.353  1.00  0.00     0.107 C 
HETATM   18  C13 UNK     1      18.934   1.688  30.672  1.00  0.00     0.015 C 
ENDBRANCH  15  17
ENDBRANCH  14  15
ENDBRANCH   8  14
TORSDOF 3
ENDMDL
MODEL 4
REMARK VINA RESULT:      -7.0      2.465      6.316
REMARK  3 active torsions:
REMARK  status: ('A' for Active; 'I' for Inactive)
REMARK    1  A    between atoms: C12_17  and  O2_3 
REMARK    2  A    between atoms: C5_10  and  O2_3 
REMARK    3  A    between atoms: C11_16  and  C12_17 
ROOT
HETATM    1 Cl1  UNK     1      18.689   5.931  30.091  1.00  0.00    -0.081 Cl
HETATM    2  O1  UNK     1      18.533   1.134  31.733  1.00  0.00    -0.275 OA
HETATM    3  O3  UNK     1      18.476  -1.062  32.369  1.00  0.00    -0.260 OA
HETATM    4  C1  UNK     1      18.323   2.875  33.435  1.00  0.00     0.007 A 
HETATM    5  C2  UNK     1      18.213   1.827  34.459  1.00  0.00    -0.043 A 
HETATM    6  C3  UNK     1      18.480   2.494  32.101  1.00  0.00     0.092 A 
HETATM    7  C4  UNK     1      18.282   4.247  33.717  1.00  0.00     0.054 A 
HETATM    8  C5  UNK     1      18.395   5.193  32.692  1.00  0.00     0.101 A 
HETATM    9  C6  UNK     1      18.593   3.425  31.068  1.00  0.00     0.065 A 
HETATM   10  C7  UNK     1      18.550   4.783  31.369  1.00  0.00     0.070 A 
HETATM   11  C8  UNK     1      18.266   0.542  34.080  1.00  0.00     0.090 A 
HETATM   12  C9  UNK     1      18.042   2.204  35.901  1.00  0.00     0.049 C 
HETATM   13  C10 UNK     1      18.433   0.123  32.677  1.00  0.00     0.288 A 
ENDROOT
BRANCH   8  14
HETATM   14  O2  UNK     1      18.348   6.516  33.017  1.00  0.00    -0.277 OA
BRANCH  14  15
HETATM   15  C12 UNK     1      19.572   7.040  33.471  1.00  0.00     0.263 C 
HETATM   16  O4  UNK     1      20.675   6.735  33.040  1.00  0.00    -0.265 OA
BRANCH  15  17
HETATM   17  C11 UNK     1      19.308   8.042  34.573  1.00  0.00     0.107 C 
HETATM   18  C13 UNK     1      20.279   9.208  34.528  1.00  0.00     0.015 C 
ENDBRANCH  15  17
ENDBRANCH  14  15
ENDBRANCH   8  14
TORSDOF 3
ENDMDL
MODEL 5
REMARK VINA RESULT:      -7.0     22.919     24.620
REMARK  3 active torsions:
REMARK  status: ('A' for Active; 'I' for Inactive)
REMARK    1  A    between atoms: C12_17  and  O2_3 
REMARK    2  A    between atoms: C5_10  and  O2_3 
REMARK    3  A    between atoms: C11_16  and  C12_17 
ROOT
HETATM    1 Cl1  UNK     1      11.909   4.181   8.594  1.00  0.00    -0.081 Cl
HETATM    2  O1  UNK     1      16.188   6.505  10.017  1.00  0.00    -0.275 OA
HETATM    3  O3  UNK     1      18.155   7.454  10.692  1.00  0.00    -0.260 OA
HETATM    4  C1  UNK     1      14.466   7.915   9.007  1.00  0.00     0.007 A 
HETATM    5  C2  UNK     1      15.353   9.074   9.174  1.00  0.00    -0.043 A 
HETATM    6  C3  UNK     1      14.913   6.663   9.435  1.00  0.00     0.092 A 
HETATM    7  C4  UNK     1      13.188   7.987   8.437  1.00  0.00     0.054 A 
HETATM    8  C5  UNK     1      12.396   6.840   8.307  1.00  0.00     0.101 A 
HETATM    9  C6  UNK     1      14.135   5.511   9.312  1.00  0.00     0.065 A 
HETATM   10  C7  UNK     1      12.869   5.604   8.744  1.00  0.00     0.070 A 
HETATM   11  C8  UNK     1      16.559   8.894   9.730  1.00  0.00     0.090 A 
HETATM   12  C9  UNK     1      14.900  10.433   8.725  1.00  0.00     0.049 C 
HETATM   13  C10 UNK     1      17.046   7.580  10.186  1.00  0.00     0.288 A 
ENDROOT
BRANCH   8  14
HETATM   14  O2  UNK     1      11.159   6.963   7.747  1.00  0.00    -0.277 OA
BRANCH  14  15
HETATM   15  C12 UNK     1      11.089   6.535   6.409  1.00  0.00     0.263 C 
HETATM   16  O4  UNK     1      12.037   6.456   5.640  1.00  0.00    -0.265 OA
BRANCH  15  17
HETATM   17  C11 UNK     1       9.656   6.187   6.071  1.00  0.00     0.107 C 
HETATM   18  C13 UNK     1       8.752   6.244   7.290  1.00  0.00     0.015 C 
ENDBRANCH  15  17
ENDBRANCH  14  15
ENDBRANCH   8  14
TORSDOF 3
ENDMDL
MODEL 6
REMARK VINA RESULT:      -7.0      3.465      5.404
REMARK  3 active torsions:
REMARK  status: ('A' for Active; 'I' for Inactive)
REMARK    1  A    between atoms: C12_17  and  O2_3 
REMARK    2  A    between atoms: C5_10  and  O2_3 
REMARK    3  A    between atoms: C11_16  and  C12_17 
ROOT
HETATM    1 Cl1  UNK     1      18.364   2.591  31.766  1.00  0.00    -0.081 Cl
HETATM    2  O1  UNK     1      17.937   1.797  36.758  1.00  0.00    -0.275 OA
HETATM    3  O3  UNK     1      17.733   1.548  39.022  1.00  0.00    -0.260 OA
HETATM    4  C1  UNK     1      18.251  -0.185  35.362  1.00  0.00     0.007 A 
HETATM    5  C2  UNK     1      18.203  -1.015  36.574  1.00  0.00    -0.043 A 
HETATM    6  C3  UNK     1      18.117   1.199  35.494  1.00  0.00     0.092 A 
HETATM    7  C4  UNK     1      18.424  -0.700  34.071  1.00  0.00     0.054 A 
HETATM    8  C5  UNK     1      18.459   0.150  32.959  1.00  0.00     0.101 A 
HETATM    9  C6  UNK     1      18.150   2.059  34.395  1.00  0.00     0.065 A 
HETATM   10  C7  UNK     1      18.323   1.528  33.121  1.00  0.00     0.070 A 
HETATM   11  C8  UNK     1      18.032  -0.419  37.762  1.00  0.00     0.090 A 
HETATM   12  C9  UNK     1      18.346  -2.504  36.466  1.00  0.00     0.049 C 
HETATM   13  C10 UNK     1      17.887   1.039  37.917  1.00  0.00     0.288 A 
ENDROOT
BRANCH   8  14
HETATM   14  O2  UNK     1      18.630  -0.400  31.723  1.00  0.00    -0.277 OA
BRANCH  14  15
HETATM   15  C12 UNK     1      19.972  -0.655  31.388  1.00  0.00     0.263 C 
HETATM   16  O4  UNK     1      20.821   0.199  31.167  1.00  0.00    -0.265 OA
BRANCH  15  17
HETATM   17  C11 UNK     1      20.201  -2.149  31.348  1.00  0.00     0.107 C 
HETATM   18  C13 UNK     1      21.047  -2.628  32.514  1.00  0.00     0.015 C 
ENDBRANCH  15  17
ENDBRANCH  14  15
ENDBRANCH   8  14
TORSDOF 3
ENDMDL
MODEL 7
REMARK VINA RESULT:      -6.8     22.332     24.204
REMARK  3 active torsions:
REMARK  status: ('A' for Active; 'I' for Inactive)
REMARK    1  A    between atoms: C12_17  and  O2_3 
REMARK    2  A    between atoms: C5_10  and  O2_3 
REMARK    3  A    between atoms: C11_16  and  C12_17 
ROOT
HETATM    1 Cl1  UNK     1      15.559   4.348   9.824  1.00  0.00    -0.081 Cl
HETATM    2  O1  UNK     1      11.212   5.310   7.392  1.00  0.00    -0.275 OA
HETATM    3  O3  UNK     1       9.266   5.649   6.240  1.00  0.00    -0.260 OA
HETATM    4  C1  UNK     1      11.917   6.956   9.055  1.00  0.00     0.007 A 
HETATM    5  C2  UNK     1      10.714   7.743   8.750  1.00  0.00    -0.043 A 
HETATM    6  C3  UNK     1      12.128   5.761   8.364  1.00  0.00     0.092 A 
HETATM    7  C4  UNK     1      12.874   7.333  10.007  1.00  0.00     0.054 A 
HETATM    8  C5  UNK     1      13.997   6.533  10.248  1.00  0.00     0.101 A 
HETATM    9  C6  UNK     1      13.243   4.954   8.593  1.00  0.00     0.065 A 
HETATM   10  C7  UNK     1      14.182   5.346   9.542  1.00  0.00     0.070 A 
HETATM   11  C8  UNK     1       9.861   7.290   7.821  1.00  0.00     0.090 A 
HETATM   12  C9  UNK     1      10.460   9.032   9.475  1.00  0.00     0.049 C 
HETATM   13  C10 UNK     1      10.069   6.031   7.084  1.00  0.00     0.288 A 
ENDROOT
BRANCH   8  14
HETATM   14  O2  UNK     1      14.901   6.944  11.184  1.00  0.00    -0.277 OA
BRANCH  14  15
HETATM   15  C12 UNK     1      15.334   8.272  11.020  1.00  0.00     0.263 C 
HETATM   16  O4  UNK     1      14.947   9.229  11.677  1.00  0.00    -0.265 OA
BRANCH  15  17
HETATM   17  C11 UNK     1      16.357   8.329   9.908  1.00  0.00     0.107 C 
HETATM   18  C13 UNK     1      17.530   7.399  10.163  1.00  0.00     0.015 C 
ENDBRANCH  15  17
ENDBRANCH  14  15
ENDBRANCH   8  14
TORSDOF 3
ENDMDL
MODEL 8
REMARK VINA RESULT:      -6.7     22.668     23.400
REMARK  3 active torsions:
REMARK  status: ('A' for Active; 'I' for Inactive)
REMARK    1  A    between atoms: C12_17  and  O2_3 
REMARK    2  A    between atoms: C5_10  and  O2_3 
REMARK    3  A    between atoms: C11_16  and  C12_17 
ROOT
HETATM    1 Cl1  UNK     1      15.320   4.118   9.996  1.00  0.00    -0.081 Cl
HETATM    2  O1  UNK     1      17.514   8.685   9.758  1.00  0.00    -0.275 OA
HETATM    3  O3  UNK     1      18.601  10.694   9.638  1.00  0.00    -0.260 OA
HETATM    4  C1  UNK     1      15.085   8.656  10.028  1.00  0.00     0.007 A 
HETATM    5  C2  UNK     1      15.093  10.126  10.029  1.00  0.00    -0.043 A 
HETATM    6  C3  UNK     1      16.300   7.981   9.893  1.00  0.00     0.092 A 
HETATM    7  C4  UNK     1      13.924   7.883  10.156  1.00  0.00     0.054 A 
HETATM    8  C5  UNK     1      13.990   6.485  10.146  1.00  0.00     0.101 A 
HETATM    9  C6  UNK     1      16.382   6.588   9.882  1.00  0.00     0.065 A 
HETATM   10  C7  UNK     1      15.217   5.838  10.010  1.00  0.00     0.070 A 
HETATM   11  C8  UNK     1      16.261  10.769   9.899  1.00  0.00     0.090 A 
HETATM   12  C9  UNK     1      13.804  10.880  10.174  1.00  0.00     0.049 C 
HETATM   13  C10 UNK     1      17.551  10.071   9.754  1.00  0.00     0.288 A 
ENDROOT
BRANCH   8  14
HETATM   14  O2  UNK     1      12.831   5.777  10.274  1.00  0.00    -0.277 OA
BRANCH  14  15
HETATM   15  C12 UNK     1      11.898   6.012   9.248  1.00  0.00     0.263 C 
HETATM   16  O4  UNK     1      10.896   6.708   9.348  1.00  0.00    -0.265 OA
BRANCH  15  17
HETATM   17  C11 UNK     1      12.329   5.272   8.002  1.00  0.00     0.107 C 
HETATM   18  C13 UNK     1      11.955   6.022   6.735  1.00  0.00     0.015 C 
ENDBRANCH  15  17
ENDBRANCH  14  15
ENDBRANCH   8  14
TORSDOF 3
ENDMDL
MODEL 9
REMARK VINA RESULT:      -6.7      3.749      6.024
REMARK  3 active torsions:
REMARK  status: ('A' for Active; 'I' for Inactive)
REMARK    1  A    between atoms: C12_17  and  O2_3 
REMARK    2  A    between atoms: C5_10  and  O2_3 
REMARK    3  A    between atoms: C11_16  and  C12_17 
ROOT
HETATM    1 Cl1  UNK     1      17.855   0.348  36.402  1.00  0.00    -0.081 Cl
HETATM    2  O1  UNK     1      18.651   1.439  31.512  1.00  0.00    -0.275 OA
HETATM    3  O3  UNK     1      18.965   2.031  29.326  1.00  0.00    -0.260 OA
HETATM    4  C1  UNK     1      19.385  -0.765  32.270  1.00  0.00     0.007 A 
HETATM    5  C2  UNK     1      19.856  -1.049  30.908  1.00  0.00    -0.043 A 
HETATM    6  C3  UNK     1      18.796   0.474  32.530  1.00  0.00     0.092 A 
HETATM    7  C4  UNK     1      19.493  -1.668  33.336  1.00  0.00     0.054 A 
HETATM    8  C5  UNK     1      19.024  -1.331  34.611  1.00  0.00     0.101 A 
HETATM    9  C6  UNK     1      18.323   0.825  33.795  1.00  0.00     0.065 A 
HETATM   10  C7  UNK     1      18.440  -0.086  34.840  1.00  0.00     0.070 A 
HETATM   11  C8  UNK     1      19.705  -0.113  29.961  1.00  0.00     0.090 A 
HETATM   12  C9  UNK     1      20.492  -2.372  30.597  1.00  0.00     0.049 C 
HETATM   13  C10 UNK     1      19.087   1.199  30.218  1.00  0.00     0.288 A 
ENDROOT
BRANCH   8  14
HETATM   14  O2  UNK     1      19.152  -2.244  35.615  1.00  0.00    -0.277 OA
BRANCH  14  15
HETATM   15  C12 UNK     1      20.477  -2.451  36.040  1.00  0.00     0.263 C 
HETATM   16  O4  UNK     1      21.449  -1.810  35.664  1.00  0.00    -0.265 OA
BRANCH  15  17
HETATM   17  C11 UNK     1      20.510  -3.588  37.036  1.00  0.00     0.107 C 
HETATM   18  C13 UNK     1      19.904  -4.860  36.470  1.00  0.00     0.015 C 
ENDBRANCH  15  17
ENDBRANCH  14  15
ENDBRANCH   8  14
TORSDOF 3
ENDMDL
MODEL 10
REMARK VINA RESULT:      -6.7      2.366      5.415
REMARK  3 active torsions:
REMARK  status: ('A' for Active; 'I' for Inactive)
REMARK    1  A    between atoms: C12_17  and  O2_3 
REMARK    2  A    between atoms: C5_10  and  O2_3 
REMARK    3  A    between atoms: C11_16  and  C12_17 
ROOT
HETATM    1 Cl1  UNK     1      17.603   5.450  33.791  1.00  0.00    -0.081 Cl
HETATM    2  O1  UNK     1      18.577   0.493  33.339  1.00  0.00    -0.275 OA
HETATM    3  O3  UNK     1      18.988  -1.755  33.241  1.00  0.00    -0.260 OA
HETATM    4  C1  UNK     1      18.870   1.849  31.327  1.00  0.00     0.007 A 
HETATM    5  C2  UNK     1      19.269   0.636  30.598  1.00  0.00    -0.043 A 
HETATM    6  C3  UNK     1      18.536   1.737  32.678  1.00  0.00     0.092 A 
HETATM    7  C4  UNK     1      18.802   3.121  30.744  1.00  0.00     0.054 A 
HETATM    8  C5  UNK     1      18.412   4.234  31.498  1.00  0.00     0.101 A 
HETATM    9  C6  UNK     1      18.146   2.838  33.443  1.00  0.00     0.065 A 
HETATM   10  C7  UNK     1      18.085   4.093  32.845  1.00  0.00     0.070 A 
HETATM   11  C8  UNK     1      19.299  -0.533  31.252  1.00  0.00     0.090 A 
HETATM   12  C9  UNK     1      19.635   0.723  29.146  1.00  0.00     0.049 C 
HETATM   13  C10 UNK     1      18.948  -0.667  32.676  1.00  0.00     0.288 A 
ENDROOT
BRANCH   8  14
HETATM   14  O2  UNK     1      18.362   5.451  30.885  1.00  0.00    -0.277 OA
BRANCH  14  15
HETATM   15  C12 UNK     1      19.623   6.027  30.648  1.00  0.00     0.263 C 
HETATM   16  O4  UNK     1      20.146   6.157  29.550  1.00  0.00    -0.265 OA
BRANCH  15  17
HETATM   17  C11 UNK     1      20.228   6.464  31.963  1.00  0.00     0.107 C 
HETATM   18  C13 UNK     1      21.666   5.999  32.112  1.00  0.00     0.015 C 
ENDBRANCH  15  17
ENDBRANCH  14  15
ENDBRANCH   8  14
TORSDOF 3
ENDMDL
