MODEL 1
REMARK VINA RESULT:      -8.1      0.000      0.000
REMARK  4 active torsions:
REMARK  status: ('A' for Active; 'I' for Inactive)
REMARK    1  A    between atoms: C9_14  and  O2_2 
REMARK    2  A    between atoms: C6_11  and  O3_3 
REMARK    3  A    between atoms: C15_20  and  O5_5 
REMARK    4  A    between atoms: C3_8  and  C5_10 
ROOT
HETATM    1  O1  UNK     1      17.770   8.355  33.247  1.00  0.00    -0.309 OA
HETATM    2  O4  UNK     1      14.424   7.155  31.258  1.00  0.00    -0.287 OA
HETATM    3  C1  UNK     1      15.375   8.563  32.899  1.00  0.00     0.081 A 
HETATM    4  C2  UNK     1      16.558   8.926  33.541  1.00  0.00     0.095 A 
HETATM    5  C3  UNK     1      17.816   7.367  32.276  1.00  0.00     0.090 A 
HETATM    6  C4  UNK     1      15.422   7.522  31.862  1.00  0.00     0.190 A 
HETATM    7  C6  UNK     1      14.169   9.180  33.239  1.00  0.00     0.085 A 
HETATM    8  C7  UNK     1      16.749   6.936  31.584  1.00  0.00     0.094 A 
HETATM    9  C8  UNK     1      16.542   9.913  34.527  1.00  0.00     0.075 A 
HETATM   10  C9  UNK     1      15.338  10.531  34.870  1.00  0.00     0.073 A 
HETATM   11  C10 UNK     1      14.155  10.166  34.227  1.00  0.00     0.074 A 
ENDROOT
BRANCH   5  12
HETATM   12  C5  UNK     1      19.169   6.825  32.035  1.00  0.00    -0.002 A 
HETATM   13  C11 UNK     1      20.147   6.915  33.029  1.00  0.00     0.017 A 
HETATM   14  C13 UNK     1      21.425   6.402  32.801  1.00  0.00     0.037 A 
HETATM   15  C15 UNK     1      21.727   5.799  31.581  1.00  0.00     0.065 A 
HETATM   16  C14 UNK     1      20.752   5.707  30.588  1.00  0.00     0.037 A 
HETATM   17  C12 UNK     1      19.475   6.219  30.815  1.00  0.00     0.017 A 
BRANCH  15  18
HETATM   18  O5  UNK     1      22.974   5.300  31.359  1.00  0.00    -0.361 OA
HETATM   19  H12 UNK     1      23.458   5.910  30.775  1.00  0.00     0.217 HD
ENDBRANCH  15  18
ENDBRANCH   5  12
BRANCH   7  20
HETATM   20  O3  UNK     1      12.988   8.859  32.642  1.00  0.00    -0.360 OA
HETATM   21  H8  UNK     1      13.047   7.992  32.213  1.00  0.00     0.217 HD
ENDBRANCH   7  20
BRANCH  10  22
HETATM   22  O2  UNK     1      15.320  11.494  35.832  1.00  0.00    -0.356 OA
HETATM   23  C16 UNK     1      16.017  12.707  35.551  1.00  0.00     0.210 C 
ENDBRANCH  10  22
TORSDOF 4
ENDMDL
MODEL 2
REMARK VINA RESULT:      -8.0      5.334      7.799
REMARK  4 active torsions:
REMARK  status: ('A' for Active; 'I' for Inactive)
REMARK    1  A    between atoms: C9_14  and  O2_2 
REMARK    2  A    between atoms: C6_11  and  O3_3 
REMARK    3  A    between atoms: C15_20  and  O5_5 
REMARK    4  A    between atoms: C3_8  and  C5_10 
ROOT
HETATM    1  O1  UNK     1      18.253   3.639  34.293  1.00  0.00    -0.309 OA
HETATM    2  O4  UNK     1      18.353   1.550  30.797  1.00  0.00    -0.287 OA
HETATM    3  C1  UNK     1      18.333   1.493  33.159  1.00  0.00     0.081 A 
HETATM    4  C2  UNK     1      18.297   2.268  34.316  1.00  0.00     0.095 A 
HETATM    5  C3  UNK     1      18.254   4.278  33.063  1.00  0.00     0.090 A 
HETATM    6  C4  UNK     1      18.325   2.167  31.852  1.00  0.00     0.190 A 
HETATM    7  C6  UNK     1      18.376   0.099  33.243  1.00  0.00     0.085 A 
HETATM    8  C7  UNK     1      18.280   3.643  31.880  1.00  0.00     0.094 A 
HETATM    9  C8  UNK     1      18.302   1.652  35.568  1.00  0.00     0.075 A 
HETATM   10  C9  UNK     1      18.345   0.260  35.657  1.00  0.00     0.073 A 
HETATM   11  C10 UNK     1      18.382  -0.514  34.497  1.00  0.00     0.074 A 
ENDROOT
BRANCH   5  12
HETATM   12  C5  UNK     1      18.200   5.752  33.153  1.00  0.00    -0.002 A 
HETATM   13  C11 UNK     1      17.109   6.447  32.625  1.00  0.00     0.017 A 
HETATM   14  C13 UNK     1      17.059   7.839  32.710  1.00  0.00     0.037 A 
HETATM   15  C15 UNK     1      18.098   8.538  33.323  1.00  0.00     0.065 A 
HETATM   16  C14 UNK     1      19.188   7.847  33.852  1.00  0.00     0.037 A 
HETATM   17  C12 UNK     1      19.239   6.455  33.767  1.00  0.00     0.017 A 
BRANCH  15  18
HETATM   18  O5  UNK     1      18.049   9.896  33.406  1.00  0.00    -0.361 OA
HETATM   19  H12 UNK     1      17.125  10.185  33.303  1.00  0.00     0.217 HD
ENDBRANCH  15  18
ENDBRANCH   5  12
BRANCH   7  20
HETATM   20  O3  UNK     1      18.413  -0.702  32.142  1.00  0.00    -0.360 OA
HETATM   21  H8  UNK     1      19.176  -0.482  31.587  1.00  0.00     0.217 HD
ENDBRANCH   7  20
BRANCH  10  22
HETATM   22  O2  UNK     1      18.350  -0.342  36.877  1.00  0.00    -0.356 OA
HETATM   23  C16 UNK     1      17.999  -1.725  36.920  1.00  0.00     0.210 C 
ENDBRANCH  10  22
TORSDOF 4
ENDMDL
MODEL 3
REMARK VINA RESULT:      -8.0      8.087     10.852
REMARK  4 active torsions:
REMARK  status: ('A' for Active; 'I' for Inactive)
REMARK    1  A    between atoms: C9_14  and  O2_2 
REMARK    2  A    between atoms: C6_11  and  O3_3 
REMARK    3  A    between atoms: C15_20  and  O5_5 
REMARK    4  A    between atoms: C3_8  and  C5_10 
ROOT
HETATM    1  O1  UNK     1      18.947   0.018  33.056  1.00  0.00    -0.309 OA
HETATM    2  O4  UNK     1      20.923  -3.529  32.735  1.00  0.00    -0.287 OA
HETATM    3  C1  UNK     1      20.030  -1.634  31.644  1.00  0.00     0.081 A 
HETATM    4  C2  UNK     1      19.351  -0.431  31.824  1.00  0.00     0.095 A 
HETATM    5  C3  UNK     1      19.220  -0.765  34.166  1.00  0.00     0.090 A 
HETATM    6  C4  UNK     1      20.330  -2.464  32.820  1.00  0.00     0.190 A 
HETATM    7  C6  UNK     1      20.419  -2.041  30.365  1.00  0.00     0.085 A 
HETATM    8  C7  UNK     1      19.871  -1.939  34.123  1.00  0.00     0.094 A 
HETATM    9  C8  UNK     1      19.057   0.376  30.725  1.00  0.00     0.075 A 
HETATM   10  C9  UNK     1      19.443  -0.027  29.446  1.00  0.00     0.073 A 
HETATM   11  C10 UNK     1      20.122  -1.233  29.267  1.00  0.00     0.074 A 
ENDROOT
BRANCH   5  12
HETATM   12  C5  UNK     1      18.746  -0.186  35.440  1.00  0.00    -0.002 A 
HETATM   13  C11 UNK     1      18.676   1.200  35.597  1.00  0.00     0.017 A 
HETATM   14  C13 UNK     1      18.229   1.746  36.801  1.00  0.00     0.037 A 
HETATM   15  C15 UNK     1      17.850   0.908  37.849  1.00  0.00     0.065 A 
HETATM   16  C14 UNK     1      17.918  -0.476  37.695  1.00  0.00     0.037 A 
HETATM   17  C12 UNK     1      18.366  -1.023  36.492  1.00  0.00     0.017 A 
BRANCH  15  18
HETATM   18  O5  UNK     1      17.415   1.441  39.024  1.00  0.00    -0.361 OA
HETATM   19  H12 UNK     1      16.469   1.652  38.942  1.00  0.00     0.217 HD
ENDBRANCH  15  18
ENDBRANCH   5  12
BRANCH   7  20
HETATM   20  O3  UNK     1      21.083  -3.207  30.137  1.00  0.00    -0.360 OA
HETATM   21  H8  UNK     1      20.954  -3.500  29.222  1.00  0.00     0.217 HD
ENDBRANCH   7  20
BRANCH  10  22
HETATM   22  O2  UNK     1      19.157   0.759  28.371  1.00  0.00    -0.356 OA
HETATM   23  C16 UNK     1      18.092   1.697  28.518  1.00  0.00     0.210 C 
ENDBRANCH  10  22
TORSDOF 4
ENDMDL
MODEL 4
REMARK VINA RESULT:      -7.9     23.621     25.981
REMARK  4 active torsions:
REMARK  status: ('A' for Active; 'I' for Inactive)
REMARK    1  A    between atoms: C9_14  and  O2_2 
REMARK    2  A    between atoms: C6_11  and  O3_3 
REMARK    3  A    between atoms: C15_20  and  O5_5 
REMARK    4  A    between atoms: C3_8  and  C5_10 
ROOT
HETATM    1  O1  UNK     1       9.639   5.592   9.663  1.00  0.00    -0.309 OA
HETATM    2  O4  UNK     1       9.439   6.503   5.697  1.00  0.00    -0.287 OA
HETATM    3  C1  UNK     1      10.788   5.924   7.549  1.00  0.00     0.081 A 
HETATM    4  C2  UNK     1      10.785   5.620   8.908  1.00  0.00     0.095 A 
HETATM    5  C3  UNK     1       8.434   5.889   9.044  1.00  0.00     0.090 A 
HETATM    6  C4  UNK     1       9.511   6.230   6.886  1.00  0.00     0.190 A 
HETATM    7  C6  UNK     1      11.985   5.936   6.830  1.00  0.00     0.085 A 
HETATM    8  C7  UNK     1       8.307   6.190   7.742  1.00  0.00     0.094 A 
HETATM    9  C8  UNK     1      11.983   5.324   9.560  1.00  0.00     0.075 A 
HETATM   10  C9  UNK     1      13.182   5.336   8.846  1.00  0.00     0.073 A 
HETATM   11  C10 UNK     1      13.183   5.641   7.484  1.00  0.00     0.074 A 
ENDROOT
BRANCH   5  12
HETATM   12  C5  UNK     1       7.266   5.825   9.945  1.00  0.00    -0.002 A 
HETATM   13  C11 UNK     1       6.848   6.966  10.634  1.00  0.00     0.017 A 
HETATM   14  C13 UNK     1       5.744   6.905  11.485  1.00  0.00     0.037 A 
HETATM   15  C15 UNK     1       5.055   5.704  11.649  1.00  0.00     0.065 A 
HETATM   16  C14 UNK     1       5.470   4.563  10.962  1.00  0.00     0.037 A 
HETATM   17  C12 UNK     1       6.574   4.623  10.111  1.00  0.00     0.017 A 
BRANCH  15  18
HETATM   18  O5  UNK     1       3.979   5.644  12.480  1.00  0.00    -0.361 OA
HETATM   19  H12 UNK     1       3.750   4.711  12.632  1.00  0.00     0.217 HD
ENDBRANCH  15  18
ENDBRANCH   5  12
BRANCH   7  20
HETATM   20  O3  UNK     1      12.041   6.227   5.501  1.00  0.00    -0.360 OA
HETATM   21  H8  UNK     1      12.951   6.421   5.232  1.00  0.00     0.217 HD
ENDBRANCH   7  20
BRANCH  10  22
HETATM   22  O2  UNK     1      14.352   5.047   9.479  1.00  0.00    -0.356 OA
HETATM   23  C16 UNK     1      15.017   6.124  10.137  1.00  0.00     0.210 C 
ENDBRANCH  10  22
TORSDOF 4
ENDMDL
MODEL 5
REMARK VINA RESULT:      -7.9      5.057      7.946
REMARK  4 active torsions:
REMARK  status: ('A' for Active; 'I' for Inactive)
REMARK    1  A    between atoms: C9_14  and  O2_2 
REMARK    2  A    between atoms: C6_11  and  O3_3 
REMARK    3  A    between atoms: C15_20  and  O5_5 
REMARK    4  A    between atoms: C3_8  and  C5_10 
ROOT
HETATM    1  O1  UNK     1      18.104   3.245  33.310  1.00  0.00    -0.309 OA
HETATM    2  O4  UNK     1      19.156   1.715  29.684  1.00  0.00    -0.287 OA
HETATM    3  C1  UNK     1      18.662   1.306  31.958  1.00  0.00     0.081 A 
HETATM    4  C2  UNK     1      18.301   1.895  33.168  1.00  0.00     0.095 A 
HETATM    5  C3  UNK     1      18.281   4.058  32.201  1.00  0.00     0.090 A 
HETATM    6  C4  UNK     1      18.842   2.164  30.776  1.00  0.00     0.190 A 
HETATM    7  C6  UNK     1      18.848  -0.075  31.872  1.00  0.00     0.085 A 
HETATM    8  C7  UNK     1      18.621   3.610  30.981  1.00  0.00     0.094 A 
HETATM    9  C8  UNK     1      18.122   1.102  34.303  1.00  0.00     0.075 A 
HETATM   10  C9  UNK     1      18.308  -0.278  34.221  1.00  0.00     0.073 A 
HETATM   11  C10 UNK     1      18.670  -0.866  33.008  1.00  0.00     0.074 A 
ENDROOT
BRANCH   5  12
HETATM   12  C5  UNK     1      18.039   5.491  32.463  1.00  0.00    -0.002 A 
HETATM   13  C11 UNK     1      19.067   6.296  32.961  1.00  0.00     0.017 A 
HETATM   14  C13 UNK     1      18.837   7.651  33.208  1.00  0.00     0.037 A 
HETATM   15  C15 UNK     1      17.581   8.202  32.959  1.00  0.00     0.065 A 
HETATM   16  C14 UNK     1      16.553   7.400  32.462  1.00  0.00     0.037 A 
HETATM   17  C12 UNK     1      16.782   6.047  32.215  1.00  0.00     0.017 A 
BRANCH  15  18
HETATM   18  O5  UNK     1      17.357   9.522  33.202  1.00  0.00    -0.361 OA
HETATM   19  H12 UNK     1      16.745   9.605  33.954  1.00  0.00     0.217 HD
ENDBRANCH  15  18
ENDBRANCH   5  12
BRANCH   7  20
HETATM   20  O3  UNK     1      19.201  -0.697  30.713  1.00  0.00    -0.360 OA
HETATM   21  H8  UNK     1      19.721  -0.102  30.151  1.00  0.00     0.217 HD
ENDBRANCH   7  20
BRANCH  10  22
HETATM   22  O2  UNK     1      18.134  -1.053  35.327  1.00  0.00    -0.356 OA
HETATM   23  C16 UNK     1      18.231  -0.406  36.595  1.00  0.00     0.210 C 
ENDBRANCH  10  22
TORSDOF 4
ENDMDL
MODEL 6
REMARK VINA RESULT:      -7.8     15.626     18.416
REMARK  4 active torsions:
REMARK  status: ('A' for Active; 'I' for Inactive)
REMARK    1  A    between atoms: C9_14  and  O2_2 
REMARK    2  A    between atoms: C6_11  and  O3_3 
REMARK    3  A    between atoms: C15_20  and  O5_5 
REMARK    4  A    between atoms: C3_8  and  C5_10 
ROOT
HETATM    1  O1  UNK     1      18.980  -1.093  17.653  1.00  0.00    -0.309 OA
HETATM    2  O4  UNK     1      19.356   2.016  15.047  1.00  0.00    -0.287 OA
HETATM    3  C1  UNK     1      19.105   1.305  17.286  1.00  0.00     0.081 A 
HETATM    4  C2  UNK     1      18.981   0.197  18.122  1.00  0.00     0.095 A 
HETATM    5  C3  UNK     1      19.099  -1.299  16.287  1.00  0.00     0.090 A 
HETATM    6  C4  UNK     1      19.241   1.090  15.837  1.00  0.00     0.190 A 
HETATM    7  C6  UNK     1      19.101   2.596  17.820  1.00  0.00     0.085 A 
HETATM    8  C7  UNK     1      19.232  -0.315  15.383  1.00  0.00     0.094 A 
HETATM    9  C8  UNK     1      18.853   0.373  19.500  1.00  0.00     0.075 A 
HETATM   10  C9  UNK     1      18.847   1.661  20.037  1.00  0.00     0.073 A 
HETATM   11  C10 UNK     1      18.971   2.770  19.198  1.00  0.00     0.074 A 
ENDROOT
BRANCH   5  12
HETATM   12  C5  UNK     1      19.092  -2.722  15.892  1.00  0.00    -0.002 A 
HETATM   13  C11 UNK     1      17.894  -3.343  15.531  1.00  0.00     0.017 A 
HETATM   14  C13 UNK     1      17.888  -4.688  15.158  1.00  0.00     0.037 A 
HETATM   15  C15 UNK     1      19.078  -5.414  15.145  1.00  0.00     0.065 A 
HETATM   16  C14 UNK     1      20.276  -4.796  15.505  1.00  0.00     0.037 A 
HETATM   17  C12 UNK     1      20.282  -3.452  15.878  1.00  0.00     0.017 A 
BRANCH  15  18
HETATM   18  O5  UNK     1      19.071  -6.726  14.783  1.00  0.00    -0.361 OA
HETATM   19  H12 UNK     1      18.149  -7.019  14.678  1.00  0.00     0.217 HD
ENDBRANCH  15  18
ENDBRANCH   5  12
BRANCH   7  20
HETATM   20  O3  UNK     1      19.219   3.710  17.045  1.00  0.00    -0.360 OA
HETATM   21  H8  UNK     1      18.777   4.464  17.464  1.00  0.00     0.217 HD
ENDBRANCH   7  20
BRANCH  10  22
HETATM   22  O2  UNK     1      18.722   1.836  21.381  1.00  0.00    -0.356 OA
HETATM   23  C16 UNK     1      19.894   2.221  22.098  1.00  0.00     0.210 C 
ENDBRANCH  10  22
TORSDOF 4
ENDMDL
MODEL 7
REMARK VINA RESULT:      -7.8      5.441      6.703
REMARK  4 active torsions:
REMARK  status: ('A' for Active; 'I' for Inactive)
REMARK    1  A    between atoms: C9_14  and  O2_2 
REMARK    2  A    between atoms: C6_11  and  O3_3 
REMARK    3  A    between atoms: C15_20  and  O5_5 
REMARK    4  A    between atoms: C3_8  and  C5_10 
ROOT
HETATM    1  O1  UNK     1      18.247   3.558  34.117  1.00  0.00    -0.309 OA
HETATM    2  O4  UNK     1      18.593   2.647  30.162  1.00  0.00    -0.287 OA
HETATM    3  C1  UNK     1      18.511   4.321  31.827  1.00  0.00     0.081 A 
HETATM    4  C2  UNK     1      18.389   4.562  33.194  1.00  0.00     0.095 A 
HETATM    5  C3  UNK     1      18.216   2.247  33.667  1.00  0.00     0.090 A 
HETATM    6  C4  UNK     1      18.488   2.931  31.346  1.00  0.00     0.190 A 
HETATM    7  C6  UNK     1      18.654   5.384  30.932  1.00  0.00     0.085 A 
HETATM    8  C7  UNK     1      18.331   1.887  32.378  1.00  0.00     0.094 A 
HETATM    9  C8  UNK     1      18.410   5.872  33.675  1.00  0.00     0.075 A 
HETATM   10  C9  UNK     1      18.552   6.937  32.785  1.00  0.00     0.073 A 
HETATM   11  C10 UNK     1      18.674   6.693  31.416  1.00  0.00     0.074 A 
ENDROOT
BRANCH   5  12
HETATM   12  C5  UNK     1      18.065   1.247  34.743  1.00  0.00    -0.002 A 
HETATM   13  C11 UNK     1      18.119  -0.117  34.446  1.00  0.00     0.017 A 
HETATM   14  C13 UNK     1      17.976  -1.062  35.463  1.00  0.00     0.037 A 
HETATM   15  C15 UNK     1      17.780  -0.645  36.779  1.00  0.00     0.065 A 
HETATM   16  C14 UNK     1      17.727   0.716  37.080  1.00  0.00     0.037 A 
HETATM   17  C12 UNK     1      17.869   1.661  36.063  1.00  0.00     0.017 A 
BRANCH  15  18
HETATM   18  O5  UNK     1      17.640  -1.566  37.771  1.00  0.00    -0.361 OA
HETATM   19  H12 UNK     1      18.523  -1.881  38.035  1.00  0.00     0.217 HD
ENDBRANCH  15  18
ENDBRANCH   5  12
BRANCH   7  20
HETATM   20  O3  UNK     1      18.777   5.200  29.588  1.00  0.00    -0.360 OA
HETATM   21  H8  UNK     1      19.459   4.538  29.396  1.00  0.00     0.217 HD
ENDBRANCH   7  20
BRANCH  10  22
HETATM   22  O2  UNK     1      18.573   8.215  33.252  1.00  0.00    -0.356 OA
HETATM   23  C16 UNK     1      19.440   8.490  34.351  1.00  0.00     0.210 C 
ENDBRANCH  10  22
TORSDOF 4
ENDMDL
MODEL 8
REMARK VINA RESULT:      -7.7      7.357     10.012
REMARK  4 active torsions:
REMARK  status: ('A' for Active; 'I' for Inactive)
REMARK    1  A    between atoms: C9_14  and  O2_2 
REMARK    2  A    between atoms: C6_11  and  O3_3 
REMARK    3  A    between atoms: C15_20  and  O5_5 
REMARK    4  A    between atoms: C3_8  and  C5_10 
ROOT
HETATM    1  O1  UNK     1      18.924   0.260  32.820  1.00  0.00    -0.309 OA
HETATM    2  O4  UNK     1      20.401  -2.426  30.137  1.00  0.00    -0.287 OA
HETATM    3  C1  UNK     1      19.541  -0.260  30.529  1.00  0.00     0.081 A 
HETATM    4  C2  UNK     1      19.045   0.609  31.499  1.00  0.00     0.095 A 
HETATM    5  C3  UNK     1      19.304  -1.017  33.203  1.00  0.00     0.090 A 
HETATM    6  C4  UNK     1      19.955  -1.613  30.933  1.00  0.00     0.190 A 
HETATM    7  C6  UNK     1      19.644   0.150  29.198  1.00  0.00     0.085 A 
HETATM    8  C7  UNK     1      19.802  -1.941  32.365  1.00  0.00     0.094 A 
HETATM    9  C8  UNK     1      18.648   1.899  31.142  1.00  0.00     0.075 A 
HETATM   10  C9  UNK     1      18.748   2.312  29.813  1.00  0.00     0.073 A 
HETATM   11  C10 UNK     1      19.245   1.440  28.843  1.00  0.00     0.074 A 
ENDROOT
BRANCH   5  12
HETATM   12  C5  UNK     1      19.137  -1.285  34.646  1.00  0.00    -0.002 A 
HETATM   13  C11 UNK     1      18.159  -0.606  35.377  1.00  0.00     0.017 A 
HETATM   14  C13 UNK     1      18.002  -0.860  36.740  1.00  0.00     0.037 A 
HETATM   15  C15 UNK     1      18.821  -1.792  37.375  1.00  0.00     0.065 A 
HETATM   16  C14 UNK     1      19.798  -2.472  36.647  1.00  0.00     0.037 A 
HETATM   17  C12 UNK     1      19.956  -2.218  35.285  1.00  0.00     0.017 A 
BRANCH  15  18
HETATM   18  O5  UNK     1      18.669  -2.038  38.705  1.00  0.00    -0.361 OA
HETATM   19  H12 UNK     1      17.848  -1.614  39.011  1.00  0.00     0.217 HD
ENDBRANCH  15  18
ENDBRANCH   5  12
BRANCH   7  20
HETATM   20  O3  UNK     1      20.122  -0.662  28.215  1.00  0.00    -0.360 OA
HETATM   21  H8  UNK     1      19.394  -1.021  27.686  1.00  0.00     0.217 HD
ENDBRANCH   7  20
BRANCH  10  22
HETATM   22  O2  UNK     1      18.362   3.569  29.462  1.00  0.00    -0.356 OA
HETATM   23  C16 UNK     1      19.053   4.656  30.075  1.00  0.00     0.210 C 
ENDBRANCH  10  22
TORSDOF 4
ENDMDL
MODEL 9
REMARK VINA RESULT:      -7.7     15.695     19.531
REMARK  4 active torsions:
REMARK  status: ('A' for Active; 'I' for Inactive)
REMARK    1  A    between atoms: C9_14  and  O2_2 
REMARK    2  A    between atoms: C6_11  and  O3_3 
REMARK    3  A    between atoms: C15_20  and  O5_5 
REMARK    4  A    between atoms: C3_8  and  C5_10 
ROOT
HETATM    1  O1  UNK     1      20.511  -1.802  17.888  1.00  0.00    -0.309 OA
HETATM    2  O4  UNK     1      17.726  -2.359  14.969  1.00  0.00    -0.287 OA
HETATM    3  C1  UNK     1      19.792  -3.012  15.909  1.00  0.00     0.081 A 
HETATM    4  C2  UNK     1      20.704  -2.770  16.935  1.00  0.00     0.095 A 
HETATM    5  C3  UNK     1      19.364  -1.027  17.820  1.00  0.00     0.090 A 
HETATM    6  C4  UNK     1      18.568  -2.199  15.840  1.00  0.00     0.190 A 
HETATM    7  C6  UNK     1      20.040  -4.013  14.967  1.00  0.00     0.085 A 
HETATM    8  C7  UNK     1      18.409  -1.169  16.886  1.00  0.00     0.094 A 
HETATM    9  C8  UNK     1      21.871  -3.529  17.025  1.00  0.00     0.075 A 
HETATM   10  C9  UNK     1      22.122  -4.529  16.085  1.00  0.00     0.073 A 
HETATM   11  C10 UNK     1      21.208  -4.770  15.058  1.00  0.00     0.074 A 
ENDROOT
BRANCH   5  12
HETATM   12  C5  UNK     1      19.255  -0.021  18.896  1.00  0.00    -0.002 A 
HETATM   13  C11 UNK     1      19.536  -0.374  20.218  1.00  0.00     0.017 A 
HETATM   14  C13 UNK     1      19.433   0.577  21.234  1.00  0.00     0.037 A 
HETATM   15  C15 UNK     1      19.049   1.883  20.931  1.00  0.00     0.065 A 
HETATM   16  C14 UNK     1      18.768   2.239  19.611  1.00  0.00     0.037 A 
HETATM   17  C12 UNK     1      18.871   1.288  18.596  1.00  0.00     0.017 A 
BRANCH  15  18
HETATM   18  O5  UNK     1      18.947   2.810  21.922  1.00  0.00    -0.361 OA
HETATM   19  H12 UNK     1      18.009   2.919  22.156  1.00  0.00     0.217 HD
ENDBRANCH  15  18
ENDBRANCH   5  12
BRANCH   7  20
HETATM   20  O3  UNK     1      19.181  -4.288  13.946  1.00  0.00    -0.360 OA
HETATM   21  H8  UNK     1      18.566  -4.993  14.200  1.00  0.00     0.217 HD
ENDBRANCH   7  20
BRANCH  10  22
HETATM   22  O2  UNK     1      23.260  -5.270  16.171  1.00  0.00    -0.356 OA
HETATM   23  C16 UNK     1      24.257  -4.827  17.090  1.00  0.00     0.210 C 
ENDBRANCH  10  22
TORSDOF 4
ENDMDL
MODEL 10
REMARK VINA RESULT:      -7.7      5.974      8.263
REMARK  4 active torsions:
REMARK  status: ('A' for Active; 'I' for Inactive)
REMARK    1  A    between atoms: C9_14  and  O2_2 
REMARK    2  A    between atoms: C6_11  and  O3_3 
REMARK    3  A    between atoms: C15_20  and  O5_5 
REMARK    4  A    between atoms: C3_8  and  C5_10 
ROOT
HETATM    1  O1  UNK     1      18.229   1.712  33.032  1.00  0.00    -0.309 OA
HETATM    2  O4  UNK     1      18.629   5.681  33.859  1.00  0.00    -0.287 OA
HETATM    3  C1  UNK     1      18.462   3.989  32.219  1.00  0.00     0.081 A 
HETATM    4  C2  UNK     1      18.323   2.619  32.006  1.00  0.00     0.095 A 
HETATM    5  C3  UNK     1      18.284   2.182  34.335  1.00  0.00     0.090 A 
HETATM    6  C4  UNK     1      18.511   4.492  33.600  1.00  0.00     0.190 A 
HETATM    7  C6  UNK     1      18.552   4.866  31.136  1.00  0.00     0.085 A 
HETATM    8  C7  UNK     1      18.409   3.477  34.668  1.00  0.00     0.094 A 
HETATM    9  C8  UNK     1      18.272   2.116  30.706  1.00  0.00     0.075 A 
HETATM   10  C9  UNK     1      18.363   2.989  29.621  1.00  0.00     0.073 A 
HETATM   11  C10 UNK     1      18.502   4.361  29.836  1.00  0.00     0.074 A 
ENDROOT
BRANCH   5  12
HETATM   12  C5  UNK     1      18.168   1.123  35.359  1.00  0.00    -0.002 A 
HETATM   13  C11 UNK     1      18.398  -0.212  35.017  1.00  0.00     0.017 A 
HETATM   14  C13 UNK     1      18.288  -1.211  35.985  1.00  0.00     0.037 A 
HETATM   15  C15 UNK     1      17.950  -0.878  37.296  1.00  0.00     0.065 A 
HETATM   16  C14 UNK     1      17.721   0.454  37.641  1.00  0.00     0.037 A 
HETATM   17  C12 UNK     1      17.829   1.454  36.673  1.00  0.00     0.017 A 
BRANCH  15  18
HETATM   18  O5  UNK     1      17.842  -1.853  38.240  1.00  0.00    -0.361 OA
HETATM   19  H12 UNK     1      18.730  -2.066  38.575  1.00  0.00     0.217 HD
ENDBRANCH  15  18
ENDBRANCH   5  12
BRANCH   7  20
HETATM   20  O3  UNK     1      18.689   6.212  31.291  1.00  0.00    -0.360 OA
HETATM   21  H8  UNK     1      19.545   6.423  31.694  1.00  0.00     0.217 HD
ENDBRANCH   7  20
BRANCH  10  22
HETATM   22  O2  UNK     1      18.313   2.501  28.351  1.00  0.00    -0.356 OA
HETATM   23  C16 UNK     1      18.110   1.096  28.202  1.00  0.00     0.210 C 
ENDBRANCH  10  22
TORSDOF 4
ENDMDL
