MODEL 1
REMARK VINA RESULT:      -8.9      0.000      0.000
REMARK  4 active torsions:
REMARK  status: ('A' for Active; 'I' for Inactive)
REMARK    1  A    between atoms: C13_18  and  O2_2 
REMARK    2  A    between atoms: C1_6  and  N1_5 
REMARK       I    between atoms: C4_9  and  N1_5 
REMARK    3  A    between atoms: C1_6  and  C2_7 
REMARK    4  A    between atoms: C4_9  and  C7_12 
ROOT
HETATM    1  O3  UNK     1      17.212   4.005  31.196  1.00  0.00    -0.267 OA
HETATM    2  N1  UNK     1      19.500   4.419  31.024  1.00  0.00    -0.348 N 
HETATM    3  C4  UNK     1      18.381   3.624  31.200  1.00  0.00     0.258 C 
HETATM    4  H2  UNK     1      20.422   4.004  31.113  1.00  0.00     0.163 HD
ENDROOT
BRANCH   3   5
HETATM    5  C7  UNK     1      18.714   2.209  31.402  1.00  0.00     0.108 A 
HETATM    6  C14 UNK     1      18.373   1.491  32.651  1.00  0.00     0.304 A 
HETATM    7  O1  UNK     1      18.742   0.152  32.723  1.00  0.00    -0.274 OA
HETATM    8  O4  UNK     1      17.793   2.046  33.579  1.00  0.00    -0.259 OA
HETATM    9  C10 UNK     1      19.407  -0.494  31.661  1.00  0.00     0.089 A 
HETATM   10  C8  UNK     1      19.719   0.199  30.497  1.00  0.00    -0.001 A 
HETATM   11  C16 UNK     1      19.735  -1.839  31.826  1.00  0.00     0.038 A 
HETATM   12  C15 UNK     1      20.379  -0.476  29.467  1.00  0.00     0.014 A 
HETATM   13  C9  UNK     1      19.346   1.601  30.391  1.00  0.00     0.037 A 
HETATM   14  C17 UNK     1      20.715  -1.825  29.618  1.00  0.00     0.001 A 
HETATM   15  C18 UNK     1      20.393  -2.504  30.795  1.00  0.00     0.003 A 
ENDBRANCH   3   5
BRANCH   2  16
HETATM   16  C1  UNK     1      19.426   5.846  30.806  1.00  0.00     0.114 C 
HETATM   17  C3  UNK     1      18.712   6.158  29.496  1.00  0.00     0.037 C 
BRANCH  16  18
HETATM   18  C2  UNK     1      18.773   6.508  32.001  1.00  0.00    -0.036 A 
HETATM   19  C5  UNK     1      17.595   7.210  31.824  1.00  0.00     0.012 A 
HETATM   20  C11 UNK     1      16.994   7.822  32.924  1.00  0.00     0.037 A 
HETATM   21  C13 UNK     1      17.582   7.720  34.185  1.00  0.00     0.068 A 
HETATM   22  C12 UNK     1      18.771   7.008  34.346  1.00  0.00     0.037 A 
HETATM   23  C6  UNK     1      19.371   6.398  33.244  1.00  0.00     0.012 A 
BRANCH  21  24
HETATM   24  O2  UNK     1      16.996   8.316  35.259  1.00  0.00    -0.356 OA
HETATM   25  C19 UNK     1      15.897   9.187  34.999  1.00  0.00     0.210 C 
ENDBRANCH  21  24
ENDBRANCH  16  18
ENDBRANCH   2  16
TORSDOF 4
ENDMDL
MODEL 2
REMARK VINA RESULT:      -8.6      2.742      4.420
REMARK  4 active torsions:
REMARK  status: ('A' for Active; 'I' for Inactive)
REMARK    1  A    between atoms: C13_18  and  O2_2 
REMARK    2  A    between atoms: C1_6  and  N1_5 
REMARK       I    between atoms: C4_9  and  N1_5 
REMARK    3  A    between atoms: C1_6  and  C2_7 
REMARK    4  A    between atoms: C4_9  and  C7_12 
ROOT
HETATM    1  O3  UNK     1      19.779  -0.608  30.070  1.00  0.00    -0.267 OA
HETATM    2  N1  UNK     1      19.007   1.269  31.216  1.00  0.00    -0.348 N 
HETATM    3  C4  UNK     1      19.430  -0.044  31.105  1.00  0.00     0.258 C 
HETATM    4  H2  UNK     1      18.679   1.609  32.115  1.00  0.00     0.163 HD
ENDROOT
BRANCH   3   5
HETATM    5  C7  UNK     1      19.433  -0.753  32.390  1.00  0.00     0.108 A 
HETATM    6  C14 UNK     1      20.238  -1.975  32.612  1.00  0.00     0.304 A 
HETATM    7  O1  UNK     1      20.156  -2.557  33.873  1.00  0.00    -0.274 OA
HETATM    8  O4  UNK     1      20.945  -2.454  31.731  1.00  0.00    -0.259 OA
HETATM    9  C10 UNK     1      19.348  -2.014  34.891  1.00  0.00     0.089 A 
HETATM   10  C8  UNK     1      18.598  -0.866  34.661  1.00  0.00    -0.001 A 
HETATM   11  C16 UNK     1      19.331  -2.667  36.122  1.00  0.00     0.038 A 
HETATM   12  C15 UNK     1      17.808  -0.357  35.696  1.00  0.00     0.014 A 
HETATM   13  C9  UNK     1      18.662  -0.233  33.353  1.00  0.00     0.037 A 
HETATM   14  C17 UNK     1      17.782  -1.002  36.936  1.00  0.00     0.001 A 
HETATM   15  C18 UNK     1      18.542  -2.154  37.148  1.00  0.00     0.003 A 
ENDBRANCH   3   5
BRANCH   2  16
HETATM   16  C1  UNK     1      18.922   2.168  30.088  1.00  0.00     0.114 C 
HETATM   17  C3  UNK     1      17.869   1.691  29.093  1.00  0.00     0.037 C 
BRANCH  16  18
HETATM   18  C2  UNK     1      18.668   3.577  30.579  1.00  0.00    -0.036 A 
HETATM   19  C5  UNK     1      19.030   4.646  29.779  1.00  0.00     0.012 A 
HETATM   20  C11 UNK     1      18.797   5.945  30.232  1.00  0.00     0.037 A 
HETATM   21  C13 UNK     1      18.205   6.153  31.478  1.00  0.00     0.068 A 
HETATM   22  C12 UNK     1      17.847   5.063  32.271  1.00  0.00     0.037 A 
HETATM   23  C6  UNK     1      18.081   3.764  31.818  1.00  0.00     0.012 A 
BRANCH  21  24
HETATM   24  O2  UNK     1      17.978   7.420  31.920  1.00  0.00    -0.356 OA
HETATM   25  C19 UNK     1      16.681   7.967  31.686  1.00  0.00     0.210 C 
ENDBRANCH  21  24
ENDBRANCH  16  18
ENDBRANCH   2  16
TORSDOF 4
ENDMDL
MODEL 3
REMARK VINA RESULT:      -8.6      5.839     10.530
REMARK  4 active torsions:
REMARK  status: ('A' for Active; 'I' for Inactive)
REMARK    1  A    between atoms: C13_18  and  O2_2 
REMARK    2  A    between atoms: C1_6  and  N1_5 
REMARK       I    between atoms: C4_9  and  N1_5 
REMARK    3  A    between atoms: C1_6  and  C2_7 
REMARK    4  A    between atoms: C4_9  and  C7_12 
ROOT
HETATM    1  O3  UNK     1      21.574  -1.916  35.087  1.00  0.00    -0.267 OA
HETATM    2  N1  UNK     1      19.885  -3.508  34.881  1.00  0.00    -0.348 N 
HETATM    3  C4  UNK     1      20.749  -2.534  34.416  1.00  0.00     0.258 C 
HETATM    4  H2  UNK     1      19.199  -3.906  34.246  1.00  0.00     0.163 HD
ENDROOT
BRANCH   3   5
HETATM    5  C7  UNK     1      20.602  -2.279  32.979  1.00  0.00     0.108 A 
HETATM    6  C14 UNK     1      21.013  -3.270  31.958  1.00  0.00     0.304 A 
HETATM    7  O1  UNK     1      20.823  -2.911  30.627  1.00  0.00    -0.274 OA
HETATM    8  O4  UNK     1      21.496  -4.354  32.266  1.00  0.00    -0.259 OA
HETATM    9  C10 UNK     1      20.268  -1.668  30.264  1.00  0.00     0.089 A 
HETATM   10  C8  UNK     1      19.890  -0.751  31.238  1.00  0.00    -0.001 A 
HETATM   11  C16 UNK     1      20.117  -1.400  28.904  1.00  0.00     0.038 A 
HETATM   12  C15 UNK     1      19.344   0.471  30.838  1.00  0.00     0.014 A 
HETATM   13  C9  UNK     1      20.075  -1.096  32.639  1.00  0.00     0.037 A 
HETATM   14  C17 UNK     1      19.185   0.755  29.479  1.00  0.00     0.001 A 
HETATM   15  C18 UNK     1      19.571  -0.179  28.514  1.00  0.00     0.003 A 
ENDBRANCH   3   5
BRANCH   2  16
HETATM   16  C1  UNK     1      19.845  -3.933  36.262  1.00  0.00     0.114 C 
HETATM   17  C3  UNK     1      18.634  -3.343  36.976  1.00  0.00     0.037 C 
BRANCH  16  18
HETATM   18  C2  UNK     1      19.886  -5.445  36.329  1.00  0.00    -0.036 A 
HETATM   19  C5  UNK     1      19.827  -6.068  37.563  1.00  0.00     0.012 A 
HETATM   20  C11 UNK     1      19.865  -7.460  37.626  1.00  0.00     0.037 A 
HETATM   21  C13 UNK     1      19.962  -8.209  36.453  1.00  0.00     0.068 A 
HETATM   22  C12 UNK     1      20.021  -7.564  35.217  1.00  0.00     0.037 A 
HETATM   23  C6  UNK     1      19.983  -6.171  35.155  1.00  0.00     0.012 A 
BRANCH  21  24
HETATM   24  O2  UNK     1      20.000  -9.568  36.514  1.00  0.00    -0.356 OA
HETATM   25  C19 UNK     1      19.270 -10.191  37.569  1.00  0.00     0.210 C 
ENDBRANCH  21  24
ENDBRANCH  16  18
ENDBRANCH   2  16
TORSDOF 4
ENDMDL
MODEL 4
REMARK VINA RESULT:      -8.6      7.068     11.980
REMARK  4 active torsions:
REMARK  status: ('A' for Active; 'I' for Inactive)
REMARK    1  A    between atoms: C13_18  and  O2_2 
REMARK    2  A    between atoms: C1_6  and  N1_5 
REMARK       I    between atoms: C4_9  and  N1_5 
REMARK    3  A    between atoms: C1_6  and  C2_7 
REMARK    4  A    between atoms: C4_9  and  C7_12 
ROOT
HETATM    1  O3  UNK     1      20.551  -5.085  35.711  1.00  0.00    -0.267 OA
HETATM    2  N1  UNK     1      18.467  -5.153  36.753  1.00  0.00    -0.348 N 
HETATM    3  C4  UNK     1      19.538  -4.532  36.135  1.00  0.00     0.258 C 
HETATM    4  H2  UNK     1      17.711  -4.585  37.123  1.00  0.00     0.163 HD
ENDROOT
BRANCH   3   5
HETATM    5  C7  UNK     1      19.364  -3.080  36.014  1.00  0.00     0.108 A 
HETATM    6  C14 UNK     1      19.935  -2.311  34.887  1.00  0.00     0.304 A 
HETATM    7  O1  UNK     1      19.703  -0.939  34.884  1.00  0.00    -0.274 OA
HETATM    8  O4  UNK     1      20.583  -2.851  33.996  1.00  0.00    -0.259 OA
HETATM    9  C10 UNK     1      18.959  -0.309  35.902  1.00  0.00     0.089 A 
HETATM   10  C8  UNK     1      18.432  -1.051  36.953  1.00  0.00    -0.001 A 
HETATM   11  C16 UNK     1      18.778   1.070  35.813  1.00  0.00     0.038 A 
HETATM   12  C15 UNK     1      17.700  -0.390  37.944  1.00  0.00     0.014 A 
HETATM   13  C9  UNK     1      18.657  -2.487  36.985  1.00  0.00     0.037 A 
HETATM   14  C17 UNK     1      17.510   0.992  37.868  1.00  0.00     0.001 A 
HETATM   15  C18 UNK     1      18.048   1.720  36.804  1.00  0.00     0.003 A 
ENDBRANCH   3   5
BRANCH   2  16
HETATM   16  C1  UNK     1      18.408  -6.578  36.984  1.00  0.00     0.114 C 
HETATM   17  C3  UNK     1      18.140  -7.327  35.683  1.00  0.00     0.037 C 
BRANCH  16  18
HETATM   18  C2  UNK     1      19.678  -7.034  37.671  1.00  0.00    -0.036 A 
HETATM   19  C5  UNK     1      20.030  -6.468  38.883  1.00  0.00     0.012 A 
HETATM   20  C11 UNK     1      21.200  -6.888  39.516  1.00  0.00     0.037 A 
HETATM   21  C13 UNK     1      21.999  -7.867  38.927  1.00  0.00     0.068 A 
HETATM   22  C12 UNK     1      21.629  -8.427  37.703  1.00  0.00     0.037 A 
HETATM   23  C6  UNK     1      20.458  -8.007  37.071  1.00  0.00     0.012 A 
BRANCH  21  24
HETATM   24  O2  UNK     1      23.141  -8.277  39.544  1.00  0.00    -0.356 OA
HETATM   25  C19 UNK     1      24.376  -7.926  38.924  1.00  0.00     0.210 C 
ENDBRANCH  21  24
ENDBRANCH  16  18
ENDBRANCH   2  16
TORSDOF 4
ENDMDL
MODEL 5
REMARK VINA RESULT:      -8.5      2.810      4.179
REMARK  4 active torsions:
REMARK  status: ('A' for Active; 'I' for Inactive)
REMARK    1  A    between atoms: C13_18  and  O2_2 
REMARK    2  A    between atoms: C1_6  and  N1_5 
REMARK       I    between atoms: C4_9  and  N1_5 
REMARK    3  A    between atoms: C1_6  and  C2_7 
REMARK    4  A    between atoms: C4_9  and  C7_12 
ROOT
HETATM    1  O3  UNK     1      17.676   4.091  32.260  1.00  0.00    -0.267 OA
HETATM    2  N1  UNK     1      18.969   4.878  34.033  1.00  0.00    -0.348 N 
HETATM    3  C4  UNK     1      18.253   3.924  33.333  1.00  0.00     0.258 C 
HETATM    4  H2  UNK     1      19.349   4.643  34.945  1.00  0.00     0.163 HD
ENDROOT
BRANCH   3   5
HETATM    5  C7  UNK     1      18.234   2.619  34.005  1.00  0.00     0.108 A 
HETATM    6  C14 UNK     1      18.436   1.352  33.267  1.00  0.00     0.304 A 
HETATM    7  O1  UNK     1      18.394   0.179  34.015  1.00  0.00    -0.274 OA
HETATM    8  O4  UNK     1      18.631   1.331  32.056  1.00  0.00    -0.259 OA
HETATM    9  C10 UNK     1      18.171   0.193  35.407  1.00  0.00     0.089 A 
HETATM   10  C8  UNK     1      17.983   1.395  36.080  1.00  0.00    -0.001 A 
HETATM   11  C16 UNK     1      18.148  -1.032  36.071  1.00  0.00     0.038 A 
HETATM   12  C15 UNK     1      17.764   1.368  37.460  1.00  0.00     0.014 A 
HETATM   13  C9  UNK     1      18.021   2.638  35.327  1.00  0.00     0.037 A 
HETATM   14  C17 UNK     1      17.738   0.146  38.140  1.00  0.00     0.001 A 
HETATM   15  C18 UNK     1      17.930  -1.051  37.446  1.00  0.00     0.003 A 
ENDBRANCH   3   5
BRANCH   2  16
HETATM   16  C1  UNK     1      19.131   6.238  33.570  1.00  0.00     0.114 C 
HETATM   17  C3  UNK     1      19.964   6.281  32.294  1.00  0.00     0.037 C 
BRANCH  16  18
HETATM   18  C2  UNK     1      17.772   6.883  33.405  1.00  0.00    -0.036 A 
HETATM   19  C5  UNK     1      16.900   6.905  34.479  1.00  0.00     0.012 A 
HETATM   20  C11 UNK     1      15.647   7.499  34.327  1.00  0.00     0.037 A 
HETATM   21  C13 UNK     1      15.287   8.063  33.104  1.00  0.00     0.068 A 
HETATM   22  C12 UNK     1      16.179   8.032  32.031  1.00  0.00     0.037 A 
HETATM   23  C6  UNK     1      17.431   7.437  32.184  1.00  0.00     0.012 A 
BRANCH  21  24
HETATM   24  O2  UNK     1      14.064   8.643  32.955  1.00  0.00    -0.356 OA
HETATM   25  C19 UNK     1      13.942  10.010  33.343  1.00  0.00     0.210 C 
ENDBRANCH  21  24
ENDBRANCH  16  18
ENDBRANCH   2  16
TORSDOF 4
ENDMDL
MODEL 6
REMARK VINA RESULT:      -8.5      6.895      9.547
REMARK  4 active torsions:
REMARK  status: ('A' for Active; 'I' for Inactive)
REMARK    1  A    between atoms: C13_18  and  O2_2 
REMARK    2  A    between atoms: C1_6  and  N1_5 
REMARK       I    between atoms: C4_9  and  N1_5 
REMARK    3  A    between atoms: C1_6  and  C2_7 
REMARK    4  A    between atoms: C4_9  and  C7_12 
ROOT
HETATM    1  O3  UNK     1      21.328  -4.131  37.245  1.00  0.00    -0.267 OA
HETATM    2  N1  UNK     1      19.878  -3.994  35.425  1.00  0.00    -0.348 N 
HETATM    3  C4  UNK     1      20.485  -4.623  36.497  1.00  0.00     0.258 C 
HETATM    4  H2  UNK     1      19.243  -4.522  34.835  1.00  0.00     0.163 HD
ENDROOT
BRANCH   3   5
HETATM    5  C7  UNK     1      20.019  -6.002  36.687  1.00  0.00     0.108 A 
HETATM    6  C14 UNK     1      18.583  -6.337  36.809  1.00  0.00     0.304 A 
HETATM    7  O1  UNK     1      18.267  -7.680  36.987  1.00  0.00    -0.274 OA
HETATM    8  O4  UNK     1      17.710  -5.476  36.756  1.00  0.00    -0.259 OA
HETATM    9  C10 UNK     1      19.262  -8.676  37.049  1.00  0.00     0.089 A 
HETATM   10  C8  UNK     1      20.606  -8.340  36.933  1.00  0.00    -0.001 A 
HETATM   11  C16 UNK     1      18.848  -9.995  37.229  1.00  0.00     0.038 A 
HETATM   12  C15 UNK     1      21.564  -9.355  37.000  1.00  0.00     0.014 A 
HETATM   13  C9  UNK     1      20.969  -6.944  36.746  1.00  0.00     0.037 A 
HETATM   14  C17 UNK     1      21.163 -10.682  37.181  1.00  0.00     0.001 A 
HETATM   15  C18 UNK     1      19.808 -11.001  37.295  1.00  0.00     0.003 A 
ENDBRANCH   3   5
BRANCH   2  16
HETATM   16  C1  UNK     1      20.173  -2.632  35.041  1.00  0.00     0.114 C 
HETATM   17  C3  UNK     1      20.484  -2.543  33.551  1.00  0.00     0.037 C 
BRANCH  16  18
HETATM   18  C2  UNK     1      19.030  -1.729  35.456  1.00  0.00    -0.036 A 
HETATM   19  C5  UNK     1      18.421  -0.931  34.505  1.00  0.00     0.012 A 
HETATM   20  C11 UNK     1      17.369  -0.098  34.886  1.00  0.00     0.037 A 
HETATM   21  C13 UNK     1      16.942  -0.079  36.214  1.00  0.00     0.068 A 
HETATM   22  C12 UNK     1      17.568  -0.891  37.161  1.00  0.00     0.037 A 
HETATM   23  C6  UNK     1      18.621  -1.722  36.778  1.00  0.00     0.012 A 
BRANCH  21  24
HETATM   24  O2  UNK     1      15.915   0.733  36.587  1.00  0.00    -0.356 OA
HETATM   25  C19 UNK     1      16.227   1.810  37.469  1.00  0.00     0.210 C 
ENDBRANCH  21  24
ENDBRANCH  16  18
ENDBRANCH   2  16
TORSDOF 4
ENDMDL
MODEL 7
REMARK VINA RESULT:      -8.4     11.913     14.974
REMARK  4 active torsions:
REMARK  status: ('A' for Active; 'I' for Inactive)
REMARK    1  A    between atoms: C13_18  and  O2_2 
REMARK    2  A    between atoms: C1_6  and  N1_5 
REMARK       I    between atoms: C4_9  and  N1_5 
REMARK    3  A    between atoms: C1_6  and  C2_7 
REMARK    4  A    between atoms: C4_9  and  C7_12 
ROOT
HETATM    1  O3  UNK     1      25.859  -9.060  37.705  1.00  0.00    -0.267 OA
HETATM    2  N1  UNK     1      24.586  -7.616  39.018  1.00  0.00    -0.348 N 
HETATM    3  C4  UNK     1      25.723  -8.016  38.339  1.00  0.00     0.258 C 
HETATM    4  H2  UNK     1      24.610  -6.760  39.564  1.00  0.00     0.163 HD
ENDROOT
BRANCH   3   5
HETATM    5  C7  UNK     1      26.817  -7.043  38.435  1.00  0.00     0.108 A 
HETATM    6  C14 UNK     1      26.569  -5.600  38.659  1.00  0.00     0.304 A 
HETATM    7  O1  UNK     1      27.688  -4.777  38.731  1.00  0.00    -0.274 OA
HETATM    8  O4  UNK     1      25.435  -5.148  38.775  1.00  0.00    -0.259 OA
HETATM    9  C10 UNK     1      28.996  -5.288  38.599  1.00  0.00     0.089 A 
HETATM   10  C8  UNK     1      29.206  -6.645  38.389  1.00  0.00    -0.001 A 
HETATM   11  C16 UNK     1      30.054  -4.385  38.686  1.00  0.00     0.038 A 
HETATM   12  C15 UNK     1      30.517  -7.113  38.262  1.00  0.00     0.014 A 
HETATM   13  C9  UNK     1      28.056  -7.533  38.309  1.00  0.00     0.037 A 
HETATM   14  C17 UNK     1      31.589  -6.220  38.348  1.00  0.00     0.001 A 
HETATM   15  C18 UNK     1      31.358  -4.859  38.559  1.00  0.00     0.003 A 
ENDBRANCH   3   5
BRANCH   2  16
HETATM   16  C1  UNK     1      23.378  -8.407  39.067  1.00  0.00     0.114 C 
HETATM   17  C3  UNK     1      22.741  -8.342  40.451  1.00  0.00     0.037 C 
BRANCH  16  18
HETATM   18  C2  UNK     1      22.436  -7.963  37.967  1.00  0.00    -0.036 A 
HETATM   19  C5  UNK     1      22.251  -8.779  36.866  1.00  0.00     0.012 A 
HETATM   20  C11 UNK     1      21.384  -8.371  35.853  1.00  0.00     0.037 A 
HETATM   21  C13 UNK     1      20.715  -7.151  35.958  1.00  0.00     0.068 A 
HETATM   22  C12 UNK     1      20.914  -6.340  37.076  1.00  0.00     0.037 A 
HETATM   23  C6  UNK     1      21.782  -6.749  38.088  1.00  0.00     0.012 A 
BRANCH  21  24
HETATM   24  O2  UNK     1      19.869  -6.752  34.969  1.00  0.00    -0.356 OA
HETATM   25  C19 UNK     1      18.495  -7.107  35.108  1.00  0.00     0.210 C 
ENDBRANCH  21  24
ENDBRANCH  16  18
ENDBRANCH   2  16
TORSDOF 4
ENDMDL
MODEL 8
REMARK VINA RESULT:      -8.4      5.775     11.256
REMARK  4 active torsions:
REMARK  status: ('A' for Active; 'I' for Inactive)
REMARK    1  A    between atoms: C13_18  and  O2_2 
REMARK    2  A    between atoms: C1_6  and  N1_5 
REMARK       I    between atoms: C4_9  and  N1_5 
REMARK    3  A    between atoms: C1_6  and  C2_7 
REMARK    4  A    between atoms: C4_9  and  C7_12 
ROOT
HETATM    1  O3  UNK     1      20.922  -3.029  36.620  1.00  0.00    -0.267 OA
HETATM    2  N1  UNK     1      19.437  -4.525  35.625  1.00  0.00    -0.348 N 
HETATM    3  C4  UNK     1      20.156  -3.346  35.712  1.00  0.00     0.258 C 
HETATM    4  H2  UNK     1      18.783  -4.651  34.859  1.00  0.00     0.163 HD
ENDROOT
BRANCH   3   5
HETATM    5  C7  UNK     1      19.924  -2.451  34.572  1.00  0.00     0.108 A 
HETATM    6  C14 UNK     1      19.185  -1.177  34.711  1.00  0.00     0.304 A 
HETATM    7  O1  UNK     1      19.028  -0.415  33.557  1.00  0.00    -0.274 OA
HETATM    8  O4  UNK     1      18.730  -0.805  35.789  1.00  0.00    -0.259 OA
HETATM    9  C10 UNK     1      19.547  -0.833  32.315  1.00  0.00     0.089 A 
HETATM   10  C8  UNK     1      20.238  -2.035  32.206  1.00  0.00    -0.001 A 
HETATM   11  C16 UNK     1      19.341  -0.002  31.215  1.00  0.00     0.038 A 
HETATM   12  C15 UNK     1      20.737  -2.415  30.958  1.00  0.00     0.014 A 
HETATM   13  C9  UNK     1      20.418  -2.854  33.395  1.00  0.00     0.037 A 
HETATM   14  C17 UNK     1      20.538  -1.592  29.846  1.00  0.00     0.001 A 
HETATM   15  C18 UNK     1      19.842  -0.389  29.974  1.00  0.00     0.003 A 
ENDBRANCH   3   5
BRANCH   2  16
HETATM   16  C1  UNK     1      19.503  -5.564  36.628  1.00  0.00     0.114 C 
HETATM   17  C3  UNK     1      18.122  -5.846  37.208  1.00  0.00     0.037 C 
BRANCH  16  18
HETATM   18  C2  UNK     1      20.154  -6.797  36.040  1.00  0.00    -0.036 A 
HETATM   19  C5  UNK     1      20.534  -7.827  36.882  1.00  0.00     0.012 A 
HETATM   20  C11 UNK     1      21.135  -8.963  36.340  1.00  0.00     0.037 A 
HETATM   21  C13 UNK     1      21.345  -9.052  34.964  1.00  0.00     0.068 A 
HETATM   22  C12 UNK     1      20.956  -8.004  34.129  1.00  0.00     0.037 A 
HETATM   23  C6  UNK     1      20.356  -6.867  34.672  1.00  0.00     0.012 A 
BRANCH  21  24
HETATM   24  O2  UNK     1      21.931 -10.161  34.435  1.00  0.00    -0.356 OA
HETATM   25  C19 UNK     1      22.557 -11.062  35.346  1.00  0.00     0.210 C 
ENDBRANCH  21  24
ENDBRANCH  16  18
ENDBRANCH   2  16
TORSDOF 4
ENDMDL
MODEL 9
REMARK VINA RESULT:      -8.4      6.587     10.211
REMARK  4 active torsions:
REMARK  status: ('A' for Active; 'I' for Inactive)
REMARK    1  A    between atoms: C13_18  and  O2_2 
REMARK    2  A    between atoms: C1_6  and  N1_5 
REMARK       I    between atoms: C4_9  and  N1_5 
REMARK    3  A    between atoms: C1_6  and  C2_7 
REMARK    4  A    between atoms: C4_9  and  C7_12 
ROOT
HETATM    1  O3  UNK     1      18.226  -4.379  36.757  1.00  0.00    -0.267 OA
HETATM    2  N1  UNK     1      20.075  -4.050  35.377  1.00  0.00    -0.348 N 
HETATM    3  C4  UNK     1      19.206  -4.801  36.148  1.00  0.00     0.258 C 
HETATM    4  H2  UNK     1      20.891  -4.497  34.971  1.00  0.00     0.163 HD
ENDROOT
BRANCH   3   5
HETATM    5  C7  UNK     1      19.562  -6.225  36.184  1.00  0.00     0.108 A 
HETATM    6  C14 UNK     1      20.290  -6.881  35.075  1.00  0.00     0.304 A 
HETATM    7  O1  UNK     1      20.569  -8.236  35.226  1.00  0.00    -0.274 OA
HETATM    8  O4  UNK     1      20.634  -6.266  34.071  1.00  0.00    -0.259 OA
HETATM    9  C10 UNK     1      20.179  -8.952  36.376  1.00  0.00     0.089 A 
HETATM   10  C8  UNK     1      19.494  -8.316  37.405  1.00  0.00    -0.001 A 
HETATM   11  C16 UNK     1      20.504 -10.306  36.436  1.00  0.00     0.038 A 
HETATM   12  C15 UNK     1      19.123  -9.059  38.529  1.00  0.00     0.014 A 
HETATM   13  C9  UNK     1      19.188  -6.900  37.278  1.00  0.00     0.037 A 
HETATM   14  C17 UNK     1      19.442 -10.418  38.604  1.00  0.00     0.001 A 
HETATM   15  C18 UNK     1      20.131 -11.040  37.560  1.00  0.00     0.003 A 
ENDBRANCH   3   5
BRANCH   2  16
HETATM   16  C1  UNK     1      19.929  -2.624  35.189  1.00  0.00     0.114 C 
HETATM   17  C3  UNK     1      20.982  -1.862  35.985  1.00  0.00     0.037 C 
BRANCH  16  18
HETATM   18  C2  UNK     1      19.964  -2.301  33.710  1.00  0.00    -0.036 A 
HETATM   19  C5  UNK     1      19.064  -1.384  33.198  1.00  0.00     0.012 A 
HETATM   20  C11 UNK     1      19.095  -1.086  31.835  1.00  0.00     0.037 A 
HETATM   21  C13 UNK     1      20.028  -1.710  31.007  1.00  0.00     0.068 A 
HETATM   22  C12 UNK     1      20.929  -2.632  31.541  1.00  0.00     0.037 A 
HETATM   23  C6  UNK     1      20.896  -2.930  32.904  1.00  0.00     0.012 A 
BRANCH  21  24
HETATM   24  O2  UNK     1      20.060  -1.420  29.678  1.00  0.00    -0.356 OA
HETATM   25  C19 UNK     1      20.372  -0.077  29.314  1.00  0.00     0.210 C 
ENDBRANCH  21  24
ENDBRANCH  16  18
ENDBRANCH   2  16
TORSDOF 4
ENDMDL
MODEL 10
REMARK VINA RESULT:      -8.4     22.435     24.345
REMARK  4 active torsions:
REMARK  status: ('A' for Active; 'I' for Inactive)
REMARK    1  A    between atoms: C13_18  and  O2_2 
REMARK    2  A    between atoms: C1_6  and  N1_5 
REMARK       I    between atoms: C4_9  and  N1_5 
REMARK    3  A    between atoms: C1_6  and  C2_7 
REMARK    4  A    between atoms: C4_9  and  C7_12 
ROOT
HETATM    1  O3  UNK     1      10.656   9.056   9.173  1.00  0.00    -0.267 OA
HETATM    2  N1  UNK     1      10.596   6.907   8.274  1.00  0.00    -0.348 N 
HETATM    3  C4  UNK     1      11.183   7.971   8.934  1.00  0.00     0.258 C 
HETATM    4  H2  UNK     1      11.151   6.080   8.075  1.00  0.00     0.163 HD
ENDROOT
BRANCH   3   5
HETATM    5  C7  UNK     1      12.560   7.692   9.355  1.00  0.00     0.108 A 
HETATM    6  C14 UNK     1      12.940   6.420  10.011  1.00  0.00     0.304 A 
HETATM    7  O1  UNK     1      14.278   6.274  10.364  1.00  0.00    -0.274 OA
HETATM    8  O4  UNK     1      12.119   5.536  10.233  1.00  0.00    -0.259 OA
HETATM    9  C10 UNK     1      15.228   7.284  10.113  1.00  0.00     0.089 A 
HETATM   10  C8  UNK     1      14.850   8.471   9.496  1.00  0.00    -0.001 A 
HETATM   11  C16 UNK     1      16.545   7.045  10.502  1.00  0.00     0.038 A 
HETATM   12  C15 UNK     1      15.821   9.449   9.264  1.00  0.00     0.014 A 
HETATM   13  C9  UNK     1      13.459   8.655   9.114  1.00  0.00     0.037 A 
HETATM   14  C17 UNK     1      17.146   9.224   9.649  1.00  0.00     0.001 A 
HETATM   15  C18 UNK     1      17.506   8.024  10.267  1.00  0.00     0.003 A 
ENDBRANCH   3   5
BRANCH   2  16
HETATM   16  C1  UNK     1       9.244   6.943   7.766  1.00  0.00     0.114 C 
HETATM   17  C3  UNK     1       9.090   6.017   6.565  1.00  0.00     0.037 C 
BRANCH  16  18
HETATM   18  C2  UNK     1       8.273   6.621   8.882  1.00  0.00    -0.036 A 
HETATM   19  C5  UNK     1       7.324   7.560   9.245  1.00  0.00     0.012 A 
HETATM   20  C11 UNK     1       6.430   7.263  10.274  1.00  0.00     0.037 A 
HETATM   21  C13 UNK     1       6.500   6.031  10.923  1.00  0.00     0.068 A 
HETATM   22  C12 UNK     1       7.463   5.095  10.545  1.00  0.00     0.037 A 
HETATM   23  C6  UNK     1       8.357   5.393   9.516  1.00  0.00     0.012 A 
BRANCH  21  24
HETATM   24  O2  UNK     1       5.627   5.741  11.927  1.00  0.00    -0.356 OA
HETATM   25  C19 UNK     1       6.029   4.749  12.870  1.00  0.00     0.210 C 
ENDBRANCH  21  24
ENDBRANCH  16  18
ENDBRANCH   2  16
TORSDOF 4
ENDMDL
