MODEL 1
REMARK VINA RESULT:      -8.3      0.000      0.000
REMARK  4 active torsions:
REMARK  status: ('A' for Active; 'I' for Inactive)
REMARK    1  A    between atoms: C11_16  and  O3_3 
REMARK    2  A    between atoms: C12_17  and  O4_4 
REMARK    3  A    between atoms: C14_19  and  O5_5 
REMARK    4  A    between atoms: C1_6  and  C3_8 
ROOT
HETATM    1  O1  UNK     1      17.101   7.241  32.601  1.00  0.00    -0.340 OA
HETATM    2  O2  UNK     1      20.273   9.045  34.475  1.00  0.00    -0.292 OA
HETATM    3  C1  UNK     1      18.451   6.910  32.240  1.00  0.00     0.169 C 
HETATM    4  C2  UNK     1      19.392   7.072  33.432  1.00  0.00     0.121 C 
HETATM    5  C4  UNK     1      19.329   8.497  33.918  1.00  0.00     0.165 C 
HETATM    6  C5  UNK     1      18.030   9.180  33.751  1.00  0.00     0.046 A 
HETATM    7  C6  UNK     1      16.981   8.504  33.122  1.00  0.00     0.083 A 
HETATM    8  C9  UNK     1      17.837  10.469  34.255  1.00  0.00     0.054 A 
HETATM    9  C10 UNK     1      15.727   9.106  33.025  1.00  0.00     0.040 A 
HETATM   10  C12 UNK     1      16.586  11.074  34.137  1.00  0.00     0.069 A 
HETATM   11  C15 UNK     1      15.532  10.394  33.527  1.00  0.00     0.039 A 
ENDROOT
BRANCH   3  12
HETATM   12  C3  UNK     1      18.472   5.490  31.716  1.00  0.00    -0.026 A 
HETATM   13  C7  UNK     1      18.069   4.438  32.538  1.00  0.00     0.049 A 
HETATM   14  C11 UNK     1      18.089   3.129  32.056  1.00  0.00     0.102 A 
HETATM   15  C14 UNK     1      18.513   2.873  30.752  1.00  0.00     0.101 A 
HETATM   16  C13 UNK     1      18.917   3.926  29.930  1.00  0.00     0.040 A 
HETATM   17  C8  UNK     1      18.897   5.235  30.413  1.00  0.00     0.012 A 
BRANCH  14  18
HETATM   18  O3  UNK     1      17.692   2.110  32.867  1.00  0.00    -0.353 OA
HETATM   19  C16 UNK     1      18.179   2.119  34.207  1.00  0.00     0.210 C 
ENDBRANCH  14  18
BRANCH  15  20
HETATM   20  O5  UNK     1      18.536   1.600  30.269  1.00  0.00    -0.353 OA
HETATM   21  C18 UNK     1      18.107   1.410  28.922  1.00  0.00     0.210 C 
ENDBRANCH  15  20
ENDBRANCH   3  12
BRANCH  10  22
HETATM   22  O4  UNK     1      16.391  12.329  34.626  1.00  0.00    -0.356 OA
HETATM   23  C17 UNK     1      17.514  12.974  35.225  1.00  0.00     0.210 C 
ENDBRANCH  10  22
TORSDOF 4
ENDMDL
MODEL 2
REMARK VINA RESULT:      -7.9      1.547      3.168
REMARK  4 active torsions:
REMARK  status: ('A' for Active; 'I' for Inactive)
REMARK    1  A    between atoms: C11_16  and  O3_3 
REMARK    2  A    between atoms: C12_17  and  O4_4 
REMARK    3  A    between atoms: C14_19  and  O5_5 
REMARK    4  A    between atoms: C1_6  and  C3_8 
ROOT
HETATM    1  O1  UNK     1      19.111   6.092  33.131  1.00  0.00    -0.340 OA
HETATM    2  O2  UNK     1      15.716   8.127  32.053  1.00  0.00    -0.292 OA
HETATM    3  C1  UNK     1      17.856   5.408  33.002  1.00  0.00     0.169 C 
HETATM    4  C2  UNK     1      16.968   6.082  31.958  1.00  0.00     0.121 C 
HETATM    5  C4  UNK     1      16.729   7.513  32.367  1.00  0.00     0.165 C 
HETATM    6  C5  UNK     1      17.826   8.164  33.112  1.00  0.00     0.046 A 
HETATM    7  C6  UNK     1      18.967   7.422  33.432  1.00  0.00     0.083 A 
HETATM    8  C9  UNK     1      17.745   9.517  33.454  1.00  0.00     0.054 A 
HETATM    9  C10 UNK     1      20.042   8.043  34.067  1.00  0.00     0.040 A 
HETATM   10  C12 UNK     1      18.816  10.126  34.108  1.00  0.00     0.069 A 
HETATM   11  C15 UNK     1      19.963   9.393  34.410  1.00  0.00     0.039 A 
ENDROOT
BRANCH   3  12
HETATM   12  C3  UNK     1      18.133   3.965  32.633  1.00  0.00    -0.026 A 
HETATM   13  C7  UNK     1      18.422   3.628  31.312  1.00  0.00     0.049 A 
HETATM   14  C11 UNK     1      18.676   2.299  30.972  1.00  0.00     0.102 A 
HETATM   15  C14 UNK     1      18.640   1.309  31.954  1.00  0.00     0.101 A 
HETATM   16  C13 UNK     1      18.350   1.647  33.276  1.00  0.00     0.040 A 
HETATM   17  C8  UNK     1      18.096   2.976  33.616  1.00  0.00     0.012 A 
BRANCH  14  18
HETATM   18  O3  UNK     1      18.959   1.980  29.678  1.00  0.00    -0.353 OA
HETATM   19  C16 UNK     1      17.864   1.933  28.767  1.00  0.00     0.210 C 
ENDBRANCH  14  18
BRANCH  15  20
HETATM   20  O5  UNK     1      18.888   0.008  31.635  1.00  0.00    -0.353 OA
HETATM   21  C18 UNK     1      18.819  -0.944  32.695  1.00  0.00     0.210 C 
ENDBRANCH  15  20
ENDBRANCH   3  12
BRANCH  10  22
HETATM   22  O4  UNK     1      18.744  11.444  34.443  1.00  0.00    -0.356 OA
HETATM   23  C17 UNK     1      17.517  12.118  34.168  1.00  0.00     0.210 C 
ENDBRANCH  10  22
TORSDOF 4
ENDMDL
MODEL 3
REMARK VINA RESULT:      -7.8      1.857      8.036
REMARK  4 active torsions:
REMARK  status: ('A' for Active; 'I' for Inactive)
REMARK    1  A    between atoms: C11_16  and  O3_3 
REMARK    2  A    between atoms: C12_17  and  O4_4 
REMARK    3  A    between atoms: C14_19  and  O5_5 
REMARK    4  A    between atoms: C1_6  and  C3_8 
ROOT
HETATM    1  O1  UNK     1      18.173   4.138  34.454  1.00  0.00    -0.340 OA
HETATM    2  O2  UNK     1      18.211   2.003  30.951  1.00  0.00    -0.292 OA
HETATM    3  C1  UNK     1      18.658   4.729  33.240  1.00  0.00     0.169 C 
HETATM    4  C2  UNK     1      17.956   4.136  32.021  1.00  0.00     0.121 C 
HETATM    5  C4  UNK     1      18.194   2.648  31.993  1.00  0.00     0.165 C 
HETATM    6  C5  UNK     1      18.333   1.991  33.309  1.00  0.00     0.046 A 
HETATM    7  C6  UNK     1      18.292   2.771  34.468  1.00  0.00     0.083 A 
HETATM    8  C9  UNK     1      18.460   0.602  33.397  1.00  0.00     0.054 A 
HETATM    9  C10 UNK     1      18.345   2.158  35.719  1.00  0.00     0.040 A 
HETATM   10  C12 UNK     1      18.534  -0.003  34.652  1.00  0.00     0.069 A 
HETATM   11  C15 UNK     1      18.472   0.771  35.810  1.00  0.00     0.039 A 
ENDROOT
BRANCH   3  12
HETATM   12  C3  UNK     1      18.445   6.227  33.318  1.00  0.00    -0.026 A 
HETATM   13  C7  UNK     1      17.385   6.815  32.629  1.00  0.00     0.049 A 
HETATM   14  C11 UNK     1      17.188   8.195  32.700  1.00  0.00     0.102 A 
HETATM   15  C14 UNK     1      18.051   8.984  33.460  1.00  0.00     0.101 A 
HETATM   16  C13 UNK     1      19.111   8.394  34.149  1.00  0.00     0.040 A 
HETATM   17  C8  UNK     1      19.308   7.015  34.078  1.00  0.00     0.012 A 
BRANCH  14  18
HETATM   18  O3  UNK     1      16.149   8.759  32.024  1.00  0.00    -0.353 OA
HETATM   19  C16 UNK     1      14.860   8.675  32.628  1.00  0.00     0.210 C 
ENDBRANCH  14  18
BRANCH  15  20
HETATM   20  O5  UNK     1      17.869  10.331  33.539  1.00  0.00    -0.353 OA
HETATM   21  C18 UNK     1      18.956  11.105  34.041  1.00  0.00     0.210 C 
ENDBRANCH  15  20
ENDBRANCH   3  12
BRANCH  10  22
HETATM   22  O4  UNK     1      18.657  -1.356  34.746  1.00  0.00    -0.356 OA
HETATM   23  C17 UNK     1      19.563  -1.859  35.727  1.00  0.00     0.210 C 
ENDBRANCH  10  22
TORSDOF 4
ENDMDL
MODEL 4
REMARK VINA RESULT:      -7.7      2.158      8.188
REMARK  4 active torsions:
REMARK  status: ('A' for Active; 'I' for Inactive)
REMARK    1  A    between atoms: C11_16  and  O3_3 
REMARK    2  A    between atoms: C12_17  and  O4_4 
REMARK    3  A    between atoms: C14_19  and  O5_5 
REMARK    4  A    between atoms: C1_6  and  C3_8 
ROOT
HETATM    1  O1  UNK     1      17.934   3.454  33.093  1.00  0.00    -0.340 OA
HETATM    2  O2  UNK     1      19.193   2.050  29.450  1.00  0.00    -0.292 OA
HETATM    3  C1  UNK     1      18.591   4.323  32.160  1.00  0.00     0.169 C 
HETATM    4  C2  UNK     1      18.321   3.889  30.720  1.00  0.00     0.121 C 
HETATM    5  C4  UNK     1      18.811   2.477  30.533  1.00  0.00     0.165 C 
HETATM    6  C5  UNK     1      18.737   1.603  31.722  1.00  0.00     0.046 A 
HETATM    7  C6  UNK     1      18.279   2.136  32.931  1.00  0.00     0.083 A 
HETATM    8  C9  UNK     1      19.076   0.251  31.631  1.00  0.00     0.054 A 
HETATM    9  C10 UNK     1      18.130   1.307  34.043  1.00  0.00     0.040 A 
HETATM   10  C12 UNK     1      18.944  -0.569  32.752  1.00  0.00     0.069 A 
HETATM   11  C15 UNK     1      18.469  -0.044  33.954  1.00  0.00     0.039 A 
ENDROOT
BRANCH   3  12
HETATM   12  C3  UNK     1      18.110   5.739  32.403  1.00  0.00    -0.026 A 
HETATM   13  C7  UNK     1      16.882   6.154  31.889  1.00  0.00     0.049 A 
HETATM   14  C11 UNK     1      16.439   7.458  32.112  1.00  0.00     0.102 A 
HETATM   15  C14 UNK     1      17.224   8.345  32.848  1.00  0.00     0.101 A 
HETATM   16  C13 UNK     1      18.453   7.929  33.361  1.00  0.00     0.040 A 
HETATM   17  C8  UNK     1      18.896   6.625  33.138  1.00  0.00     0.012 A 
BRANCH  14  18
HETATM   18  O3  UNK     1      15.237   7.853  31.608  1.00  0.00    -0.353 OA
HETATM   19  C16 UNK     1      14.070   7.249  32.163  1.00  0.00     0.210 C 
ENDBRANCH  14  18
BRANCH  15  20
HETATM   20  O5  UNK     1      16.802   9.620  33.074  1.00  0.00    -0.353 OA
HETATM   21  C18 UNK     1      16.242   9.900  34.355  1.00  0.00     0.210 C 
ENDBRANCH  15  20
ENDBRANCH   3  12
BRANCH  10  22
HETATM   22  O4  UNK     1      19.271  -1.888  32.670  1.00  0.00    -0.356 OA
HETATM   23  C17 UNK     1      20.518  -2.210  32.055  1.00  0.00     0.210 C 
ENDBRANCH  10  22
TORSDOF 4
ENDMDL
MODEL 5
REMARK VINA RESULT:      -7.7     14.212     18.765
REMARK  4 active torsions:
REMARK  status: ('A' for Active; 'I' for Inactive)
REMARK    1  A    between atoms: C11_16  and  O3_3 
REMARK    2  A    between atoms: C12_17  and  O4_4 
REMARK    3  A    between atoms: C14_19  and  O5_5 
REMARK    4  A    between atoms: C1_6  and  C3_8 
ROOT
HETATM    1  O1  UNK     1      19.362  -1.170  16.699  1.00  0.00    -0.340 OA
HETATM    2  O2  UNK     1      19.235   2.827  15.787  1.00  0.00    -0.292 OA
HETATM    3  C1  UNK     1      18.886  -0.725  15.421  1.00  0.00     0.169 C 
HETATM    4  C2  UNK     1      19.562   0.582  15.008  1.00  0.00     0.121 C 
HETATM    5  C4  UNK     1      19.279   1.631  16.051  1.00  0.00     0.165 C 
HETATM    6  C5  UNK     1      19.129   1.142  17.437  1.00  0.00     0.046 A 
HETATM    7  C6  UNK     1      19.202  -0.231  17.686  1.00  0.00     0.083 A 
HETATM    8  C9  UNK     1      18.961   2.043  18.492  1.00  0.00     0.054 A 
HETATM    9  C10 UNK     1      19.140  -0.703  18.997  1.00  0.00     0.040 A 
HETATM   10  C12 UNK     1      18.878   1.563  19.800  1.00  0.00     0.069 A 
HETATM   11  C15 UNK     1      18.971   0.194  20.052  1.00  0.00     0.039 A 
ENDROOT
BRANCH   3  12
HETATM   12  C3  UNK     1      19.146  -1.818  14.405  1.00  0.00    -0.026 A 
HETATM   13  C7  UNK     1      18.413  -3.003  14.455  1.00  0.00     0.049 A 
HETATM   14  C11 UNK     1      18.652  -4.011  13.520  1.00  0.00     0.102 A 
HETATM   15  C14 UNK     1      19.624  -3.832  12.537  1.00  0.00     0.101 A 
HETATM   16  C13 UNK     1      20.357  -2.647  12.487  1.00  0.00     0.040 A 
HETATM   17  C8  UNK     1      20.118  -1.639  13.422  1.00  0.00     0.012 A 
BRANCH  14  18
HETATM   18  O3  UNK     1      17.929  -5.163  13.578  1.00  0.00    -0.353 OA
HETATM   19  C16 UNK     1      17.541  -5.622  14.871  1.00  0.00     0.210 C 
ENDBRANCH  14  18
BRANCH  15  20
HETATM   20  O5  UNK     1      19.866  -4.808  11.618  1.00  0.00    -0.353 OA
HETATM   21  C18 UNK     1      20.507  -4.413  10.407  1.00  0.00     0.210 C 
ENDBRANCH  15  20
ENDBRANCH   3  12
BRANCH  10  22
HETATM   22  O4  UNK     1      18.715   2.434  20.833  1.00  0.00    -0.356 OA
HETATM   23  C17 UNK     1      19.644   2.342  21.912  1.00  0.00     0.210 C 
ENDBRANCH  10  22
TORSDOF 4
ENDMDL
MODEL 6
REMARK VINA RESULT:      -7.5      1.609      2.616
REMARK  4 active torsions:
REMARK  status: ('A' for Active; 'I' for Inactive)
REMARK    1  A    between atoms: C11_16  and  O3_3 
REMARK    2  A    between atoms: C12_17  and  O4_4 
REMARK    3  A    between atoms: C14_19  and  O5_5 
REMARK    4  A    between atoms: C1_6  and  C3_8 
ROOT
HETATM    1  O1  UNK     1      19.167   6.185  33.142  1.00  0.00    -0.340 OA
HETATM    2  O2  UNK     1      15.928   8.350  31.857  1.00  0.00    -0.292 OA
HETATM    3  C1  UNK     1      17.907   5.544  32.897  1.00  0.00     0.169 C 
HETATM    4  C2  UNK     1      17.124   6.271  31.805  1.00  0.00     0.121 C 
HETATM    5  C4  UNK     1      16.895   7.698  32.232  1.00  0.00     0.165 C 
HETATM    6  C5  UNK     1      17.948   8.296  33.077  1.00  0.00     0.046 A 
HETATM    7  C6  UNK     1      19.038   7.512  33.466  1.00  0.00     0.083 A 
HETATM    8  C9  UNK     1      17.880   9.642  33.448  1.00  0.00     0.054 A 
HETATM    9  C10 UNK     1      20.078   8.083  34.198  1.00  0.00     0.040 A 
HETATM   10  C12 UNK     1      18.914  10.202  34.199  1.00  0.00     0.069 A 
HETATM   11  C15 UNK     1      20.012   9.426  34.570  1.00  0.00     0.039 A 
ENDROOT
BRANCH   3  12
HETATM   12  C3  UNK     1      18.169   4.103  32.513  1.00  0.00    -0.026 A 
HETATM   13  C7  UNK     1      18.279   3.127  33.503  1.00  0.00     0.049 A 
HETATM   14  C11 UNK     1      18.521   1.800  33.149  1.00  0.00     0.102 A 
HETATM   15  C14 UNK     1      18.654   1.449  31.806  1.00  0.00     0.101 A 
HETATM   16  C13 UNK     1      18.544   2.425  30.816  1.00  0.00     0.040 A 
HETATM   17  C8  UNK     1      18.302   3.753  31.169  1.00  0.00     0.012 A 
BRANCH  14  18
HETATM   18  O3  UNK     1      18.625   0.855  34.125  1.00  0.00    -0.353 OA
HETATM   19  C16 UNK     1      17.412   0.399  34.719  1.00  0.00     0.210 C 
ENDBRANCH  14  18
BRANCH  15  20
HETATM   20  O5  UNK     1      18.889   0.156  31.448  1.00  0.00    -0.353 OA
HETATM   21  C18 UNK     1      20.140  -0.127  30.824  1.00  0.00     0.210 C 
ENDBRANCH  15  20
ENDBRANCH   3  12
BRANCH  10  22
HETATM   22  O4  UNK     1      18.855  11.513  34.562  1.00  0.00    -0.356 OA
HETATM   23  C17 UNK     1      17.587  12.159  34.458  1.00  0.00     0.210 C 
ENDBRANCH  10  22
TORSDOF 4
ENDMDL
MODEL 7
REMARK VINA RESULT:      -7.5     14.345     18.965
REMARK  4 active torsions:
REMARK  status: ('A' for Active; 'I' for Inactive)
REMARK    1  A    between atoms: C11_16  and  O3_3 
REMARK    2  A    between atoms: C12_17  and  O4_4 
REMARK    3  A    between atoms: C14_19  and  O5_5 
REMARK    4  A    between atoms: C1_6  and  C3_8 
ROOT
HETATM    1  O1  UNK     1      19.230  -1.263  16.780  1.00  0.00    -0.340 OA
HETATM    2  O2  UNK     1      19.309   2.662  15.588  1.00  0.00    -0.292 OA
HETATM    3  C1  UNK     1      18.684  -0.870  15.512  1.00  0.00     0.169 C 
HETATM    4  C2  UNK     1      19.414   0.350  14.954  1.00  0.00     0.121 C 
HETATM    5  C4  UNK     1      19.291   1.487  15.936  1.00  0.00     0.165 C 
HETATM    6  C5  UNK     1      19.220   1.105  17.361  1.00  0.00     0.046 A 
HETATM    7  C6  UNK     1      19.217  -0.250  17.704  1.00  0.00     0.083 A 
HETATM    8  C9  UNK     1      19.201   2.086  18.357  1.00  0.00     0.054 A 
HETATM    9  C10 UNK     1      19.228  -0.626  19.048  1.00  0.00     0.040 A 
HETATM   10  C12 UNK     1      19.191   1.703  19.699  1.00  0.00     0.069 A 
HETATM   11  C15 UNK     1      19.209   0.352  20.044  1.00  0.00     0.039 A 
ENDROOT
BRANCH   3  12
HETATM   12  C3  UNK     1      18.783  -2.047  14.563  1.00  0.00    -0.026 A 
HETATM   13  C7  UNK     1      19.251  -1.855  13.264  1.00  0.00     0.049 A 
HETATM   14  C11 UNK     1      19.342  -2.938  12.389  1.00  0.00     0.102 A 
HETATM   15  C14 UNK     1      18.965  -4.211  12.815  1.00  0.00     0.101 A 
HETATM   16  C13 UNK     1      18.497  -4.403  14.115  1.00  0.00     0.040 A 
HETATM   17  C8  UNK     1      18.406  -3.319  14.990  1.00  0.00     0.012 A 
BRANCH  14  18
HETATM   18  O3  UNK     1      19.801  -2.740  11.122  1.00  0.00    -0.353 OA
HETATM   19  C16 UNK     1      20.927  -1.879  10.967  1.00  0.00     0.210 C 
ENDBRANCH  14  18
BRANCH  15  20
HETATM   20  O5  UNK     1      19.050  -5.277  11.971  1.00  0.00    -0.353 OA
HETATM   21  C18 UNK     1      18.419  -6.486  12.388  1.00  0.00     0.210 C 
ENDBRANCH  15  20
ENDBRANCH   3  12
BRANCH  10  22
HETATM   22  O4  UNK     1      19.174   2.653  20.674  1.00  0.00    -0.356 OA
HETATM   23  C17 UNK     1      19.758   2.305  21.929  1.00  0.00     0.210 C 
ENDBRANCH  10  22
TORSDOF 4
ENDMDL
MODEL 8
REMARK VINA RESULT:      -7.5      1.211      2.453
REMARK  4 active torsions:
REMARK  status: ('A' for Active; 'I' for Inactive)
REMARK    1  A    between atoms: C11_16  and  O3_3 
REMARK    2  A    between atoms: C12_17  and  O4_4 
REMARK    3  A    between atoms: C14_19  and  O5_5 
REMARK    4  A    between atoms: C1_6  and  C3_8 
ROOT
HETATM    1  O1  UNK     1      17.091   6.177  33.801  1.00  0.00    -0.340 OA
HETATM    2  O2  UNK     1      20.486   8.477  33.908  1.00  0.00    -0.292 OA
HETATM    3  C1  UNK     1      18.291   5.746  33.141  1.00  0.00     0.169 C 
HETATM    4  C2  UNK     1      19.532   6.277  33.855  1.00  0.00     0.121 C 
HETATM    5  C4  UNK     1      19.477   7.782  33.881  1.00  0.00     0.165 C 
HETATM    6  C5  UNK     1      18.127   8.380  33.945  1.00  0.00     0.046 A 
HETATM    7  C6  UNK     1      17.010   7.540  33.925  1.00  0.00     0.083 A 
HETATM    8  C9  UNK     1      17.969   9.763  34.069  1.00  0.00     0.054 A 
HETATM    9  C10 UNK     1      15.732   8.083  34.062  1.00  0.00     0.040 A 
HETATM   10  C12 UNK     1      16.687  10.301  34.185  1.00  0.00     0.069 A 
HETATM   11  C15 UNK     1      15.572   9.463  34.186  1.00  0.00     0.039 A 
ENDROOT
BRANCH   3  12
HETATM   12  C3  UNK     1      18.294   4.232  33.093  1.00  0.00    -0.026 A 
HETATM   13  C7  UNK     1      18.298   3.574  31.864  1.00  0.00     0.049 A 
HETATM   14  C11 UNK     1      18.301   2.179  31.820  1.00  0.00     0.102 A 
HETATM   15  C14 UNK     1      18.297   1.445  33.006  1.00  0.00     0.101 A 
HETATM   16  C13 UNK     1      18.292   2.103  34.235  1.00  0.00     0.040 A 
HETATM   17  C8  UNK     1      18.290   3.498  34.279  1.00  0.00     0.012 A 
BRANCH  14  18
HETATM   18  O3  UNK     1      18.307   1.547  30.614  1.00  0.00    -0.353 OA
HETATM   19  C16 UNK     1      18.350   2.370  29.450  1.00  0.00     0.210 C 
ENDBRANCH  14  18
BRANCH  15  20
HETATM   20  O5  UNK     1      18.301   0.083  32.976  1.00  0.00    -0.353 OA
HETATM   21  C18 UNK     1      17.951  -0.593  34.182  1.00  0.00     0.210 C 
ENDBRANCH  15  20
ENDBRANCH   3  12
BRANCH  10  22
HETATM   22  O4  UNK     1      16.526  11.647  34.308  1.00  0.00    -0.356 OA
HETATM   23  C17 UNK     1      17.701  12.423  34.539  1.00  0.00     0.210 C 
ENDBRANCH  10  22
TORSDOF 4
ENDMDL
MODEL 9
REMARK VINA RESULT:      -7.5      7.482     10.856
REMARK  4 active torsions:
REMARK  status: ('A' for Active; 'I' for Inactive)
REMARK    1  A    between atoms: C11_16  and  O3_3 
REMARK    2  A    between atoms: C12_17  and  O4_4 
REMARK    3  A    between atoms: C14_19  and  O5_5 
REMARK    4  A    between atoms: C1_6  and  C3_8 
ROOT
HETATM    1  O1  UNK     1      20.102  -2.701  33.293  1.00  0.00    -0.340 OA
HETATM    2  O2  UNK     1      17.868   0.703  33.794  1.00  0.00    -0.292 OA
HETATM    3  C1  UNK     1      19.958  -2.102  34.590  1.00  0.00     0.169 C 
HETATM    4  C2  UNK     1      18.617  -1.381  34.716  1.00  0.00     0.121 C 
HETATM    5  C4  UNK     1      18.529  -0.319  33.651  1.00  0.00     0.165 C 
HETATM    6  C5  UNK     1      19.230  -0.612  32.385  1.00  0.00     0.046 A 
HETATM    7  C6  UNK     1      19.959  -1.800  32.269  1.00  0.00     0.083 A 
HETATM    8  C9  UNK     1      19.131   0.263  31.300  1.00  0.00     0.054 A 
HETATM    9  C10 UNK     1      20.563  -2.128  31.055  1.00  0.00     0.040 A 
HETATM   10  C12 UNK     1      19.754  -0.062  30.095  1.00  0.00     0.069 A 
HETATM   11  C15 UNK     1      20.465  -1.256  29.971  1.00  0.00     0.039 A 
ENDROOT
BRANCH   3  12
HETATM   12  C3  UNK     1      20.096  -3.187  35.637  1.00  0.00    -0.026 A 
HETATM   13  C7  UNK     1      19.857  -4.517  35.296  1.00  0.00     0.049 A 
HETATM   14  C11 UNK     1      19.982  -5.518  36.260  1.00  0.00     0.102 A 
HETATM   15  C14 UNK     1      20.346  -5.186  37.565  1.00  0.00     0.101 A 
HETATM   16  C13 UNK     1      20.585  -3.855  37.906  1.00  0.00     0.040 A 
HETATM   17  C8  UNK     1      20.460  -2.854  36.941  1.00  0.00     0.012 A 
BRANCH  14  18
HETATM   18  O3  UNK     1      19.748  -6.814  35.916  1.00  0.00    -0.353 OA
HETATM   19  C16 UNK     1      20.493  -7.340  34.820  1.00  0.00     0.210 C 
ENDBRANCH  14  18
BRANCH  15  20
HETATM   20  O5  UNK     1      20.474  -6.153  38.516  1.00  0.00    -0.353 OA
HETATM   21  C18 UNK     1      21.798  -6.562  38.850  1.00  0.00     0.210 C 
ENDBRANCH  15  20
ENDBRANCH   3  12
BRANCH  10  22
HETATM   22  O4  UNK     1      19.660   0.786  29.033  1.00  0.00    -0.356 OA
HETATM   23  C17 UNK     1      18.400   1.418  28.817  1.00  0.00     0.210 C 
ENDBRANCH  10  22
TORSDOF 4
ENDMDL
MODEL 10
REMARK VINA RESULT:      -7.5      2.059      8.285
REMARK  4 active torsions:
REMARK  status: ('A' for Active; 'I' for Inactive)
REMARK    1  A    between atoms: C11_16  and  O3_3 
REMARK    2  A    between atoms: C12_17  and  O4_4 
REMARK    3  A    between atoms: C14_19  and  O5_5 
REMARK    4  A    between atoms: C1_6  and  C3_8 
ROOT
HETATM    1  O1  UNK     1      17.924   3.280  33.327  1.00  0.00    -0.340 OA
HETATM    2  O2  UNK     1      19.018   2.419  29.468  1.00  0.00    -0.292 OA
HETATM    3  C1  UNK     1      18.516   4.285  32.491  1.00  0.00     0.169 C 
HETATM    4  C2  UNK     1      18.179   4.044  31.020  1.00  0.00     0.121 C 
HETATM    5  C4  UNK     1      18.685   2.683  30.617  1.00  0.00     0.165 C 
HETATM    6  C5  UNK     1      18.688   1.654  31.677  1.00  0.00     0.046 A 
HETATM    7  C6  UNK     1      18.284   2.006  32.969  1.00  0.00     0.083 A 
HETATM    8  C9  UNK     1      19.046   0.336  31.384  1.00  0.00     0.054 A 
HETATM    9  C10 UNK     1      18.208   1.030  33.962  1.00  0.00     0.040 A 
HETATM   10  C12 UNK     1      18.988  -0.632  32.388  1.00  0.00     0.069 A 
HETATM   11  C15 UNK     1      18.566  -0.288  33.672  1.00  0.00     0.039 A 
ENDROOT
BRANCH   3  12
HETATM   12  C3  UNK     1      18.022   5.641  32.949  1.00  0.00    -0.026 A 
HETATM   13  C7  UNK     1      18.805   6.414  33.805  1.00  0.00     0.049 A 
HETATM   14  C11 UNK     1      18.350   7.664  34.228  1.00  0.00     0.102 A 
HETATM   15  C14 UNK     1      17.113   8.138  33.795  1.00  0.00     0.101 A 
HETATM   16  C13 UNK     1      16.330   7.364  32.938  1.00  0.00     0.040 A 
HETATM   17  C8  UNK     1      16.784   6.115  32.515  1.00  0.00     0.012 A 
BRANCH  14  18
HETATM   18  O3  UNK     1      19.124   8.411  35.063  1.00  0.00    -0.353 OA
HETATM   19  C16 UNK     1      20.218   9.114  34.479  1.00  0.00     0.210 C 
ENDBRANCH  14  18
BRANCH  15  20
HETATM   20  O5  UNK     1      16.658   9.357  34.199  1.00  0.00    -0.353 OA
HETATM   21  C18 UNK     1      15.312   9.425  34.663  1.00  0.00     0.210 C 
ENDBRANCH  15  20
ENDBRANCH   3  12
BRANCH  10  22
HETATM   22  O4  UNK     1      19.335  -1.919  32.109  1.00  0.00    -0.356 OA
HETATM   23  C17 UNK     1      20.403  -2.117  31.185  1.00  0.00     0.210 C 
ENDBRANCH  10  22
TORSDOF 4
ENDMDL
