MODEL 1
REMARK VINA RESULT:      -9.9      0.000      0.000
REMARK  3 active torsions:
REMARK  status: ('A' for Active; 'I' for Inactive)
REMARK    1  A    between atoms: C4_11  and  N1_7 
REMARK       I    between atoms: C7_14  and  N1_7 
REMARK    2  A    between atoms: C2_9  and  C7_14 
REMARK    3  A    between atoms: C17_24  and  C6_13 
ROOT
HETATM    1  O2  UNK     1      17.608   3.269  32.865  1.00  0.00    -0.267 OA
HETATM    2  N1  UNK     1      18.490   4.778  31.287  1.00  0.00    -0.323 N 
HETATM    3  C7  UNK     1      18.192   3.529  31.815  1.00  0.00     0.262 C 
HETATM    4  H3  UNK     1      18.963   4.823  30.389  1.00  0.00     0.169 HD
ENDROOT
BRANCH   3   5
HETATM    5  C2  UNK     1      18.662   2.437  30.953  1.00  0.00     0.108 A 
HETATM    6  C10 UNK     1      18.675   2.553  29.477  1.00  0.00     0.304 A 
HETATM    7  O3  UNK     1      18.295   3.567  28.903  1.00  0.00    -0.259 OA
HETATM    8  O1  UNK     1      19.144   1.450  28.768  1.00  0.00    -0.274 OA
HETATM    9  C3  UNK     1      19.585   0.281  29.419  1.00  0.00     0.089 A 
HETATM   10  C1  UNK     1      19.563   0.194  30.806  1.00  0.00    -0.001 A 
HETATM   11  C12 UNK     1      20.038  -0.770  28.624  1.00  0.00     0.038 A 
HETATM   12  C5  UNK     1      19.078   1.329  31.576  1.00  0.00     0.037 A 
HETATM   13  C9  UNK     1      20.009  -0.982  31.415  1.00  0.00     0.014 A 
HETATM   14  C15 UNK     1      20.465  -2.045  30.631  1.00  0.00     0.001 A 
HETATM   15  C16 UNK     1      20.480  -1.939  29.238  1.00  0.00     0.003 A 
ENDBRANCH   3   5
BRANCH   2  16
HETATM   16  C4  UNK     1      18.188   6.045  31.844  1.00  0.00     0.035 A 
HETATM   17  C11 UNK     1      17.020   6.687  31.469  1.00  0.00     0.029 A 
HETATM   18  C14 UNK     1      16.723   7.935  32.016  1.00  0.00     0.003 A 
HETATM   19  C13 UNK     1      17.597   8.522  32.931  1.00  0.00     0.016 A 
HETATM   20  C6  UNK     1      18.769   7.861  33.297  1.00  0.00     0.050 A 
HETATM   21  C8  UNK     1      19.067   6.613  32.750  1.00  0.00     0.045 A 
BRANCH  20  22
HETATM   22  C17 UNK     1      19.704   8.490  34.274  1.00  0.00     0.417 C 
HETATM   23  F1  UNK     1      19.505   9.831  34.438  1.00  0.00    -0.166 F 
HETATM   24  F2  UNK     1      19.619   7.961  35.530  1.00  0.00    -0.166 F 
HETATM   25  F3  UNK     1      21.013   8.357  33.910  1.00  0.00    -0.166 F 
ENDBRANCH  20  22
ENDBRANCH   2  16
TORSDOF 3
ENDMDL
MODEL 2
REMARK VINA RESULT:      -9.8      4.027      8.132
REMARK  3 active torsions:
REMARK  status: ('A' for Active; 'I' for Inactive)
REMARK    1  A    between atoms: C4_11  and  N1_7 
REMARK       I    between atoms: C7_14  and  N1_7 
REMARK    2  A    between atoms: C2_9  and  C7_14 
REMARK    3  A    between atoms: C17_24  and  C6_13 
ROOT
HETATM    1  O2  UNK     1      17.876   2.994  32.741  1.00  0.00    -0.267 OA
HETATM    2  N1  UNK     1      18.578   3.732  30.619  1.00  0.00    -0.323 N 
HETATM    3  C7  UNK     1      18.215   3.872  31.951  1.00  0.00     0.262 C 
HETATM    4  H3  UNK     1      18.856   4.564  30.103  1.00  0.00     0.169 HD
ENDROOT
BRANCH   3   5
HETATM    5  C2  UNK     1      18.271   5.271  32.396  1.00  0.00     0.108 A 
HETATM    6  C10 UNK     1      19.500   6.086  32.271  1.00  0.00     0.304 A 
HETATM    7  O3  UNK     1      20.532   5.633  31.789  1.00  0.00    -0.259 OA
HETATM    8  O1  UNK     1      19.428   7.399  32.728  1.00  0.00    -0.274 OA
HETATM    9  C3  UNK     1      18.247   7.930  33.282  1.00  0.00     0.089 A 
HETATM   10  C1  UNK     1      17.104   7.146  33.391  1.00  0.00    -0.001 A 
HETATM   11  C12 UNK     1      18.273   9.255  33.712  1.00  0.00     0.038 A 
HETATM   12  C5  UNK     1      17.146   5.769  32.923  1.00  0.00     0.037 A 
HETATM   13  C9  UNK     1      15.952   7.708  33.947  1.00  0.00     0.014 A 
HETATM   14  C15 UNK     1      15.962   9.036  34.382  1.00  0.00     0.001 A 
HETATM   15  C16 UNK     1      17.120   9.808  34.264  1.00  0.00     0.003 A 
ENDBRANCH   3   5
BRANCH   2  16
HETATM   16  C4  UNK     1      18.640   2.537  29.861  1.00  0.00     0.035 A 
HETATM   17  C11 UNK     1      17.807   2.388  28.765  1.00  0.00     0.029 A 
HETATM   18  C14 UNK     1      17.867   1.211  28.019  1.00  0.00     0.003 A 
HETATM   19  C13 UNK     1      18.760   0.201  28.380  1.00  0.00     0.016 A 
HETATM   20  C6  UNK     1      19.591   0.369  29.486  1.00  0.00     0.050 A 
HETATM   21  C8  UNK     1      19.532   1.546  30.233  1.00  0.00     0.045 A 
BRANCH  20  22
HETATM   22  C17 UNK     1      20.545  -0.711  29.872  1.00  0.00     0.417 C 
HETATM   23  F1  UNK     1      21.291  -0.414  30.977  1.00  0.00    -0.166 F 
HETATM   24  F2  UNK     1      19.936  -1.899  30.163  1.00  0.00    -0.166 F 
HETATM   25  F3  UNK     1      21.446  -0.994  28.887  1.00  0.00    -0.166 F 
ENDBRANCH  20  22
ENDBRANCH   2  16
TORSDOF 3
ENDMDL
MODEL 3
REMARK VINA RESULT:      -9.5      1.894      2.463
REMARK  3 active torsions:
REMARK  status: ('A' for Active; 'I' for Inactive)
REMARK    1  A    between atoms: C4_11  and  N1_7 
REMARK       I    between atoms: C7_14  and  N1_7 
REMARK    2  A    between atoms: C2_9  and  C7_14 
REMARK    3  A    between atoms: C17_24  and  C6_13 
ROOT
HETATM    1  O2  UNK     1      17.603   3.082  32.899  1.00  0.00    -0.267 OA
HETATM    2  N1  UNK     1      18.680   4.608  31.466  1.00  0.00    -0.323 N 
HETATM    3  C7  UNK     1      18.271   3.356  31.905  1.00  0.00     0.262 C 
HETATM    4  H3  UNK     1      19.216   4.667  30.603  1.00  0.00     0.169 HD
ENDROOT
BRANCH   3   5
HETATM    5  C2  UNK     1      18.731   2.281  31.017  1.00  0.00     0.108 A 
HETATM    6  C10 UNK     1      18.732   2.426  29.543  1.00  0.00     0.304 A 
HETATM    7  O3  UNK     1      18.350   3.453  28.993  1.00  0.00    -0.259 OA
HETATM    8  O1  UNK     1      19.192   1.337  28.809  1.00  0.00    -0.274 OA
HETATM    9  C3  UNK     1      19.635   0.154  29.432  1.00  0.00     0.089 A 
HETATM   10  C1  UNK     1      19.624   0.038  30.817  1.00  0.00    -0.001 A 
HETATM   11  C12 UNK     1      20.078  -0.882  28.612  1.00  0.00     0.038 A 
HETATM   12  C5  UNK     1      19.150   1.159  31.614  1.00  0.00     0.037 A 
HETATM   13  C9  UNK     1      20.072  -1.151  31.398  1.00  0.00     0.014 A 
HETATM   14  C15 UNK     1      20.518  -2.199  30.589  1.00  0.00     0.001 A 
HETATM   15  C16 UNK     1      20.522  -2.065  29.198  1.00  0.00     0.003 A 
ENDBRANCH   3   5
BRANCH   2  16
HETATM   16  C4  UNK     1      18.420   5.863  32.070  1.00  0.00     0.035 A 
HETATM   17  C11 UNK     1      19.458   6.550  32.676  1.00  0.00     0.029 A 
HETATM   18  C14 UNK     1      19.203   7.785  33.270  1.00  0.00     0.003 A 
HETATM   19  C13 UNK     1      17.912   8.315  33.250  1.00  0.00     0.016 A 
HETATM   20  C6  UNK     1      16.879   7.609  32.635  1.00  0.00     0.050 A 
HETATM   21  C8  UNK     1      17.134   6.374  32.040  1.00  0.00     0.045 A 
BRANCH  20  22
HETATM   22  C17 UNK     1      15.499   8.176  32.615  1.00  0.00     0.417 C 
HETATM   23  F1  UNK     1      14.831   8.032  33.798  1.00  0.00    -0.166 F 
HETATM   24  F2  UNK     1      15.462   9.515  32.347  1.00  0.00    -0.166 F 
HETATM   25  F3  UNK     1      14.705   7.592  31.672  1.00  0.00    -0.166 F 
ENDBRANCH  20  22
ENDBRANCH   2  16
TORSDOF 3
ENDMDL
MODEL 4
REMARK VINA RESULT:      -9.5      9.317     12.632
REMARK  3 active torsions:
REMARK  status: ('A' for Active; 'I' for Inactive)
REMARK    1  A    between atoms: C4_11  and  N1_7 
REMARK       I    between atoms: C7_14  and  N1_7 
REMARK    2  A    between atoms: C2_9  and  C7_14 
REMARK    3  A    between atoms: C17_24  and  C6_13 
ROOT
HETATM    1  O2  UNK     1      21.220  -4.337  37.348  1.00  0.00    -0.267 OA
HETATM    2  N1  UNK     1      19.318  -5.266  36.318  1.00  0.00    -0.323 N 
HETATM    3  C7  UNK     1      20.175  -4.246  36.708  1.00  0.00     0.262 C 
HETATM    4  H3  UNK     1      18.498  -5.025  35.768  1.00  0.00     0.169 HD
ENDROOT
BRANCH   3   5
HETATM    5  C2  UNK     1      19.707  -2.928  36.259  1.00  0.00     0.108 A 
HETATM    6  C10 UNK     1      19.991  -2.415  34.900  1.00  0.00     0.304 A 
HETATM    7  O3  UNK     1      20.630  -3.067  34.082  1.00  0.00    -0.259 OA
HETATM    8  O1  UNK     1      19.493  -1.152  34.593  1.00  0.00    -0.274 OA
HETATM    9  C3  UNK     1      18.756  -0.396  35.526  1.00  0.00     0.089 A 
HETATM   10  C1  UNK     1      18.502  -0.897  36.797  1.00  0.00    -0.001 A 
HETATM   11  C12 UNK     1      18.299   0.858  35.125  1.00  0.00     0.038 A 
HETATM   12  C5  UNK     1      19.009  -2.215  37.150  1.00  0.00     0.037 A 
HETATM   13  C9  UNK     1      17.768  -0.118  37.695  1.00  0.00     0.014 A 
HETATM   14  C15 UNK     1      17.303   1.142  37.308  1.00  0.00     0.001 A 
HETATM   15  C16 UNK     1      17.568   1.628  36.026  1.00  0.00     0.003 A 
ENDBRANCH   3   5
BRANCH   2  16
HETATM   16  C4  UNK     1      19.454  -6.653  36.572  1.00  0.00     0.035 A 
HETATM   17  C11 UNK     1      18.650  -7.247  37.531  1.00  0.00     0.029 A 
HETATM   18  C14 UNK     1      18.783  -8.611  37.781  1.00  0.00     0.003 A 
HETATM   19  C13 UNK     1      19.718  -9.364  37.070  1.00  0.00     0.016 A 
HETATM   20  C6  UNK     1      20.519  -8.750  36.108  1.00  0.00     0.050 A 
HETATM   21  C8  UNK     1      20.387  -7.384  35.857  1.00  0.00     0.045 A 
BRANCH  20  22
HETATM   22  C17 UNK     1      21.520  -9.554  35.349  1.00  0.00     0.417 C 
HETATM   23  F1  UNK     1      22.776  -9.515  35.886  1.00  0.00    -0.166 F 
HETATM   24  F2  UNK     1      21.208 -10.882  35.271  1.00  0.00    -0.166 F 
HETATM   25  F3  UNK     1      21.661  -9.135  34.058  1.00  0.00    -0.166 F 
ENDBRANCH  20  22
ENDBRANCH   2  16
TORSDOF 3
ENDMDL
MODEL 5
REMARK VINA RESULT:      -9.4      9.458     12.535
REMARK  3 active torsions:
REMARK  status: ('A' for Active; 'I' for Inactive)
REMARK    1  A    between atoms: C4_11  and  N1_7 
REMARK       I    between atoms: C7_14  and  N1_7 
REMARK    2  A    between atoms: C2_9  and  C7_14 
REMARK    3  A    between atoms: C17_24  and  C6_13 
ROOT
HETATM    1  O2  UNK     1      20.154  -5.119  35.191  1.00  0.00    -0.267 OA
HETATM    2  N1  UNK     1      19.639  -4.870  37.475  1.00  0.00    -0.323 N 
HETATM    3  C7  UNK     1      19.808  -4.451  36.162  1.00  0.00     0.262 C 
HETATM    4  H3  UNK     1      19.325  -4.191  38.163  1.00  0.00     0.169 HD
ENDROOT
BRANCH   3   5
HETATM    5  C2  UNK     1      19.516  -3.021  35.996  1.00  0.00     0.108 A 
HETATM    6  C10 UNK     1      20.002  -2.251  34.828  1.00  0.00     0.304 A 
HETATM    7  O3  UNK     1      20.672  -2.770  33.943  1.00  0.00    -0.259 OA
HETATM    8  O1  UNK     1      19.659  -0.903  34.783  1.00  0.00    -0.274 OA
HETATM    9  C3  UNK     1      18.888  -0.297  35.794  1.00  0.00     0.089 A 
HETATM   10  C1  UNK     1      18.443  -1.039  36.883  1.00  0.00    -0.001 A 
HETATM   11  C12 UNK     1      18.596   1.059  35.661  1.00  0.00     0.038 A 
HETATM   12  C5  UNK     1      18.785  -2.451  36.960  1.00  0.00     0.037 A 
HETATM   13  C9  UNK     1      17.681  -0.403  37.866  1.00  0.00     0.014 A 
HETATM   14  C15 UNK     1      17.380   0.957  37.746  1.00  0.00     0.001 A 
HETATM   15  C16 UNK     1      17.836   1.686  36.645  1.00  0.00     0.003 A 
ENDBRANCH   3   5
BRANCH   2  16
HETATM   16  C4  UNK     1      19.830  -6.173  37.996  1.00  0.00     0.035 A 
HETATM   17  C11 UNK     1      18.834  -7.121  37.828  1.00  0.00     0.029 A 
HETATM   18  C14 UNK     1      19.021  -8.403  38.342  1.00  0.00     0.003 A 
HETATM   19  C13 UNK     1      20.201  -8.720  39.016  1.00  0.00     0.016 A 
HETATM   20  C6  UNK     1      21.193  -7.754  39.175  1.00  0.00     0.050 A 
HETATM   21  C8  UNK     1      21.007  -6.470  38.662  1.00  0.00     0.045 A 
BRANCH  20  22
HETATM   22  C17 UNK     1      22.454  -8.093  39.897  1.00  0.00     0.417 C 
HETATM   23  F1  UNK     1      22.336  -9.171  40.728  1.00  0.00    -0.166 F 
HETATM   24  F2  UNK     1      23.494  -8.396  39.065  1.00  0.00    -0.166 F 
HETATM   25  F3  UNK     1      22.900  -7.071  40.683  1.00  0.00    -0.166 F 
ENDBRANCH  20  22
ENDBRANCH   2  16
TORSDOF 3
ENDMDL
MODEL 6
REMARK VINA RESULT:      -9.4      1.030      2.079
REMARK  3 active torsions:
REMARK  status: ('A' for Active; 'I' for Inactive)
REMARK    1  A    between atoms: C4_11  and  N1_7 
REMARK       I    between atoms: C7_14  and  N1_7 
REMARK    2  A    between atoms: C2_9  and  C7_14 
REMARK    3  A    between atoms: C17_24  and  C6_13 
ROOT
HETATM    1  O2  UNK     1      18.263   4.208  30.072  1.00  0.00    -0.267 OA
HETATM    2  N1  UNK     1      18.289   4.352  32.422  1.00  0.00    -0.323 N 
HETATM    3  C7  UNK     1      18.397   3.719  31.191  1.00  0.00     0.262 C 
HETATM    4  H3  UNK     1      18.451   3.804  33.264  1.00  0.00     0.169 HD
ENDROOT
BRANCH   3   5
HETATM    5  C2  UNK     1      18.715   2.291  31.329  1.00  0.00     0.108 A 
HETATM    6  C10 UNK     1      18.349   1.518  32.537  1.00  0.00     0.304 A 
HETATM    7  O3  UNK     1      17.761   2.032  33.482  1.00  0.00    -0.259 OA
HETATM    8  O1  UNK     1      18.704   0.173  32.548  1.00  0.00    -0.274 OA
HETATM    9  C3  UNK     1      19.379  -0.428  31.467  1.00  0.00     0.089 A 
HETATM   10  C1  UNK     1      19.714   0.318  30.343  1.00  0.00    -0.001 A 
HETATM   11  C12 UNK     1      19.692  -1.782  31.571  1.00  0.00     0.038 A 
HETATM   12  C5  UNK     1      19.357   1.727  30.300  1.00  0.00     0.037 A 
HETATM   13  C9  UNK     1      20.384  -0.313  29.291  1.00  0.00     0.014 A 
HETATM   14  C15 UNK     1      20.705  -1.670  29.381  1.00  0.00     0.001 A 
HETATM   15  C16 UNK     1      20.359  -2.403  30.519  1.00  0.00     0.003 A 
ENDBRANCH   3   5
BRANCH   2  16
HETATM   16  C4  UNK     1      17.995   5.715  32.669  1.00  0.00     0.035 A 
HETATM   17  C11 UNK     1      16.798   6.242  32.216  1.00  0.00     0.029 A 
HETATM   18  C14 UNK     1      16.508   7.584  32.459  1.00  0.00     0.003 A 
HETATM   19  C13 UNK     1      17.421   8.380  33.152  1.00  0.00     0.016 A 
HETATM   20  C6  UNK     1      18.622   7.833  33.602  1.00  0.00     0.050 A 
HETATM   21  C8  UNK     1      18.912   6.490  33.359  1.00  0.00     0.045 A 
BRANCH  20  22
HETATM   22  C17 UNK     1      19.598   8.684  34.341  1.00  0.00     0.417 C 
HETATM   23  F1  UNK     1      20.864   8.636  33.831  1.00  0.00    -0.166 F 
HETATM   24  F2  UNK     1      19.269  10.010  34.351  1.00  0.00    -0.166 F 
HETATM   25  F3  UNK     1      19.718   8.328  35.653  1.00  0.00    -0.166 F 
ENDBRANCH  20  22
ENDBRANCH   2  16
TORSDOF 3
ENDMDL
MODEL 7
REMARK VINA RESULT:      -9.3      9.174     12.542
REMARK  3 active torsions:
REMARK  status: ('A' for Active; 'I' for Inactive)
REMARK    1  A    between atoms: C4_11  and  N1_7 
REMARK       I    between atoms: C7_14  and  N1_7 
REMARK    2  A    between atoms: C2_9  and  C7_14 
REMARK    3  A    between atoms: C17_24  and  C6_13 
ROOT
HETATM    1  O2  UNK     1      20.942  -4.101  37.708  1.00  0.00    -0.267 OA
HETATM    2  N1  UNK     1      19.745  -5.098  35.943  1.00  0.00    -0.323 N 
HETATM    3  C7  UNK     1      20.200  -4.049  36.730  1.00  0.00     0.262 C 
HETATM    4  H3  UNK     1      19.148  -4.883  35.148  1.00  0.00     0.169 HD
ENDROOT
BRANCH   3   5
HETATM    5  C2  UNK     1      19.690  -2.750  36.271  1.00  0.00     0.108 A 
HETATM    6  C10 UNK     1      19.953  -2.242  34.906  1.00  0.00     0.304 A 
HETATM    7  O3  UNK     1      20.610  -2.880  34.091  1.00  0.00    -0.259 OA
HETATM    8  O1  UNK     1      19.416  -0.997  34.589  1.00  0.00    -0.274 OA
HETATM    9  C3  UNK     1      18.658  -0.256  35.516  1.00  0.00     0.089 A 
HETATM   10  C1  UNK     1      18.424  -0.753  36.794  1.00  0.00    -0.001 A 
HETATM   11  C12 UNK     1      18.161   0.979  35.106  1.00  0.00     0.038 A 
HETATM   12  C5  UNK     1      18.972  -2.050  37.157  1.00  0.00     0.037 A 
HETATM   13  C9  UNK     1      17.668   0.012  37.686  1.00  0.00     0.014 A 
HETATM   14  C15 UNK     1      17.163   1.253  37.289  1.00  0.00     0.001 A 
HETATM   15  C16 UNK     1      17.409   1.736  36.001  1.00  0.00     0.003 A 
ENDBRANCH   3   5
BRANCH   2  16
HETATM   16  C4  UNK     1      20.033  -6.477  36.090  1.00  0.00     0.035 A 
HETATM   17  C11 UNK     1      20.512  -7.187  35.002  1.00  0.00     0.029 A 
HETATM   18  C14 UNK     1      20.796  -8.544  35.147  1.00  0.00     0.003 A 
HETATM   19  C13 UNK     1      20.598  -9.172  36.377  1.00  0.00     0.016 A 
HETATM   20  C6  UNK     1      20.116  -8.441  37.462  1.00  0.00     0.050 A 
HETATM   21  C8  UNK     1      19.831  -7.083  37.318  1.00  0.00     0.045 A 
BRANCH  20  22
HETATM   22  C17 UNK     1      19.903  -9.112  38.777  1.00  0.00     0.417 C 
HETATM   23  F1  UNK     1      18.953 -10.093  38.743  1.00  0.00    -0.166 F 
HETATM   24  F2  UNK     1      21.023  -9.719  39.268  1.00  0.00    -0.166 F 
HETATM   25  F3  UNK     1      19.500  -8.245  39.751  1.00  0.00    -0.166 F 
ENDBRANCH  20  22
ENDBRANCH   2  16
TORSDOF 3
ENDMDL
MODEL 8
REMARK VINA RESULT:      -9.3      2.280      3.213
REMARK  3 active torsions:
REMARK  status: ('A' for Active; 'I' for Inactive)
REMARK    1  A    between atoms: C4_11  and  N1_7 
REMARK       I    between atoms: C7_14  and  N1_7 
REMARK    2  A    between atoms: C2_9  and  C7_14 
REMARK    3  A    between atoms: C17_24  and  C6_13 
ROOT
HETATM    1  O2  UNK     1      18.282   4.331  30.158  1.00  0.00    -0.267 OA
HETATM    2  N1  UNK     1      18.290   4.445  32.509  1.00  0.00    -0.323 N 
HETATM    3  C7  UNK     1      18.403   3.827  31.272  1.00  0.00     0.262 C 
HETATM    4  H3  UNK     1      18.442   3.886  33.345  1.00  0.00     0.169 HD
ENDROOT
BRANCH   3   5
HETATM    5  C2  UNK     1      18.711   2.395  31.394  1.00  0.00     0.108 A 
HETATM    6  C10 UNK     1      18.343   1.614  32.596  1.00  0.00     0.304 A 
HETATM    7  O3  UNK     1      17.763   2.124  33.549  1.00  0.00    -0.259 OA
HETATM    8  O1  UNK     1      18.687   0.265  32.594  1.00  0.00    -0.274 OA
HETATM    9  C3  UNK     1      19.352  -0.330  31.504  1.00  0.00     0.089 A 
HETATM   10  C1  UNK     1      19.689   0.423  30.385  1.00  0.00    -0.001 A 
HETATM   11  C12 UNK     1      19.655  -1.688  31.594  1.00  0.00     0.038 A 
HETATM   12  C5  UNK     1      19.343   1.836  30.357  1.00  0.00     0.037 A 
HETATM   13  C9  UNK     1      20.348  -0.203  29.324  1.00  0.00     0.014 A 
HETATM   14  C15 UNK     1      20.659  -1.564  29.400  1.00  0.00     0.001 A 
HETATM   15  C16 UNK     1      20.312  -2.304  30.533  1.00  0.00     0.003 A 
ENDBRANCH   3   5
BRANCH   2  16
HETATM   16  C4  UNK     1      18.004   5.808  32.771  1.00  0.00     0.035 A 
HETATM   17  C11 UNK     1      19.032   6.652  33.154  1.00  0.00     0.029 A 
HETATM   18  C14 UNK     1      18.751   7.994  33.412  1.00  0.00     0.003 A 
HETATM   19  C13 UNK     1      17.447   8.471  33.282  1.00  0.00     0.016 A 
HETATM   20  C6  UNK     1      16.424   7.606  32.895  1.00  0.00     0.050 A 
HETATM   21  C8  UNK     1      16.704   6.264  32.637  1.00  0.00     0.045 A 
BRANCH  20  22
HETATM   22  C17 UNK     1      15.029   8.116  32.757  1.00  0.00     0.417 C 
HETATM   23  F1  UNK     1      14.266   7.397  31.881  1.00  0.00    -0.166 F 
HETATM   24  F2  UNK     1      14.327   8.109  33.929  1.00  0.00    -0.166 F 
HETATM   25  F3  UNK     1      14.982   9.405  32.311  1.00  0.00    -0.166 F 
ENDBRANCH  20  22
ENDBRANCH   2  16
TORSDOF 3
ENDMDL
MODEL 9
REMARK VINA RESULT:      -9.3      3.866      8.048
REMARK  3 active torsions:
REMARK  status: ('A' for Active; 'I' for Inactive)
REMARK    1  A    between atoms: C4_11  and  N1_7 
REMARK       I    between atoms: C7_14  and  N1_7 
REMARK    2  A    between atoms: C2_9  and  C7_14 
REMARK    3  A    between atoms: C17_24  and  C6_13 
ROOT
HETATM    1  O2  UNK     1      17.921   3.419  33.194  1.00  0.00    -0.267 OA
HETATM    2  N1  UNK     1      18.391   4.088  30.986  1.00  0.00    -0.323 N 
HETATM    3  C7  UNK     1      18.117   4.275  32.334  1.00  0.00     0.262 C 
HETATM    4  H3  UNK     1      18.551   4.908  30.407  1.00  0.00     0.169 HD
ENDROOT
BRANCH   3   5
HETATM    5  C2  UNK     1      18.077   5.697  32.699  1.00  0.00     0.108 A 
HETATM    6  C10 UNK     1      16.857   6.518  32.525  1.00  0.00     0.304 A 
HETATM    7  O3  UNK     1      15.820   6.050  32.068  1.00  0.00    -0.259 OA
HETATM    8  O1  UNK     1      16.943   7.853  32.909  1.00  0.00    -0.274 OA
HETATM    9  C3  UNK     1      18.129   8.400  33.436  1.00  0.00     0.089 A 
HETATM   10  C1  UNK     1      19.263   7.611  33.590  1.00  0.00    -0.001 A 
HETATM   11  C12 UNK     1      18.117   9.748  33.792  1.00  0.00     0.038 A 
HETATM   12  C5  UNK     1      19.206   6.211  33.199  1.00  0.00     0.037 A 
HETATM   13  C9  UNK     1      20.421   8.190  34.117  1.00  0.00     0.014 A 
HETATM   14  C15 UNK     1      20.425   9.540  34.478  1.00  0.00     0.001 A 
HETATM   15  C16 UNK     1      19.275  10.317  34.316  1.00  0.00     0.003 A 
ENDBRANCH   3   5
BRANCH   2  16
HETATM   16  C4  UNK     1      18.506   2.860  30.290  1.00  0.00     0.035 A 
HETATM   17  C11 UNK     1      17.968   2.750  29.019  1.00  0.00     0.029 A 
HETATM   18  C14 UNK     1      18.080   1.541  28.334  1.00  0.00     0.003 A 
HETATM   19  C13 UNK     1      18.729   0.459  28.929  1.00  0.00     0.016 A 
HETATM   20  C6  UNK     1      19.265   0.588  30.210  1.00  0.00     0.050 A 
HETATM   21  C8  UNK     1      19.153   1.797  30.896  1.00  0.00     0.045 A 
BRANCH  20  22
HETATM   22  C17 UNK     1      19.958  -0.570  30.847  1.00  0.00     0.417 C 
HETATM   23  F1  UNK     1      19.901  -1.717  30.107  1.00  0.00    -0.166 F 
HETATM   24  F2  UNK     1      21.289  -0.355  31.068  1.00  0.00    -0.166 F 
HETATM   25  F3  UNK     1      19.433  -0.893  32.064  1.00  0.00    -0.166 F 
ENDBRANCH  20  22
ENDBRANCH   2  16
TORSDOF 3
ENDMDL
MODEL 10
REMARK VINA RESULT:      -9.2      9.709     12.809
REMARK  3 active torsions:
REMARK  status: ('A' for Active; 'I' for Inactive)
REMARK    1  A    between atoms: C4_11  and  N1_7 
REMARK       I    between atoms: C7_14  and  N1_7 
REMARK    2  A    between atoms: C2_9  and  C7_14 
REMARK    3  A    between atoms: C17_24  and  C6_13 
ROOT
HETATM    1  O2  UNK     1      20.101  -5.297  35.431  1.00  0.00    -0.267 OA
HETATM    2  N1  UNK     1      20.632  -4.670  37.638  1.00  0.00    -0.323 N 
HETATM    3  C7  UNK     1      20.179  -4.474  36.340  1.00  0.00     0.262 C 
HETATM    4  H3  UNK     1      20.613  -3.883  38.281  1.00  0.00     0.169 HD
ENDROOT
BRANCH   3   5
HETATM    5  C2  UNK     1      19.757  -3.087  36.105  1.00  0.00     0.108 A 
HETATM    6  C10 UNK     1      20.113  -2.357  34.868  1.00  0.00     0.304 A 
HETATM    7  O3  UNK     1      20.779  -2.875  33.978  1.00  0.00    -0.259 OA
HETATM    8  O1  UNK     1      19.654  -1.047  34.761  1.00  0.00    -0.274 OA
HETATM    9  C3  UNK     1      18.888  -0.443  35.777  1.00  0.00     0.089 A 
HETATM   10  C1  UNK     1      18.565  -1.147  36.932  1.00  0.00    -0.001 A 
HETATM   11  C12 UNK     1      18.473   0.873  35.579  1.00  0.00     0.038 A 
HETATM   12  C5  UNK     1      19.031  -2.518  37.074  1.00  0.00     0.037 A 
HETATM   13  C9  UNK     1      17.804  -0.513  37.917  1.00  0.00     0.014 A 
HETATM   14  C15 UNK     1      17.381   0.806  37.733  1.00  0.00     0.001 A 
HETATM   15  C16 UNK     1      17.714   1.497  36.566  1.00  0.00     0.003 A 
ENDBRANCH   3   5
BRANCH   2  16
HETATM   16  C4  UNK     1      21.112  -5.873  38.212  1.00  0.00     0.035 A 
HETATM   17  C11 UNK     1      22.391  -5.905  38.742  1.00  0.00     0.029 A 
HETATM   18  C14 UNK     1      22.864  -7.089  39.308  1.00  0.00     0.003 A 
HETATM   19  C13 UNK     1      22.052  -8.222  39.335  1.00  0.00     0.016 A 
HETATM   20  C6  UNK     1      20.766  -8.171  38.798  1.00  0.00     0.050 A 
HETATM   21  C8  UNK     1      20.292  -6.988  38.232  1.00  0.00     0.045 A 
BRANCH  20  22
HETATM   22  C17 UNK     1      19.898  -9.384  38.827  1.00  0.00     0.417 C 
HETATM   23  F1  UNK     1      19.789  -9.950  40.066  1.00  0.00    -0.166 F 
HETATM   24  F2  UNK     1      18.613  -9.145  38.431  1.00  0.00    -0.166 F 
HETATM   25  F3  UNK     1      20.354 -10.377  38.010  1.00  0.00    -0.166 F 
ENDBRANCH  20  22
ENDBRANCH   2  16
TORSDOF 3
ENDMDL
