MODEL 1
REMARK VINA RESULT:      -8.7      0.000      0.000
REMARK  2 active torsions:
REMARK  status: ('A' for Active; 'I' for Inactive)
REMARK    1  A    between atoms: C11_16  and  N1_4 
REMARK       I    between atoms: C7_12  and  N1_4 
REMARK    2  A    between atoms: C3_8  and  C7_12 
ROOT
HETATM    1  O1  UNK     1      19.062   1.582  28.739  1.00  0.00    -0.274 OA
HETATM    2  O2  UNK     1      18.273   3.715  28.956  1.00  0.00    -0.259 OA
HETATM    3  C1  UNK     1      19.532   0.267  30.729  1.00  0.00    -0.001 A 
HETATM    4  C2  UNK     1      19.499   0.387  29.343  1.00  0.00     0.089 A 
HETATM    5  C3  UNK     1      18.695   2.528  30.963  1.00  0.00     0.108 A 
HETATM    6  C4  UNK     1      19.110   1.395  31.543  1.00  0.00     0.037 A 
HETATM    7  C5  UNK     1      19.971  -0.935  31.291  1.00  0.00     0.014 A 
HETATM    8  C6  UNK     1      18.651   2.678  29.492  1.00  0.00     0.304 A 
HETATM    9  C8  UNK     1      19.891  -0.656  28.507  1.00  0.00     0.038 A 
HETATM   10  C9  UNK     1      20.368  -1.990  30.465  1.00  0.00     0.001 A 
HETATM   11  C10 UNK     1      20.328  -1.850  29.075  1.00  0.00     0.003 A 
ENDROOT
BRANCH   5  12
HETATM   12  C7  UNK     1      18.289   3.610  31.869  1.00  0.00     0.262 C 
HETATM   13  O3  UNK     1      17.610   3.353  32.861  1.00  0.00    -0.267 OA
HETATM   14  N1  UNK     1      18.758   4.848  31.449  1.00  0.00    -0.321 N 
HETATM   15  H5  UNK     1      19.295   4.895  30.586  1.00  0.00     0.169 HD
BRANCH  14  16
HETATM   16  C11 UNK     1      18.560   6.104  32.073  1.00  0.00     0.052 A 
HETATM   17  C13 UNK     1      17.508   6.904  31.697  1.00  0.00     0.145 A 
HETATM   18  N2  UNK     1      17.263   8.111  32.252  1.00  0.00    -0.271 NA
HETATM   19  C15 UNK     1      18.118   8.513  33.218  1.00  0.00     0.116 A 
HETATM   20  C14 UNK     1      19.201   7.768  33.655  1.00  0.00     0.021 A 
HETATM   21  C12 UNK     1      19.421   6.530  33.061  1.00  0.00     0.032 A 
ENDBRANCH  14  16
ENDBRANCH   5  12
TORSDOF 2
ENDMDL
MODEL 2
REMARK VINA RESULT:      -8.6      2.211      7.211
REMARK  2 active torsions:
REMARK  status: ('A' for Active; 'I' for Inactive)
REMARK    1  A    between atoms: C11_16  and  N1_4 
REMARK       I    between atoms: C7_12  and  N1_4 
REMARK    2  A    between atoms: C3_8  and  C7_12 
ROOT
HETATM    1  O1  UNK     1      19.569   6.679  31.733  1.00  0.00    -0.274 OA
HETATM    2  O2  UNK     1      20.153   5.199  30.093  1.00  0.00    -0.259 OA
HETATM    3  C1  UNK     1      17.819   6.091  33.314  1.00  0.00    -0.001 A 
HETATM    4  C2  UNK     1      18.767   6.996  32.846  1.00  0.00     0.089 A 
HETATM    5  C3  UNK     1      18.436   4.518  31.578  1.00  0.00     0.108 A 
HETATM    6  C4  UNK     1      17.670   4.813  32.635  1.00  0.00     0.037 A 
HETATM    7  C5  UNK     1      17.042   6.440  34.422  1.00  0.00     0.014 A 
HETATM    8  C6  UNK     1      19.451   5.465  31.063  1.00  0.00     0.304 A 
HETATM    9  C8  UNK     1      18.958   8.236  33.452  1.00  0.00     0.038 A 
HETATM   10  C9  UNK     1      17.223   7.680  35.039  1.00  0.00     0.001 A 
HETATM   11  C10 UNK     1      18.179   8.577  34.555  1.00  0.00     0.003 A 
ENDROOT
BRANCH   5  12
HETATM   12  C7  UNK     1      18.212   3.205  30.959  1.00  0.00     0.262 C 
HETATM   13  O3  UNK     1      17.068   2.761  30.868  1.00  0.00    -0.267 OA
HETATM   14  N1  UNK     1      19.396   2.614  30.542  1.00  0.00    -0.321 N 
HETATM   15  H5  UNK     1      20.270   3.107  30.710  1.00  0.00     0.169 HD
BRANCH  14  16
HETATM   16  C11 UNK     1      19.558   1.357  29.910  1.00  0.00     0.052 A 
HETATM   17  C13 UNK     1      18.949   1.106  28.704  1.00  0.00     0.145 A 
HETATM   18  N2  UNK     1      19.063  -0.070  28.049  1.00  0.00    -0.271 NA
HETATM   19  C15 UNK     1      19.820  -1.019  28.644  1.00  0.00     0.116 A 
HETATM   20  C14 UNK     1      20.467  -0.847  29.858  1.00  0.00     0.021 A 
HETATM   21  C12 UNK     1      20.326   0.377  30.501  1.00  0.00     0.032 A 
ENDBRANCH  14  16
ENDBRANCH   5  12
TORSDOF 2
ENDMDL
MODEL 3
REMARK VINA RESULT:      -8.5      7.829     11.055
REMARK  2 active torsions:
REMARK  status: ('A' for Active; 'I' for Inactive)
REMARK    1  A    between atoms: C11_16  and  N1_4 
REMARK       I    between atoms: C7_12  and  N1_4 
REMARK    2  A    between atoms: C3_8  and  C7_12 
ROOT
HETATM    1  O1  UNK     1      19.502  -1.013  34.732  1.00  0.00    -0.274 OA
HETATM    2  O2  UNK     1      20.564  -2.945  34.131  1.00  0.00    -0.259 OA
HETATM    3  C1  UNK     1      18.489  -0.834  36.935  1.00  0.00    -0.001 A 
HETATM    4  C2  UNK     1      18.784  -0.277  35.695  1.00  0.00     0.089 A 
HETATM    5  C3  UNK     1      19.615  -2.884  36.301  1.00  0.00     0.108 A 
HETATM    6  C4  UNK     1      18.933  -2.190  37.221  1.00  0.00     0.037 A 
HETATM    7  C5  UNK     1      17.777  -0.073  37.865  1.00  0.00     0.014 A 
HETATM    8  C6  UNK     1      19.940  -2.311  34.977  1.00  0.00     0.304 A 
HETATM    9  C8  UNK     1      18.387   1.016  35.359  1.00  0.00     0.038 A 
HETATM   10  C9  UNK     1      17.372   1.225  37.542  1.00  0.00     0.001 A 
HETATM   11  C10 UNK     1      17.676   1.768  36.291  1.00  0.00     0.003 A 
ENDROOT
BRANCH   5  12
HETATM   12  C7  UNK     1      20.019  -4.243  36.683  1.00  0.00     0.262 C 
HETATM   13  O3  UNK     1      21.201  -4.483  36.927  1.00  0.00    -0.267 OA
HETATM   14  N1  UNK     1      18.943  -5.120  36.713  1.00  0.00    -0.321 N 
HETATM   15  H5  UNK     1      18.023  -4.766  36.462  1.00  0.00     0.169 HD
BRANCH  14  16
HETATM   16  C11 UNK     1      18.962  -6.499  37.036  1.00  0.00     0.052 A 
HETATM   17  C13 UNK     1      18.610  -7.434  36.093  1.00  0.00     0.145 A 
HETATM   18  N2  UNK     1      18.606  -8.764  36.336  1.00  0.00    -0.271 NA
HETATM   19  C15 UNK     1      18.972  -9.148  37.579  1.00  0.00     0.116 A 
HETATM   20  C14 UNK     1      19.341  -8.270  38.586  1.00  0.00     0.021 A 
HETATM   21  C12 UNK     1      19.333  -6.911  38.298  1.00  0.00     0.032 A 
ENDBRANCH  14  16
ENDBRANCH   5  12
TORSDOF 2
ENDMDL
MODEL 4
REMARK VINA RESULT:      -8.4      8.732     10.581
REMARK  2 active torsions:
REMARK  status: ('A' for Active; 'I' for Inactive)
REMARK    1  A    between atoms: C11_16  and  N1_4 
REMARK       I    between atoms: C7_12  and  N1_4 
REMARK    2  A    between atoms: C3_8  and  C7_12 
ROOT
HETATM    1  O1  UNK     1      19.980  -7.938  35.714  1.00  0.00    -0.274 OA
HETATM    2  O2  UNK     1      20.211  -5.991  34.540  1.00  0.00    -0.259 OA
HETATM    3  C1  UNK     1      19.863  -7.870  38.141  1.00  0.00    -0.001 A 
HETATM    4  C2  UNK     1      19.860  -8.595  36.953  1.00  0.00     0.089 A 
HETATM    5  C3  UNK     1      20.106  -5.804  36.900  1.00  0.00     0.108 A 
HETATM    6  C4  UNK     1      19.993  -6.423  38.082  1.00  0.00     0.037 A 
HETATM    7  C5  UNK     1      19.741  -8.558  39.351  1.00  0.00     0.014 A 
HETATM    8  C6  UNK     1      20.105  -6.555  35.625  1.00  0.00     0.304 A 
HETATM    9  C8  UNK     1      19.740  -9.983  36.942  1.00  0.00     0.038 A 
HETATM   10  C9  UNK     1      19.619  -9.950  39.355  1.00  0.00     0.001 A 
HETATM   11  C10 UNK     1      19.619 -10.661  38.153  1.00  0.00     0.003 A 
ENDROOT
BRANCH   5  12
HETATM   12  C7  UNK     1      20.233  -4.342  36.943  1.00  0.00     0.262 C 
HETATM   13  O3  UNK     1      21.310  -3.831  37.248  1.00  0.00    -0.267 OA
HETATM   14  N1  UNK     1      19.044  -3.703  36.616  1.00  0.00    -0.321 N 
HETATM   15  H5  UNK     1      18.229  -4.275  36.406  1.00  0.00     0.169 HD
BRANCH  14  16
HETATM   16  C11 UNK     1      18.800  -2.310  36.556  1.00  0.00     0.052 A 
HETATM   17  C13 UNK     1      19.315  -1.562  35.525  1.00  0.00     0.145 A 
HETATM   18  N2  UNK     1      19.120  -0.229  35.409  1.00  0.00    -0.271 NA
HETATM   19  C15 UNK     1      18.377   0.355  36.376  1.00  0.00     0.116 A 
HETATM   20  C14 UNK     1      17.822  -0.326  37.447  1.00  0.00     0.021 A 
HETATM   21  C12 UNK     1      18.045  -1.696  37.532  1.00  0.00     0.032 A 
ENDBRANCH  14  16
ENDBRANCH   5  12
TORSDOF 2
ENDMDL
MODEL 5
REMARK VINA RESULT:      -8.4      1.654      2.387
REMARK  2 active torsions:
REMARK  status: ('A' for Active; 'I' for Inactive)
REMARK    1  A    between atoms: C11_16  and  N1_4 
REMARK       I    between atoms: C7_12  and  N1_4 
REMARK    2  A    between atoms: C3_8  and  C7_12 
ROOT
HETATM    1  O1  UNK     1      18.808   0.252  32.828  1.00  0.00    -0.274 OA
HETATM    2  O2  UNK     1      17.952   1.858  34.209  1.00  0.00    -0.259 OA
HETATM    3  C1  UNK     1      19.373   0.819  30.532  1.00  0.00    -0.001 A 
HETATM    4  C2  UNK     1      19.300  -0.116  31.561  1.00  0.00     0.089 A 
HETATM    5  C3  UNK     1      18.466   2.524  31.994  1.00  0.00     0.108 A 
HETATM    6  C4  UNK     1      18.932   2.181  30.787  1.00  0.00     0.037 A 
HETATM    7  C5  UNK     1      19.867   0.417  29.289  1.00  0.00     0.014 A 
HETATM    8  C6  UNK     1      18.380   1.548  33.102  1.00  0.00     0.304 A 
HETATM    9  C8  UNK     1      19.705  -1.437  31.381  1.00  0.00     0.038 A 
HETATM   10  C9  UNK     1      20.278  -0.905  29.094  1.00  0.00     0.001 A 
HETATM   11  C10 UNK     1      20.197  -1.830  30.139  1.00  0.00     0.003 A 
ENDROOT
BRANCH   5  12
HETATM   12  C7  UNK     1      18.045   3.922  32.154  1.00  0.00     0.262 C 
HETATM   13  O3  UNK     1      17.188   4.391  31.406  1.00  0.00    -0.267 OA
HETATM   14  N1  UNK     1      18.718   4.557  33.189  1.00  0.00    -0.321 N 
HETATM   15  H5  UNK     1      19.420   4.031  33.704  1.00  0.00     0.169 HD
BRANCH  14  16
HETATM   16  C11 UNK     1      18.569   5.897  33.623  1.00  0.00     0.052 A 
HETATM   17  C13 UNK     1      17.357   6.337  34.099  1.00  0.00     0.145 A 
HETATM   18  N2  UNK     1      17.148   7.602  34.529  1.00  0.00    -0.271 NA
HETATM   19  C15 UNK     1      18.207   8.440  34.469  1.00  0.00     0.116 A 
HETATM   20  C14 UNK     1      19.460   8.075  34.004  1.00  0.00     0.021 A 
HETATM   21  C12 UNK     1      19.637   6.766  33.571  1.00  0.00     0.032 A 
ENDBRANCH  14  16
ENDBRANCH   5  12
TORSDOF 2
ENDMDL
MODEL 6
REMARK VINA RESULT:      -8.2     13.847     17.449
REMARK  2 active torsions:
REMARK  status: ('A' for Active; 'I' for Inactive)
REMARK    1  A    between atoms: C11_16  and  N1_4 
REMARK       I    between atoms: C7_12  and  N1_4 
REMARK    2  A    between atoms: C3_8  and  C7_12 
ROOT
HETATM    1  O1  UNK     1      19.333   1.093  15.529  1.00  0.00    -0.274 OA
HETATM    2  O2  UNK     1      19.451  -0.435  13.835  1.00  0.00    -0.259 OA
HETATM    3  C1  UNK     1      18.889   0.340  17.797  1.00  0.00    -0.001 A 
HETATM    4  C2  UNK     1      19.140   1.370  16.896  1.00  0.00     0.089 A 
HETATM    5  C3  UNK     1      19.014  -1.284  16.004  1.00  0.00     0.108 A 
HETATM    6  C4  UNK     1      18.829  -1.027  17.304  1.00  0.00     0.037 A 
HETATM    7  C5  UNK     1      18.703   0.654  19.146  1.00  0.00     0.014 A 
HETATM    8  C6  UNK     1      19.283  -0.204  15.028  1.00  0.00     0.304 A 
HETATM    9  C8  UNK     1      19.209   2.700  17.305  1.00  0.00     0.038 A 
HETATM   10  C9  UNK     1      18.770   1.984  19.570  1.00  0.00     0.001 A 
HETATM   11  C10 UNK     1      19.022   3.005  18.650  1.00  0.00     0.003 A 
ENDROOT
BRANCH   5  12
HETATM   12  C7  UNK     1      18.934  -2.694  15.603  1.00  0.00     0.262 C 
HETATM   13  O3  UNK     1      17.872  -3.303  15.720  1.00  0.00    -0.267 OA
HETATM   14  N1  UNK     1      20.146  -3.171  15.121  1.00  0.00    -0.321 N 
HETATM   15  H5  UNK     1      20.944  -2.540  15.107  1.00  0.00     0.169 HD
BRANCH  14  16
HETATM   16  C11 UNK     1      20.435  -4.475  14.649  1.00  0.00     0.052 A 
HETATM   17  C13 UNK     1      21.244  -5.310  15.380  1.00  0.00     0.145 A 
HETATM   18  N2  UNK     1      21.559  -6.564  14.988  1.00  0.00    -0.271 NA
HETATM   19  C15 UNK     1      21.032  -6.976  13.813  1.00  0.00     0.116 A 
HETATM   20  C14 UNK     1      20.208  -6.198  13.017  1.00  0.00     0.021 A 
HETATM   21  C12 UNK     1      19.906  -4.913  13.454  1.00  0.00     0.032 A 
ENDBRANCH  14  16
ENDBRANCH   5  12
TORSDOF 2
ENDMDL
MODEL 7
REMARK VINA RESULT:      -8.2     13.748     16.218
REMARK  2 active torsions:
REMARK  status: ('A' for Active; 'I' for Inactive)
REMARK    1  A    between atoms: C11_16  and  N1_4 
REMARK       I    between atoms: C7_12  and  N1_4 
REMARK    2  A    between atoms: C3_8  and  C7_12 
ROOT
HETATM    1  O1  UNK     1      19.447  -2.204  13.070  1.00  0.00    -0.274 OA
HETATM    2  O2  UNK     1      19.439  -0.255  14.264  1.00  0.00    -0.259 OA
HETATM    3  C1  UNK     1      18.511  -4.219  14.056  1.00  0.00    -0.001 A 
HETATM    4  C2  UNK     1      19.131  -3.573  12.990  1.00  0.00     0.089 A 
HETATM    5  C3  UNK     1      18.500  -2.155  15.324  1.00  0.00     0.108 A 
HETATM    6  C4  UNK     1      18.197  -3.457  15.254  1.00  0.00     0.037 A 
HETATM    7  C5  UNK     1      18.212  -5.579  13.939  1.00  0.00     0.014 A 
HETATM    8  C6  UNK     1      19.158  -1.448  14.203  1.00  0.00     0.304 A 
HETATM    9  C8  UNK     1      19.459  -4.247  11.816  1.00  0.00     0.038 A 
HETATM   10  C9  UNK     1      18.535  -6.267  12.766  1.00  0.00     0.001 A 
HETATM   11  C10 UNK     1      19.158  -5.602  11.707  1.00  0.00     0.003 A 
ENDROOT
BRANCH   5  12
HETATM   12  C7  UNK     1      18.144  -1.472  16.574  1.00  0.00     0.262 C 
HETATM   13  O3  UNK     1      17.043  -1.671  17.086  1.00  0.00    -0.267 OA
HETATM   14  N1  UNK     1      19.162  -0.645  17.028  1.00  0.00    -0.321 N 
HETATM   15  H5  UNK     1      20.012  -0.575  16.473  1.00  0.00     0.169 HD
BRANCH  14  16
HETATM   16  C11 UNK     1      19.167   0.161  18.192  1.00  0.00     0.052 A 
HETATM   17  C13 UNK     1      19.421  -0.400  19.420  1.00  0.00     0.145 A 
HETATM   18  N2  UNK     1      19.440   0.312  20.569  1.00  0.00    -0.271 NA
HETATM   19  C15 UNK     1      19.192   1.636  20.458  1.00  0.00     0.116 A 
HETATM   20  C14 UNK     1      18.927   2.279  19.260  1.00  0.00     0.021 A 
HETATM   21  C12 UNK     1      18.916   1.513  18.100  1.00  0.00     0.032 A 
ENDBRANCH  14  16
ENDBRANCH   5  12
TORSDOF 2
ENDMDL
MODEL 8
REMARK VINA RESULT:      -8.2      2.169      7.699
REMARK  2 active torsions:
REMARK  status: ('A' for Active; 'I' for Inactive)
REMARK    1  A    between atoms: C11_16  and  N1_4 
REMARK       I    between atoms: C7_12  and  N1_4 
REMARK    2  A    between atoms: C3_8  and  C7_12 
ROOT
HETATM    1  O1  UNK     1      17.294   6.198  34.357  1.00  0.00    -0.274 OA
HETATM    2  O2  UNK     1      18.616   4.357  34.061  1.00  0.00    -0.259 OA
HETATM    3  C1  UNK     1      16.553   7.468  32.422  1.00  0.00    -0.001 A 
HETATM    4  C2  UNK     1      16.579   7.275  33.800  1.00  0.00     0.089 A 
HETATM    5  C3  UNK     1      17.953   5.516  32.104  1.00  0.00     0.108 A 
HETATM    6  C4  UNK     1      17.276   6.539  31.567  1.00  0.00     0.037 A 
HETATM    7  C5  UNK     1      15.832   8.547  31.906  1.00  0.00     0.014 A 
HETATM    8  C6  UNK     1      17.995   5.292  33.565  1.00  0.00     0.304 A 
HETATM    9  C8  UNK     1      15.909   8.129  34.672  1.00  0.00     0.038 A 
HETATM   10  C9  UNK     1      15.154   9.412  32.769  1.00  0.00     0.001 A 
HETATM   11  C10 UNK     1      15.193   9.203  34.150  1.00  0.00     0.003 A 
ENDROOT
BRANCH   5  12
HETATM   12  C7  UNK     1      18.651   4.634  31.160  1.00  0.00     0.262 C 
HETATM   13  O3  UNK     1      19.611   5.061  30.521  1.00  0.00    -0.267 OA
HETATM   14  N1  UNK     1      18.091   3.364  31.118  1.00  0.00    -0.321 N 
HETATM   15  H5  UNK     1      17.278   3.174  31.699  1.00  0.00     0.169 HD
BRANCH  14  16
HETATM   16  C11 UNK     1      18.502   2.264  30.326  1.00  0.00     0.052 A 
HETATM   17  C13 UNK     1      18.074   2.150  29.026  1.00  0.00     0.145 A 
HETATM   18  N2  UNK     1      18.429   1.127  28.218  1.00  0.00    -0.271 NA
HETATM   19  C15 UNK     1      19.245   0.193  28.755  1.00  0.00     0.116 A 
HETATM   20  C14 UNK     1      19.722   0.234  30.055  1.00  0.00     0.021 A 
HETATM   21  C12 UNK     1      19.335   1.302  30.856  1.00  0.00     0.032 A 
ENDBRANCH  14  16
ENDBRANCH   5  12
TORSDOF 2
ENDMDL
MODEL 9
REMARK VINA RESULT:      -8.2      8.078     11.122
REMARK  2 active torsions:
REMARK  status: ('A' for Active; 'I' for Inactive)
REMARK    1  A    between atoms: C11_16  and  N1_4 
REMARK       I    between atoms: C7_12  and  N1_4 
REMARK    2  A    between atoms: C3_8  and  C7_12 
ROOT
HETATM    1  O1  UNK     1      19.700  -0.966  34.823  1.00  0.00    -0.274 OA
HETATM    2  O2  UNK     1      20.822  -2.821  34.101  1.00  0.00    -0.259 OA
HETATM    3  C1  UNK     1      18.506  -1.032  36.939  1.00  0.00    -0.001 A 
HETATM    4  C2  UNK     1      18.900  -0.340  35.798  1.00  0.00     0.089 A 
HETATM    5  C3  UNK     1      19.695  -3.001  36.178  1.00  0.00     0.108 A 
HETATM    6  C4  UNK     1      18.933  -2.412  37.108  1.00  0.00     0.037 A 
HETATM    7  C5  UNK     1      17.712  -0.377  37.885  1.00  0.00     0.014 A 
HETATM    8  C6  UNK     1      20.126  -2.284  34.957  1.00  0.00     0.304 A 
HETATM    9  C8  UNK     1      18.523   0.983  35.576  1.00  0.00     0.038 A 
HETATM   10  C9  UNK     1      17.327   0.950  37.675  1.00  0.00     0.001 A 
HETATM   11  C10 UNK     1      17.732   1.628  36.523  1.00  0.00     0.003 A 
ENDROOT
BRANCH   5  12
HETATM   12  C7  UNK     1      20.075  -4.395  36.438  1.00  0.00     0.262 C 
HETATM   13  O3  UNK     1      20.114  -5.201  35.509  1.00  0.00    -0.267 OA
HETATM   14  N1  UNK     1      20.350  -4.621  37.780  1.00  0.00    -0.321 N 
HETATM   15  H5  UNK     1      20.250  -3.847  38.432  1.00  0.00     0.169 HD
BRANCH  14  16
HETATM   16  C11 UNK     1      20.744  -5.838  38.388  1.00  0.00     0.052 A 
HETATM   17  C13 UNK     1      22.074  -6.175  38.462  1.00  0.00     0.145 A 
HETATM   18  N2  UNK     1      22.516  -7.320  39.028  1.00  0.00    -0.271 NA
HETATM   19  C15 UNK     1      21.571  -8.144  39.533  1.00  0.00     0.116 A 
HETATM   20  C14 UNK     1      20.211  -7.879  39.500  1.00  0.00     0.021 A 
HETATM   21  C12 UNK     1      19.795  -6.691  38.909  1.00  0.00     0.032 A 
ENDBRANCH  14  16
ENDBRANCH   5  12
TORSDOF 2
ENDMDL
MODEL 10
REMARK VINA RESULT:      -8.1     13.477     16.683
REMARK  2 active torsions:
REMARK  status: ('A' for Active; 'I' for Inactive)
REMARK    1  A    between atoms: C11_16  and  N1_4 
REMARK       I    between atoms: C7_12  and  N1_4 
REMARK    2  A    between atoms: C3_8  and  C7_12 
ROOT
HETATM    1  O1  UNK     1      19.380   2.131  17.481  1.00  0.00    -0.274 OA
HETATM    2  O2  UNK     1      19.175   1.713  15.243  1.00  0.00    -0.259 OA
HETATM    3  C1  UNK     1      19.243   0.291  19.063  1.00  0.00    -0.001 A 
HETATM    4  C2  UNK     1      19.405   1.648  18.803  1.00  0.00     0.089 A 
HETATM    5  C3  UNK     1      19.025  -0.156  16.692  1.00  0.00     0.108 A 
HETATM    6  C4  UNK     1      19.047  -0.621  17.947  1.00  0.00     0.037 A 
HETATM    7  C5  UNK     1      19.273  -0.150  20.389  1.00  0.00     0.014 A 
HETATM    8  C6  UNK     1      19.196   1.283  16.392  1.00  0.00     0.304 A 
HETATM    9  C8  UNK     1      19.595   2.573  19.827  1.00  0.00     0.038 A 
HETATM   10  C9  UNK     1      19.464   0.766  21.426  1.00  0.00     0.001 A 
HETATM   11  C10 UNK     1      19.624   2.126  21.146  1.00  0.00     0.003 A 
ENDROOT
BRANCH   5  12
HETATM   12  C7  UNK     1      18.821  -1.154  15.634  1.00  0.00     0.262 C 
HETATM   13  O3  UNK     1      18.052  -2.095  15.822  1.00  0.00    -0.267 OA
HETATM   14  N1  UNK     1      19.574  -0.876  14.501  1.00  0.00    -0.321 N 
HETATM   15  H5  UNK     1      20.183  -0.062  14.512  1.00  0.00     0.169 HD
BRANCH  14  16
HETATM   16  C11 UNK     1      19.628  -1.619  13.296  1.00  0.00     0.052 A 
HETATM   17  C13 UNK     1      19.010  -1.144  12.165  1.00  0.00     0.145 A 
HETATM   18  N2  UNK     1      19.023  -1.802  10.984  1.00  0.00    -0.271 NA
HETATM   19  C15 UNK     1      19.685  -2.980  10.960  1.00  0.00     0.116 A 
HETATM   20  C14 UNK     1      20.334  -3.528  12.055  1.00  0.00     0.021 A 
HETATM   21  C12 UNK     1      20.299  -2.822  13.252  1.00  0.00     0.032 A 
ENDBRANCH  14  16
ENDBRANCH   5  12
TORSDOF 2
ENDMDL
