MODEL 1
REMARK VINA RESULT:      -9.5      0.000      0.000
REMARK  4 active torsions:
REMARK  status: ('A' for Active; 'I' for Inactive)
REMARK    1  A    between atoms: C17_22  and  O2_2 
REMARK    2  A    between atoms: C6_11  and  O2_2 
REMARK    3  A    between atoms: C5_10  and  N1_5 
REMARK       I    between atoms: C7_12  and  N1_5 
REMARK    4  A    between atoms: C2_7  and  C7_12 
ROOT
HETATM    1  O3  UNK     1      25.639  -8.788  39.443  1.00  0.00    -0.267 OA
HETATM    2  N1  UNK     1      25.956  -8.809  37.110  1.00  0.00    -0.320 N 
HETATM    3  C7  UNK     1      26.160  -8.370  38.411  1.00  0.00     0.262 C 
HETATM    4  H2  UNK     1      26.454  -8.342  36.356  1.00  0.00     0.169 HD
ENDROOT
BRANCH   2   5
HETATM    5  C5  UNK     1      25.096  -9.846  36.673  1.00  0.00     0.069 A 
HETATM    6  C11 UNK     1      25.629 -11.106  36.460  1.00  0.00     0.032 A 
HETATM    7  C15 UNK     1      24.794 -12.137  36.029  1.00  0.00     0.002 A 
HETATM    8  C16 UNK     1      23.437 -11.893  35.817  1.00  0.00     0.003 A 
HETATM    9  C12 UNK     1      22.915 -10.618  36.036  1.00  0.00     0.039 A 
HETATM   10  C6  UNK     1      23.751  -9.587  36.467  1.00  0.00     0.102 A 
BRANCH  10  11
HETATM   11  O2  UNK     1      23.221  -8.348  36.676  1.00  0.00    -0.309 OA
BRANCH  11  12
HETATM   12  C17 UNK     1      22.098  -8.258  37.479  1.00  0.00     0.076 A 
HETATM   13  C18 UNK     1      22.225  -8.459  38.842  1.00  0.00     0.037 A 
HETATM   14  C20 UNK     1      21.093  -8.370  39.652  1.00  0.00     0.003 A 
HETATM   15  C22 UNK     1      19.851  -8.082  39.085  1.00  0.00     0.000 A 
HETATM   16  C21 UNK     1      19.742  -7.883  37.708  1.00  0.00     0.003 A 
HETATM   17  C19 UNK     1      20.875  -7.972  36.899  1.00  0.00     0.037 A 
ENDBRANCH  11  12
ENDBRANCH  10  11
ENDBRANCH   2   5
BRANCH   3  18
HETATM   18  C2  UNK     1      27.132  -7.273  38.479  1.00  0.00     0.108 A 
HETATM   19  C4  UNK     1      28.420  -7.615  38.356  1.00  0.00     0.037 A 
HETATM   20  C1  UNK     1      29.457  -6.598  38.412  1.00  0.00    -0.001 A 
HETATM   21  C3  UNK     1      29.089  -5.269  38.595  1.00  0.00     0.089 A 
HETATM   22  C8  UNK     1      30.814  -6.910  38.288  1.00  0.00     0.014 A 
HETATM   23  C10 UNK     1      30.034  -4.248  38.658  1.00  0.00     0.038 A 
HETATM   24  O1  UNK     1      27.732  -4.915  38.725  1.00  0.00    -0.274 OA
HETATM   25  C14 UNK     1      31.384  -4.567  38.533  1.00  0.00     0.003 A 
HETATM   26  C13 UNK     1      31.774  -5.895  38.349  1.00  0.00     0.001 A 
HETATM   27  C9  UNK     1      26.717  -5.865  38.675  1.00  0.00     0.304 A 
HETATM   28  O4  UNK     1      25.538  -5.548  38.790  1.00  0.00    -0.259 OA
ENDBRANCH   3  18
TORSDOF 4
ENDMDL
MODEL 2
REMARK VINA RESULT:      -9.2      6.775      9.899
REMARK  4 active torsions:
REMARK  status: ('A' for Active; 'I' for Inactive)
REMARK    1  A    between atoms: C17_22  and  O2_2 
REMARK    2  A    between atoms: C6_11  and  O2_2 
REMARK    3  A    between atoms: C5_10  and  N1_5 
REMARK       I    between atoms: C7_12  and  N1_5 
REMARK    4  A    between atoms: C2_7  and  C7_12 
ROOT
HETATM    1  O3  UNK     1      20.988  -3.866  37.818  1.00  0.00    -0.267 OA
HETATM    2  N1  UNK     1      18.968  -3.745  36.613  1.00  0.00    -0.320 N 
HETATM    3  C7  UNK     1      20.054  -4.378  37.204  1.00  0.00     0.262 C 
HETATM    4  H2  UNK     1      18.283  -4.314  36.120  1.00  0.00     0.169 HD
ENDROOT
BRANCH   2   5
HETATM    5  C5  UNK     1      18.687  -2.357  36.584  1.00  0.00     0.069 A 
HETATM    6  C11 UNK     1      17.681  -1.866  37.399  1.00  0.00     0.032 A 
HETATM    7  C15 UNK     1      17.392  -0.501  37.381  1.00  0.00     0.002 A 
HETATM    8  C16 UNK     1      18.115   0.353  36.549  1.00  0.00     0.003 A 
HETATM    9  C12 UNK     1      19.126  -0.157  35.734  1.00  0.00     0.039 A 
HETATM   10  C6  UNK     1      19.414  -1.522  35.752  1.00  0.00     0.102 A 
BRANCH  10  11
HETATM   11  O2  UNK     1      20.406  -2.001  34.949  1.00  0.00    -0.309 OA
BRANCH  11  12
HETATM   12  C17 UNK     1      20.188  -1.988  33.583  1.00  0.00     0.076 A 
HETATM   13  C18 UNK     1      21.046  -2.690  32.756  1.00  0.00     0.037 A 
HETATM   14  C20 UNK     1      20.827  -2.677  31.378  1.00  0.00     0.003 A 
HETATM   15  C22 UNK     1      19.753  -1.959  30.851  1.00  0.00     0.000 A 
HETATM   16  C21 UNK     1      18.898  -1.257  31.700  1.00  0.00     0.003 A 
HETATM   17  C19 UNK     1      19.118  -1.271  33.077  1.00  0.00     0.037 A 
ENDBRANCH  11  12
ENDBRANCH  10  11
ENDBRANCH   2   5
BRANCH   3  18
HETATM   18  C2  UNK     1      20.007  -5.834  37.032  1.00  0.00     0.108 A 
HETATM   19  C4  UNK     1      19.849  -6.557  38.147  1.00  0.00     0.037 A 
HETATM   20  C1  UNK     1      19.793  -8.008  38.079  1.00  0.00    -0.001 A 
HETATM   21  C3  UNK     1      19.904  -8.629  36.840  1.00  0.00     0.089 A 
HETATM   22  C8  UNK     1      19.629  -8.801  39.218  1.00  0.00     0.014 A 
HETATM   23  C10 UNK     1      19.858 -10.015  36.706  1.00  0.00     0.038 A 
HETATM   24  O1  UNK     1      20.071  -7.863  35.669  1.00  0.00    -0.274 OA
HETATM   25  C14 UNK     1      19.695 -10.798  37.846  1.00  0.00     0.003 A 
HETATM   26  C13 UNK     1      19.581 -10.194  39.100  1.00  0.00     0.001 A 
HETATM   27  C9  UNK     1      20.128  -6.473  35.702  1.00  0.00     0.304 A 
HETATM   28  O4  UNK     1      20.274  -5.815  34.678  1.00  0.00    -0.259 OA
ENDBRANCH   3  18
TORSDOF 4
ENDMDL
MODEL 3
REMARK VINA RESULT:      -9.2     12.676     14.657
REMARK  4 active torsions:
REMARK  status: ('A' for Active; 'I' for Inactive)
REMARK    1  A    between atoms: C17_22  and  O2_2 
REMARK    2  A    between atoms: C6_11  and  O2_2 
REMARK    3  A    between atoms: C5_10  and  N1_5 
REMARK       I    between atoms: C7_12  and  N1_5 
REMARK    4  A    between atoms: C2_7  and  C7_12 
ROOT
HETATM    1  O3  UNK     1      17.052   2.584  30.543  1.00  0.00    -0.267 OA
HETATM    2  N1  UNK     1      19.357   2.220  30.861  1.00  0.00    -0.320 N 
HETATM    3  C7  UNK     1      18.171   2.941  30.904  1.00  0.00     0.262 C 
HETATM    4  H2  UNK     1      20.211   2.668  31.183  1.00  0.00     0.169 HD
ENDROOT
BRANCH   2   5
HETATM    5  C5  UNK     1      19.547   0.899  30.387  1.00  0.00     0.069 A 
HETATM    6  C11 UNK     1      19.477   0.666  29.023  1.00  0.00     0.032 A 
HETATM    7  C15 UNK     1      19.661  -0.630  28.541  1.00  0.00     0.002 A 
HETATM    8  C16 UNK     1      19.914  -1.675  29.429  1.00  0.00     0.003 A 
HETATM    9  C12 UNK     1      19.981  -1.424  30.800  1.00  0.00     0.039 A 
HETATM   10  C6  UNK     1      19.797  -0.128  31.282  1.00  0.00     0.102 A 
BRANCH  10  11
HETATM   11  O2  UNK     1      19.867   0.096  32.625  1.00  0.00    -0.309 OA
BRANCH  11  12
HETATM   12  C17 UNK     1      18.686   0.060  33.344  1.00  0.00     0.076 A 
HETATM   13  C18 UNK     1      17.957  -1.114  33.386  1.00  0.00     0.037 A 
HETATM   14  C20 UNK     1      16.765  -1.151  34.109  1.00  0.00     0.003 A 
HETATM   15  C22 UNK     1      16.321  -0.011  34.779  1.00  0.00     0.000 A 
HETATM   16  C21 UNK     1      17.069   1.166  34.725  1.00  0.00     0.003 A 
HETATM   17  C19 UNK     1      18.261   1.201  34.001  1.00  0.00     0.037 A 
ENDBRANCH  11  12
ENDBRANCH  10  11
ENDBRANCH   2   5
BRANCH   3  18
HETATM   18  C2  UNK     1      18.361   4.284  31.465  1.00  0.00     0.108 A 
HETATM   19  C4  UNK     1      17.691   4.554  32.592  1.00  0.00     0.037 A 
HETATM   20  C1  UNK     1      17.813   5.859  33.223  1.00  0.00    -0.001 A 
HETATM   21  C3  UNK     1      18.635   6.816  32.637  1.00  0.00     0.089 A 
HETATM   22  C8  UNK     1      17.133   6.184  34.400  1.00  0.00     0.014 A 
HETATM   23  C10 UNK     1      18.795   8.084  33.191  1.00  0.00     0.038 A 
HETATM   24  O1  UNK     1      19.337   6.526  31.451  1.00  0.00    -0.274 OA
HETATM   25  C14 UNK     1      18.113   8.400  34.364  1.00  0.00     0.003 A 
HETATM   26  C13 UNK     1      17.284   7.453  34.967  1.00  0.00     0.001 A 
HETATM   27  C9  UNK     1      19.240   5.287  30.824  1.00  0.00     0.304 A 
HETATM   28  O4  UNK     1      19.855   5.044  29.791  1.00  0.00    -0.259 OA
ENDBRANCH   3  18
TORSDOF 4
ENDMDL
MODEL 4
REMARK VINA RESULT:      -8.9     11.776     13.899
REMARK  4 active torsions:
REMARK  status: ('A' for Active; 'I' for Inactive)
REMARK    1  A    between atoms: C17_22  and  O2_2 
REMARK    2  A    between atoms: C6_11  and  O2_2 
REMARK    3  A    between atoms: C5_10  and  N1_5 
REMARK       I    between atoms: C7_12  and  N1_5 
REMARK    4  A    between atoms: C2_7  and  C7_12 
ROOT
HETATM    1  O3  UNK     1      17.549   2.152  30.169  1.00  0.00    -0.267 OA
HETATM    2  N1  UNK     1      19.271   1.405  31.592  1.00  0.00    -0.320 N 
HETATM    3  C7  UNK     1      18.275   2.268  31.155  1.00  0.00     0.262 C 
HETATM    4  H2  UNK     1      19.801   1.656  32.424  1.00  0.00     0.169 HD
ENDROOT
BRANCH   2   5
HETATM    5  C5  UNK     1      19.680   0.186  30.998  1.00  0.00     0.069 A 
HETATM    6  C11 UNK     1      20.531   0.233  29.906  1.00  0.00     0.032 A 
HETATM    7  C15 UNK     1      20.942  -0.959  29.309  1.00  0.00     0.002 A 
HETATM    8  C16 UNK     1      20.497  -2.181  29.813  1.00  0.00     0.003 A 
HETATM    9  C12 UNK     1      19.641  -2.211  30.914  1.00  0.00     0.039 A 
HETATM   10  C6  UNK     1      19.230  -1.019  31.511  1.00  0.00     0.102 A 
BRANCH  10  11
HETATM   11  O2  UNK     1      18.393  -1.070  32.586  1.00  0.00    -0.309 OA
BRANCH  11  12
HETATM   12  C17 UNK     1      18.941  -1.421  33.808  1.00  0.00     0.076 A 
HETATM   13  C18 UNK     1      20.065  -2.225  33.837  1.00  0.00     0.037 A 
HETATM   14  C20 UNK     1      20.616  -2.580  35.068  1.00  0.00     0.003 A 
HETATM   15  C22 UNK     1      20.033  -2.125  36.251  1.00  0.00     0.000 A 
HETATM   16  C21 UNK     1      18.898  -1.314  36.202  1.00  0.00     0.003 A 
HETATM   17  C19 UNK     1      18.348  -0.960  34.970  1.00  0.00     0.037 A 
ENDBRANCH  11  12
ENDBRANCH  10  11
ENDBRANCH   2   5
BRANCH   3  18
HETATM   18  C2  UNK     1      18.131   3.436  32.031  1.00  0.00     0.108 A 
HETATM   19  C4  UNK     1      17.937   4.612  31.423  1.00  0.00     0.037 A 
HETATM   20  C1  UNK     1      17.785   5.827  32.206  1.00  0.00    -0.001 A 
HETATM   21  C3  UNK     1      17.844   5.746  33.593  1.00  0.00     0.089 A 
HETATM   22  C8  UNK     1      17.580   7.076  31.613  1.00  0.00     0.014 A 
HETATM   23  C10 UNK     1      17.705   6.872  34.401  1.00  0.00     0.038 A 
HETATM   24  O1  UNK     1      18.049   4.505  34.229  1.00  0.00    -0.274 OA
HETATM   25  C14 UNK     1      17.502   8.113  33.802  1.00  0.00     0.003 A 
HETATM   26  C13 UNK     1      17.439   8.216  32.411  1.00  0.00     0.001 A 
HETATM   27  C9  UNK     1      18.198   3.326  33.506  1.00  0.00     0.304 A 
HETATM   28  O4  UNK     1      18.377   2.250  34.068  1.00  0.00    -0.259 OA
ENDBRANCH   3  18
TORSDOF 4
ENDMDL
MODEL 5
REMARK VINA RESULT:      -8.9     33.210     35.682
REMARK  4 active torsions:
REMARK  status: ('A' for Active; 'I' for Inactive)
REMARK    1  A    between atoms: C17_22  and  O2_2 
REMARK    2  A    between atoms: C6_11  and  O2_2 
REMARK    3  A    between atoms: C5_10  and  N1_5 
REMARK       I    between atoms: C7_12  and  N1_5 
REMARK    4  A    between atoms: C2_7  and  C7_12 
ROOT
HETATM    1  O3  UNK     1       7.160   4.156   8.285  1.00  0.00    -0.267 OA
HETATM    2  N1  UNK     1       8.710   5.699   9.158  1.00  0.00    -0.320 N 
HETATM    3  C7  UNK     1       7.600   4.866   9.187  1.00  0.00     0.262 C 
HETATM    4  H2  UNK     1       8.933   6.241   9.989  1.00  0.00     0.169 HD
ENDROOT
BRANCH   2   5
HETATM    5  C5  UNK     1       9.594   5.922   8.074  1.00  0.00     0.069 A 
HETATM    6  C11 UNK     1       9.059   6.158   6.818  1.00  0.00     0.032 A 
HETATM    7  C15 UNK     1       9.917   6.378   5.741  1.00  0.00     0.002 A 
HETATM    8  C16 UNK     1      11.298   6.362   5.934  1.00  0.00     0.003 A 
HETATM    9  C12 UNK     1      11.821   6.124   7.205  1.00  0.00     0.039 A 
HETATM   10  C6  UNK     1      10.963   5.903   8.283  1.00  0.00     0.102 A 
BRANCH  10  11
HETATM   11  O2  UNK     1      11.495   5.673   9.517  1.00  0.00    -0.309 OA
BRANCH  11  12
HETATM   12  C17 UNK     1      12.796   6.087   9.742  1.00  0.00     0.076 A 
HETATM   13  C18 UNK     1      13.818   5.158   9.689  1.00  0.00     0.037 A 
HETATM   14  C20 UNK     1      15.130   5.574   9.918  1.00  0.00     0.003 A 
HETATM   15  C22 UNK     1      15.397   6.915  10.196  1.00  0.00     0.000 A 
HETATM   16  C21 UNK     1      14.352   7.838  10.246  1.00  0.00     0.003 A 
HETATM   17  C19 UNK     1      13.041   7.421  10.017  1.00  0.00     0.037 A 
ENDBRANCH  11  12
ENDBRANCH  10  11
ENDBRANCH   2   5
BRANCH   3  18
HETATM   18  C2  UNK     1       6.925   4.889  10.490  1.00  0.00     0.108 A 
HETATM   19  C4  UNK     1       6.372   3.738  10.890  1.00  0.00     0.037 A 
HETATM   20  C1  UNK     1       5.679   3.662  12.166  1.00  0.00    -0.001 A 
HETATM   21  C3  UNK     1       5.602   4.801  12.960  1.00  0.00     0.089 A 
HETATM   22  C8  UNK     1       5.087   2.482  12.624  1.00  0.00     0.014 A 
HETATM   23  C10 UNK     1       4.954   4.795  14.193  1.00  0.00     0.038 A 
HETATM   24  O1  UNK     1       6.186   6.011  12.534  1.00  0.00    -0.274 OA
HETATM   25  C14 UNK     1       4.366   3.615  14.641  1.00  0.00     0.003 A 
HETATM   26  C13 UNK     1       4.432   2.460  13.859  1.00  0.00     0.001 A 
HETATM   27  C9  UNK     1       6.856   6.115  11.318  1.00  0.00     0.304 A 
HETATM   28  O4  UNK     1       7.360   7.171  10.955  1.00  0.00    -0.259 OA
ENDBRANCH   3  18
TORSDOF 4
ENDMDL
MODEL 6
REMARK VINA RESULT:      -8.8      7.197     10.311
REMARK  4 active torsions:
REMARK  status: ('A' for Active; 'I' for Inactive)
REMARK    1  A    between atoms: C17_22  and  O2_2 
REMARK    2  A    between atoms: C6_11  and  O2_2 
REMARK    3  A    between atoms: C5_10  and  N1_5 
REMARK       I    between atoms: C7_12  and  N1_5 
REMARK    4  A    between atoms: C2_7  and  C7_12 
ROOT
HETATM    1  O3  UNK     1      21.435  -1.952  35.322  1.00  0.00    -0.267 OA
HETATM    2  N1  UNK     1      19.774  -2.738  33.849  1.00  0.00    -0.320 N 
HETATM    3  C7  UNK     1      20.558  -2.749  34.995  1.00  0.00     0.262 C 
HETATM    4  H2  UNK     1      19.099  -3.487  33.714  1.00  0.00     0.169 HD
ENDROOT
BRANCH   2   5
HETATM    5  C5  UNK     1      19.807  -1.799  32.789  1.00  0.00     0.069 A 
HETATM    6  C11 UNK     1      20.859  -1.850  31.889  1.00  0.00     0.032 A 
HETATM    7  C15 UNK     1      20.906  -0.931  30.841  1.00  0.00     0.002 A 
HETATM    8  C16 UNK     1      19.899   0.025  30.706  1.00  0.00     0.003 A 
HETATM    9  C12 UNK     1      18.847   0.063  31.620  1.00  0.00     0.039 A 
HETATM   10  C6  UNK     1      18.800  -0.856  32.669  1.00  0.00     0.102 A 
BRANCH  10  11
HETATM   11  O2  UNK     1      17.762  -0.803  33.552  1.00  0.00    -0.309 OA
BRANCH  11  12
HETATM   12  C17 UNK     1      17.906   0.010  34.662  1.00  0.00     0.076 A 
HETATM   13  C18 UNK     1      18.224   1.344  34.485  1.00  0.00     0.037 A 
HETATM   14  C20 UNK     1      18.371   2.164  35.604  1.00  0.00     0.003 A 
HETATM   15  C22 UNK     1      18.198   1.635  36.883  1.00  0.00     0.000 A 
HETATM   16  C21 UNK     1      17.877   0.287  37.043  1.00  0.00     0.003 A 
HETATM   17  C19 UNK     1      17.731  -0.532  35.923  1.00  0.00     0.037 A 
ENDBRANCH  11  12
ENDBRANCH  10  11
ENDBRANCH   2   5
BRANCH   3  18
HETATM   18  C2  UNK     1      20.238  -3.881  35.873  1.00  0.00     0.108 A 
HETATM   19  C4  UNK     1      20.101  -5.071  35.278  1.00  0.00     0.037 A 
HETATM   20  C1  UNK     1      19.782  -6.252  36.064  1.00  0.00    -0.001 A 
HETATM   21  C3  UNK     1      19.624  -6.123  37.440  1.00  0.00     0.089 A 
HETATM   22  C8  UNK     1      19.630  -7.515  35.484  1.00  0.00     0.014 A 
HETATM   23  C10 UNK     1      19.319  -7.215  38.249  1.00  0.00     0.038 A 
HETATM   24  O1  UNK     1      19.770  -4.867  38.061  1.00  0.00    -0.274 OA
HETATM   25  C14 UNK     1      19.168  -8.469  37.664  1.00  0.00     0.003 A 
HETATM   26  C13 UNK     1      19.323  -8.620  36.284  1.00  0.00     0.001 A 
HETATM   27  C9  UNK     1      20.074  -3.719  37.336  1.00  0.00     0.304 A 
HETATM   28  O4  UNK     1      20.198  -2.630  37.885  1.00  0.00    -0.259 OA
ENDBRANCH   3  18
TORSDOF 4
ENDMDL
MODEL 7
REMARK VINA RESULT:      -8.7      7.179     10.679
REMARK  4 active torsions:
REMARK  status: ('A' for Active; 'I' for Inactive)
REMARK    1  A    between atoms: C17_22  and  O2_2 
REMARK    2  A    between atoms: C6_11  and  O2_2 
REMARK    3  A    between atoms: C5_10  and  N1_5 
REMARK       I    between atoms: C7_12  and  N1_5 
REMARK    4  A    between atoms: C2_7  and  C7_12 
ROOT
HETATM    1  O3  UNK     1      21.421  -1.950  35.610  1.00  0.00    -0.267 OA
HETATM    2  N1  UNK     1      19.066  -1.963  35.638  1.00  0.00    -0.320 N 
HETATM    3  C7  UNK     1      20.337  -2.516  35.729  1.00  0.00     0.262 C 
HETATM    4  H2  UNK     1      18.261  -2.575  35.743  1.00  0.00     0.169 HD
ENDROOT
BRANCH   2   5
HETATM    5  C5  UNK     1      18.729  -0.611  35.383  1.00  0.00     0.069 A 
HETATM    6  C11 UNK     1      18.853   0.309  36.411  1.00  0.00     0.032 A 
HETATM    7  C15 UNK     1      18.524   1.644  36.176  1.00  0.00     0.002 A 
HETATM    8  C16 UNK     1      18.077   2.041  34.916  1.00  0.00     0.003 A 
HETATM    9  C12 UNK     1      17.958   1.102  33.891  1.00  0.00     0.039 A 
HETATM   10  C6  UNK     1      18.287  -0.233  34.126  1.00  0.00     0.102 A 
BRANCH  10  11
HETATM   11  O2  UNK     1      18.165  -1.135  33.111  1.00  0.00    -0.309 OA
BRANCH  11  12
HETATM   12  C17 UNK     1      19.034  -1.017  32.041  1.00  0.00     0.076 A 
HETATM   13  C18 UNK     1      19.207   0.219  31.445  1.00  0.00     0.037 A 
HETATM   14  C20 UNK     1      20.082   0.338  30.365  1.00  0.00     0.003 A 
HETATM   15  C22 UNK     1      20.769  -0.782  29.898  1.00  0.00     0.000 A 
HETATM   16  C21 UNK     1      20.582  -2.021  30.511  1.00  0.00     0.003 A 
HETATM   17  C19 UNK     1      19.707  -2.139  31.591  1.00  0.00     0.037 A 
ENDBRANCH  11  12
ENDBRANCH  10  11
ENDBRANCH   2   5
BRANCH   3  18
HETATM   18  C2  UNK     1      20.294  -3.956  36.008  1.00  0.00     0.108 A 
HETATM   19  C4  UNK     1      20.195  -4.307  37.295  1.00  0.00     0.037 A 
HETATM   20  C1  UNK     1      20.148  -5.711  37.671  1.00  0.00    -0.001 A 
HETATM   21  C3  UNK     1      20.207  -6.678  36.673  1.00  0.00     0.089 A 
HETATM   22  C8  UNK     1      20.044  -6.122  39.003  1.00  0.00     0.014 A 
HETATM   23  C10 UNK     1      20.167  -8.039  36.967  1.00  0.00     0.038 A 
HETATM   24  O1  UNK     1      20.313  -6.303  35.319  1.00  0.00    -0.274 OA
HETATM   25  C14 UNK     1      20.063  -8.441  38.296  1.00  0.00     0.003 A 
HETATM   26  C13 UNK     1      20.002  -7.485  39.313  1.00  0.00     0.001 A 
HETATM   27  C9  UNK     1      20.360  -4.968  34.929  1.00  0.00     0.304 A 
HETATM   28  O4  UNK     1      20.452  -4.651  33.748  1.00  0.00    -0.259 OA
ENDBRANCH   3  18
TORSDOF 4
ENDMDL
MODEL 8
REMARK VINA RESULT:      -8.7      7.440     10.802
REMARK  4 active torsions:
REMARK  status: ('A' for Active; 'I' for Inactive)
REMARK    1  A    between atoms: C17_22  and  O2_2 
REMARK    2  A    between atoms: C6_11  and  O2_2 
REMARK    3  A    between atoms: C5_10  and  N1_5 
REMARK       I    between atoms: C7_12  and  N1_5 
REMARK    4  A    between atoms: C2_7  and  C7_12 
ROOT
HETATM    1  O3  UNK     1      21.162  -1.982  34.630  1.00  0.00    -0.267 OA
HETATM    2  N1  UNK     1      19.089  -1.521  35.648  1.00  0.00    -0.320 N 
HETATM    3  C7  UNK     1      20.207  -2.286  35.342  1.00  0.00     0.262 C 
HETATM    4  H2  UNK     1      18.370  -1.927  36.243  1.00  0.00     0.169 HD
ENDROOT
BRANCH   2   5
HETATM    5  C5  UNK     1      18.793  -0.208  35.206  1.00  0.00     0.069 A 
HETATM    6  C11 UNK     1      18.915   0.838  36.105  1.00  0.00     0.032 A 
HETATM    7  C15 UNK     1      18.626   2.137  35.685  1.00  0.00     0.002 A 
HETATM    8  C16 UNK     1      18.221   2.370  34.371  1.00  0.00     0.003 A 
HETATM    9  C12 UNK     1      18.103   1.305  33.478  1.00  0.00     0.039 A 
HETATM   10  C6  UNK     1      18.391   0.007  33.898  1.00  0.00     0.102 A 
BRANCH  10  11
HETATM   11  O2  UNK     1      18.271  -1.020  33.010  1.00  0.00    -0.309 OA
BRANCH  11  12
HETATM   12  C17 UNK     1      19.099  -1.009  31.901  1.00  0.00     0.076 A 
HETATM   13  C18 UNK     1      19.677  -2.192  31.479  1.00  0.00     0.037 A 
HETATM   14  C20 UNK     1      20.513  -2.182  30.362  1.00  0.00     0.003 A 
HETATM   15  C22 UNK     1      20.758  -0.986  29.687  1.00  0.00     0.000 A 
HETATM   16  C21 UNK     1      20.166   0.198  30.127  1.00  0.00     0.003 A 
HETATM   17  C19 UNK     1      19.330   0.186  31.244  1.00  0.00     0.037 A 
ENDBRANCH  11  12
ENDBRANCH  10  11
ENDBRANCH   2   5
BRANCH   3  18
HETATM   18  C2  UNK     1      20.171  -3.603  35.988  1.00  0.00     0.108 A 
HETATM   19  C4  UNK     1      20.219  -4.663  35.173  1.00  0.00     0.037 A 
HETATM   20  C1  UNK     1      20.186  -6.010  35.720  1.00  0.00    -0.001 A 
HETATM   21  C3  UNK     1      20.105  -6.176  37.098  1.00  0.00     0.089 A 
HETATM   22  C8  UNK     1      20.234  -7.146  34.907  1.00  0.00     0.014 A 
HETATM   23  C10 UNK     1      20.070  -7.439  37.685  1.00  0.00     0.038 A 
HETATM   24  O1  UNK     1      20.054  -5.056  37.952  1.00  0.00    -0.274 OA
HETATM   25  C14 UNK     1      20.118  -8.565  36.868  1.00  0.00     0.003 A 
HETATM   26  C13 UNK     1      20.200  -8.420  35.481  1.00  0.00     0.001 A 
HETATM   27  C9  UNK     1      20.084  -3.755  37.459  1.00  0.00     0.304 A 
HETATM   28  O4  UNK     1      20.038  -2.786  38.209  1.00  0.00    -0.259 OA
ENDBRANCH   3  18
TORSDOF 4
ENDMDL
MODEL 9
REMARK VINA RESULT:      -8.7     33.201     35.789
REMARK  4 active torsions:
REMARK  status: ('A' for Active; 'I' for Inactive)
REMARK    1  A    between atoms: C17_22  and  O2_2 
REMARK    2  A    between atoms: C6_11  and  O2_2 
REMARK    3  A    between atoms: C5_10  and  N1_5 
REMARK       I    between atoms: C7_12  and  N1_5 
REMARK    4  A    between atoms: C2_7  and  C7_12 
ROOT
HETATM    1  O3  UNK     1       6.855   7.058   9.114  1.00  0.00    -0.267 OA
HETATM    2  N1  UNK     1       8.551   5.430   8.968  1.00  0.00    -0.320 N 
HETATM    3  C7  UNK     1       7.383   6.002   9.456  1.00  0.00     0.262 C 
HETATM    4  H2  UNK     1       8.869   4.553   9.374  1.00  0.00     0.169 HD
ENDROOT
BRANCH   2   5
HETATM    5  C5  UNK     1       9.405   5.938   7.959  1.00  0.00     0.069 A 
HETATM    6  C11 UNK     1       8.923   6.026   6.664  1.00  0.00     0.032 A 
HETATM    7  C15 UNK     1       9.752   6.523   5.659  1.00  0.00     0.002 A 
HETATM    8  C16 UNK     1      11.052   6.927   5.963  1.00  0.00     0.003 A 
HETATM    9  C12 UNK     1      11.523   6.832   7.273  1.00  0.00     0.039 A 
HETATM   10  C6  UNK     1      10.693   6.335   8.278  1.00  0.00     0.102 A 
BRANCH  10  11
HETATM   11  O2  UNK     1      11.172   6.251   9.552  1.00  0.00    -0.309 OA
BRANCH  11  12
HETATM   12  C17 UNK     1      12.542   6.335   9.729  1.00  0.00     0.076 A 
HETATM   13  C18 UNK     1      13.316   5.204   9.546  1.00  0.00     0.037 A 
HETATM   14  C20 UNK     1      14.697   5.288   9.726  1.00  0.00     0.003 A 
HETATM   15  C22 UNK     1      15.280   6.503  10.087  1.00  0.00     0.000 A 
HETATM   16  C21 UNK     1      14.483   7.633  10.269  1.00  0.00     0.003 A 
HETATM   17  C19 UNK     1      13.102   7.548  10.088  1.00  0.00     0.037 A 
ENDBRANCH  11  12
ENDBRANCH  10  11
ENDBRANCH   2   5
BRANCH   3  18
HETATM   18  C2  UNK     1       6.762   5.183  10.504  1.00  0.00     0.108 A 
HETATM   19  C4  UNK     1       6.583   5.776  11.690  1.00  0.00     0.037 A 
HETATM   20  C1  UNK     1       5.976   5.045  12.791  1.00  0.00    -0.001 A 
HETATM   21  C3  UNK     1       5.587   3.725  12.590  1.00  0.00     0.089 A 
HETATM   22  C8  UNK     1       5.770   5.624  14.046  1.00  0.00     0.014 A 
HETATM   23  C10 UNK     1       5.000   2.970  13.603  1.00  0.00     0.038 A 
HETATM   24  O1  UNK     1       5.779   3.106  11.339  1.00  0.00    -0.274 OA
HETATM   25  C14 UNK     1       4.799   3.555  14.851  1.00  0.00     0.003 A 
HETATM   26  C13 UNK     1       5.182   4.879  15.073  1.00  0.00     0.001 A 
HETATM   27  C9  UNK     1       6.356   3.779  10.266  1.00  0.00     0.304 A 
HETATM   28  O4  UNK     1       6.520   3.232   9.181  1.00  0.00    -0.259 OA
ENDBRANCH   3  18
TORSDOF 4
ENDMDL
MODEL 10
REMARK VINA RESULT:      -8.6      8.745     11.500
REMARK  4 active torsions:
REMARK  status: ('A' for Active; 'I' for Inactive)
REMARK    1  A    between atoms: C17_22  and  O2_2 
REMARK    2  A    between atoms: C6_11  and  O2_2 
REMARK    3  A    between atoms: C5_10  and  N1_5 
REMARK       I    between atoms: C7_12  and  N1_5 
REMARK    4  A    between atoms: C2_7  and  C7_12 
ROOT
HETATM    1  O3  UNK     1      22.055  -2.118  33.240  1.00  0.00    -0.267 OA
HETATM    2  N1  UNK     1      19.811  -2.522  33.831  1.00  0.00    -0.320 N 
HETATM    3  C7  UNK     1      20.847  -2.076  33.020  1.00  0.00     0.262 C 
HETATM    4  H2  UNK     1      18.854  -2.396  33.510  1.00  0.00     0.169 HD
ENDROOT
BRANCH   2   5
HETATM    5  C5  UNK     1      19.914  -3.130  35.105  1.00  0.00     0.069 A 
HETATM    6  C11 UNK     1      20.086  -4.503  35.174  1.00  0.00     0.032 A 
HETATM    7  C15 UNK     1      20.187  -5.117  36.423  1.00  0.00     0.002 A 
HETATM    8  C16 UNK     1      20.117  -4.350  37.585  1.00  0.00     0.003 A 
HETATM    9  C12 UNK     1      19.944  -2.968  37.499  1.00  0.00     0.039 A 
HETATM   10  C6  UNK     1      19.842  -2.354  36.250  1.00  0.00     0.102 A 
BRANCH  10  11
HETATM   11  O2  UNK     1      19.674  -1.003  36.187  1.00  0.00    -0.309 OA
BRANCH  11  12
HETATM   12  C17 UNK     1      18.380  -0.515  36.228  1.00  0.00     0.076 A 
HETATM   13  C18 UNK     1      17.553  -0.704  35.135  1.00  0.00     0.037 A 
HETATM   14  C20 UNK     1      16.249  -0.211  35.174  1.00  0.00     0.003 A 
HETATM   15  C22 UNK     1      15.793   0.464  36.307  1.00  0.00     0.000 A 
HETATM   16  C21 UNK     1      16.641   0.645  37.400  1.00  0.00     0.003 A 
HETATM   17  C19 UNK     1      17.945   0.152  37.359  1.00  0.00     0.037 A 
ENDBRANCH  11  12
ENDBRANCH  10  11
ENDBRANCH   2   5
BRANCH   3  18
HETATM   18  C2  UNK     1      20.356  -1.500  31.762  1.00  0.00     0.108 A 
HETATM   19  C4  UNK     1      19.779  -0.295  31.849  1.00  0.00     0.037 A 
HETATM   20  C1  UNK     1      19.260   0.356  30.657  1.00  0.00    -0.001 A 
HETATM   21  C3  UNK     1      19.373  -0.291  29.432  1.00  0.00     0.089 A 
HETATM   22  C8  UNK     1      18.651   1.614  30.701  1.00  0.00     0.014 A 
HETATM   23  C10 UNK     1      18.896   0.279  28.253  1.00  0.00     0.038 A 
HETATM   24  O1  UNK     1      19.980  -1.560  29.347  1.00  0.00    -0.274 OA
HETATM   25  C14 UNK     1      18.291   1.532  28.306  1.00  0.00     0.003 A 
HETATM   26  C13 UNK     1      18.168   2.198  29.526  1.00  0.00     0.001 A 
HETATM   27  C9  UNK     1      20.486  -2.209  30.469  1.00  0.00     0.304 A 
HETATM   28  O4  UNK     1      21.013  -3.313  30.385  1.00  0.00    -0.259 OA
ENDBRANCH   3  18
TORSDOF 4
ENDMDL
