MODEL 1
REMARK VINA RESULT:      -9.4      0.000      0.000
REMARK  3 active torsions:
REMARK  status: ('A' for Active; 'I' for Inactive)
REMARK    1  A    between atoms: C5_13  and  O2_5 
REMARK    2  A    between atoms: C10_18  and  N1_8 
REMARK       I    between atoms: C8_16  and  N1_8 
REMARK    3  A    between atoms: C3_11  and  C8_16 
ROOT
HETATM    1  O1  UNK     1      19.285  -1.240  34.384  1.00  0.00    -0.271 OA
HETATM    2  O4  UNK     1      20.588  -3.039  33.847  1.00  0.00    -0.259 OA
HETATM    3  C1  UNK     1      18.372  -1.046  36.628  1.00  0.00     0.002 A 
HETATM    4  C2  UNK     1      18.518  -0.545  35.338  1.00  0.00     0.123 A 
HETATM    5  C3  UNK     1      19.752  -2.955  36.063  1.00  0.00     0.108 A 
HETATM    6  C4  UNK     1      19.025  -2.299  36.974  1.00  0.00     0.037 A 
HETATM    7  C5  UNK     1      17.919   0.649  34.943  1.00  0.00     0.102 A 
HETATM    8  C6  UNK     1      17.604  -0.327  37.548  1.00  0.00     0.014 A 
HETATM    9  C7  UNK     1      19.922  -2.441  34.685  1.00  0.00     0.304 A 
HETATM   10  C9  UNK     1      17.154   1.359  35.865  1.00  0.00     0.040 A 
HETATM   11  C11 UNK     1      16.997   0.872  37.165  1.00  0.00     0.004 A 
ENDROOT
BRANCH   5  12
HETATM   12  C8  UNK     1      20.371  -4.209  36.508  1.00  0.00     0.262 C 
HETATM   13  O3  UNK     1      21.396  -4.178  37.186  1.00  0.00    -0.267 OA
HETATM   14  N1  UNK     1      19.668  -5.324  36.071  1.00  0.00    -0.321 N 
HETATM   15  H5  UNK     1      18.842  -5.183  35.494  1.00  0.00     0.169 HD
BRANCH  14  16
HETATM   16  C10 UNK     1      19.972  -6.686  36.309  1.00  0.00     0.058 A 
HETATM   17  C12 UNK     1      20.414  -7.504  35.282  1.00  0.00     0.062 A 
HETATM   18 Cl1  UNK     1      20.618  -6.924  33.668  1.00  0.00    -0.082 Cl
HETATM   19  C15 UNK     1      20.709  -8.841  35.551  1.00  0.00     0.051 A 
HETATM   20  C16 UNK     1      20.558  -9.342  36.844  1.00  0.00     0.057 A 
HETATM   21  C14 UNK     1      20.111  -8.507  37.867  1.00  0.00     0.058 A 
HETATM   22 Cl3  UNK     1      20.940 -11.006  37.114  1.00  0.00    -0.082 Cl
HETATM   23  C13 UNK     1      19.817  -7.170  37.599  1.00  0.00     0.057 A 
HETATM   24 Cl2  UNK     1      19.903  -9.069  39.489  1.00  0.00    -0.082 Cl
ENDBRANCH  14  16
ENDBRANCH   5  12
BRANCH   7  25
HETATM   25  O2  UNK     1      18.069   1.127  33.678  1.00  0.00    -0.353 OA
HETATM   26  C17 UNK     1      18.166   2.542  33.525  1.00  0.00     0.210 C 
ENDBRANCH   7  25
TORSDOF 3
ENDMDL
MODEL 2
REMARK VINA RESULT:      -9.3      7.388     11.820
REMARK  3 active torsions:
REMARK  status: ('A' for Active; 'I' for Inactive)
REMARK    1  A    between atoms: C5_13  and  O2_5 
REMARK    2  A    between atoms: C10_18  and  N1_8 
REMARK       I    between atoms: C8_16  and  N1_8 
REMARK    3  A    between atoms: C3_11  and  C8_16 
ROOT
HETATM    1  O1  UNK     1      18.733   0.691  32.641  1.00  0.00    -0.271 OA
HETATM    2  O4  UNK     1      17.929   2.537  33.720  1.00  0.00    -0.259 OA
HETATM    3  C1  UNK     1      19.483   0.879  30.337  1.00  0.00     0.002 A 
HETATM    4  C2  UNK     1      19.271   0.110  31.477  1.00  0.00     0.123 A 
HETATM    5  C3  UNK     1      18.630   2.838  31.477  1.00  0.00     0.108 A 
HETATM    6  C4  UNK     1      19.141   2.293  30.368  1.00  0.00     0.037 A 
HETATM    7  C5  UNK     1      19.578  -1.249  31.512  1.00  0.00     0.102 A 
HETATM    8  C6  UNK     1      20.020   0.267  29.200  1.00  0.00     0.014 A 
HETATM    9  C7  UNK     1      18.396   2.040  32.701  1.00  0.00     0.304 A 
HETATM   10  C9  UNK     1      20.111  -1.851  30.375  1.00  0.00     0.040 A 
HETATM   11  C11 UNK     1      20.332  -1.095  29.221  1.00  0.00     0.004 A 
ENDROOT
BRANCH   5  12
HETATM   12  C8  UNK     1      18.317   4.271  31.410  1.00  0.00     0.262 C 
HETATM   13  O3  UNK     1      18.256   4.832  30.318  1.00  0.00    -0.267 OA
HETATM   14  N1  UNK     1      18.123   4.824  32.668  1.00  0.00    -0.321 N 
HETATM   15  H5  UNK     1      18.231   4.227  33.484  1.00  0.00     0.169 HD
BRANCH  14  16
HETATM   16  C10 UNK     1      17.809   6.169  32.982  1.00  0.00     0.058 A 
HETATM   17  C12 UNK     1      18.811   7.106  33.170  1.00  0.00     0.062 A 
HETATM   18 Cl1  UNK     1      20.486   6.701  33.036  1.00  0.00    -0.082 Cl
HETATM   19  C15 UNK     1      18.468   8.425  33.474  1.00  0.00     0.051 A 
HETATM   20  C16 UNK     1      17.125   8.786  33.587  1.00  0.00     0.057 A 
HETATM   21  C14 UNK     1      16.128   7.831  33.397  1.00  0.00     0.058 A 
HETATM   22 Cl3  UNK     1      16.763  10.433  33.966  1.00  0.00    -0.082 Cl
HETATM   23  C13 UNK     1      16.471   6.514  33.092  1.00  0.00     0.057 A 
HETATM   24 Cl2  UNK     1      14.447   8.218  33.524  1.00  0.00    -0.082 Cl
ENDBRANCH  14  16
ENDBRANCH   5  12
BRANCH   7  25
HETATM   25  O2  UNK     1      19.365  -1.989  32.633  1.00  0.00    -0.353 OA
HETATM   26  C17 UNK     1      20.517  -2.451  33.336  1.00  0.00     0.210 C 
ENDBRANCH   7  25
TORSDOF 3
ENDMDL
MODEL 3
REMARK VINA RESULT:      -9.0      2.397      3.603
REMARK  3 active torsions:
REMARK  status: ('A' for Active; 'I' for Inactive)
REMARK    1  A    between atoms: C5_13  and  O2_5 
REMARK    2  A    between atoms: C10_18  and  N1_8 
REMARK       I    between atoms: C8_16  and  N1_8 
REMARK    3  A    between atoms: C3_11  and  C8_16 
ROOT
HETATM    1  O1  UNK     1      18.824  -0.291  33.891  1.00  0.00    -0.271 OA
HETATM    2  O4  UNK     1      18.441  -0.638  36.118  1.00  0.00    -0.259 OA
HETATM    3  C1  UNK     1      20.135  -1.905  32.633  1.00  0.00     0.002 A 
HETATM    4  C2  UNK     1      19.405  -0.721  32.684  1.00  0.00     0.123 A 
HETATM    5  C3  UNK     1      19.732  -2.276  34.992  1.00  0.00     0.108 A 
HETATM    6  C4  UNK     1      20.287  -2.690  33.848  1.00  0.00     0.037 A 
HETATM    7  C5  UNK     1      19.223   0.076  31.556  1.00  0.00     0.102 A 
HETATM    8  C6  UNK     1      20.696  -2.300  31.415  1.00  0.00     0.014 A 
HETATM    9  C7  UNK     1      18.952  -1.021  35.070  1.00  0.00     0.304 A 
HETATM   10  C9  UNK     1      19.786  -0.324  30.346  1.00  0.00     0.040 A 
HETATM   11  C11 UNK     1      20.521  -1.510  30.276  1.00  0.00     0.004 A 
ENDROOT
BRANCH   5  12
HETATM   12  C8  UNK     1      19.942  -3.136  36.163  1.00  0.00     0.262 C 
HETATM   13  O3  UNK     1      20.275  -2.636  37.236  1.00  0.00    -0.267 OA
HETATM   14  N1  UNK     1      19.722  -4.476  35.875  1.00  0.00    -0.321 N 
HETATM   15  H5  UNK     1      19.470  -4.734  34.924  1.00  0.00     0.169 HD
BRANCH  14  16
HETATM   16  C10 UNK     1      19.832  -5.579  36.756  1.00  0.00     0.058 A 
HETATM   17  C12 UNK     1      18.739  -6.387  37.022  1.00  0.00     0.062 A 
HETATM   18 Cl1  UNK     1      17.192  -6.104  36.306  1.00  0.00    -0.082 Cl
HETATM   19  C15 UNK     1      18.882  -7.468  37.892  1.00  0.00     0.051 A 
HETATM   20  C16 UNK     1      20.118  -7.727  38.485  1.00  0.00     0.057 A 
HETATM   21  C14 UNK     1      21.209  -6.904  38.209  1.00  0.00     0.058 A 
HETATM   22 Cl3  UNK     1      20.232  -9.081  39.553  1.00  0.00    -0.082 Cl
HETATM   23  C13 UNK     1      21.066  -5.823  37.339  1.00  0.00     0.057 A 
HETATM   24 Cl2  UNK     1      22.765  -7.172  38.914  1.00  0.00    -0.082 Cl
ENDBRANCH  14  16
ENDBRANCH   5  12
BRANCH   7  25
HETATM   25  O2  UNK     1      18.507   1.232  31.619  1.00  0.00    -0.353 OA
HETATM   26  C17 UNK     1      18.623   2.130  30.516  1.00  0.00     0.210 C 
ENDBRANCH   7  25
TORSDOF 3
ENDMDL
MODEL 4
REMARK VINA RESULT:      -8.9      1.257      1.437
REMARK  3 active torsions:
REMARK  status: ('A' for Active; 'I' for Inactive)
REMARK    1  A    between atoms: C5_13  and  O2_5 
REMARK    2  A    between atoms: C10_18  and  N1_8 
REMARK       I    between atoms: C8_16  and  N1_8 
REMARK    3  A    between atoms: C3_11  and  C8_16 
ROOT
HETATM    1  O1  UNK     1      19.464  -1.229  34.197  1.00  0.00    -0.271 OA
HETATM    2  O4  UNK     1      20.584  -3.179  33.788  1.00  0.00    -0.259 OA
HETATM    3  C1  UNK     1      18.523  -0.824  36.401  1.00  0.00     0.002 A 
HETATM    4  C2  UNK     1      18.751  -0.409  35.092  1.00  0.00     0.123 A 
HETATM    5  C3  UNK     1      19.708  -2.893  35.971  1.00  0.00     0.108 A 
HETATM    6  C4  UNK     1      19.031  -2.118  36.827  1.00  0.00     0.037 A 
HETATM    7  C5  UNK     1      18.291   0.819  34.621  1.00  0.00     0.102 A 
HETATM    8  C6  UNK     1      17.812   0.017  37.261  1.00  0.00     0.014 A 
HETATM    9  C7  UNK     1      19.964  -2.472  34.576  1.00  0.00     0.304 A 
HETATM   10  C9  UNK     1      17.583   1.652  35.485  1.00  0.00     0.040 A 
HETATM   11  C11 UNK     1      17.344   1.252  36.802  1.00  0.00     0.004 A 
ENDROOT
BRANCH   5  12
HETATM   12  C8  UNK     1      20.180  -4.180  36.495  1.00  0.00     0.262 C 
HETATM   13  O3  UNK     1      21.083  -4.205  37.328  1.00  0.00    -0.267 OA
HETATM   14  N1  UNK     1      19.497  -5.254  35.940  1.00  0.00    -0.321 N 
HETATM   15  H5  UNK     1      18.783  -5.067  35.240  1.00  0.00     0.169 HD
BRANCH  14  16
HETATM   16  C10 UNK     1      19.687  -6.631  36.209  1.00  0.00     0.058 A 
HETATM   17  C12 UNK     1      18.608  -7.497  36.273  1.00  0.00     0.062 A 
HETATM   18 Cl1  UNK     1      16.983  -6.960  36.035  1.00  0.00    -0.082 Cl
HETATM   19  C15 UNK     1      18.830  -8.849  36.536  1.00  0.00     0.051 A 
HETATM   20  C16 UNK     1      20.130  -9.317  36.731  1.00  0.00     0.057 A 
HETATM   21  C14 UNK     1      21.206  -8.433  36.665  1.00  0.00     0.058 A 
HETATM   22 Cl3  UNK     1      20.340 -11.002  37.053  1.00  0.00    -0.082 Cl
HETATM   23  C13 UNK     1      20.984  -7.081  36.401  1.00  0.00     0.057 A 
HETATM   24 Cl2  UNK     1      22.838  -8.952  36.899  1.00  0.00    -0.082 Cl
ENDBRANCH  14  16
ENDBRANCH   5  12
BRANCH   7  25
HETATM   25  O2  UNK     1      18.522   1.212  33.340  1.00  0.00    -0.353 OA
HETATM   26  C17 UNK     1      18.097   2.525  32.975  1.00  0.00     0.210 C 
ENDBRANCH   7  25
TORSDOF 3
ENDMDL
MODEL 5
REMARK VINA RESULT:      -8.8      7.565     11.985
REMARK  3 active torsions:
REMARK  status: ('A' for Active; 'I' for Inactive)
REMARK    1  A    between atoms: C5_13  and  O2_5 
REMARK    2  A    between atoms: C10_18  and  N1_8 
REMARK       I    between atoms: C8_16  and  N1_8 
REMARK    3  A    between atoms: C3_11  and  C8_16 
ROOT
HETATM    1  O1  UNK     1      18.629   1.002  32.703  1.00  0.00    -0.271 OA
HETATM    2  O4  UNK     1      17.944   2.899  33.777  1.00  0.00    -0.259 OA
HETATM    3  C1  UNK     1      19.437   1.143  30.415  1.00  0.00     0.002 A 
HETATM    4  C2  UNK     1      19.145   0.387  31.546  1.00  0.00     0.123 A 
HETATM    5  C3  UNK     1      18.710   3.156  31.550  1.00  0.00     0.108 A 
HETATM    6  C4  UNK     1      19.200   2.578  30.447  1.00  0.00     0.037 A 
HETATM    7  C5  UNK     1      19.348  -0.991  31.580  1.00  0.00     0.102 A 
HETATM    8  C6  UNK     1      19.948   0.498  29.286  1.00  0.00     0.014 A 
HETATM    9  C7  UNK     1      18.393   2.373  32.765  1.00  0.00     0.304 A 
HETATM   10  C9  UNK     1      19.858  -1.627  30.450  1.00  0.00     0.040 A 
HETATM   11  C11 UNK     1      20.157  -0.884  29.305  1.00  0.00     0.004 A 
ENDROOT
BRANCH   5  12
HETATM   12  C8  UNK     1      18.505   4.608  31.484  1.00  0.00     0.262 C 
HETATM   13  O3  UNK     1      18.375   5.157  30.393  1.00  0.00    -0.267 OA
HETATM   14  N1  UNK     1      18.489   5.192  32.744  1.00  0.00    -0.321 N 
HETATM   15  H5  UNK     1      18.635   4.599  33.557  1.00  0.00     0.169 HD
BRANCH  14  16
HETATM   16  C10 UNK     1      18.317   6.562  33.059  1.00  0.00     0.058 A 
HETATM   17  C12 UNK     1      17.101   7.191  32.850  1.00  0.00     0.062 A 
HETATM   18 Cl1  UNK     1      15.736   6.358  32.198  1.00  0.00    -0.082 Cl
HETATM   19  C15 UNK     1      16.964   8.541  33.175  1.00  0.00     0.051 A 
HETATM   20  C16 UNK     1      18.046   9.244  33.705  1.00  0.00     0.057 A 
HETATM   21  C14 UNK     1      19.265   8.597  33.910  1.00  0.00     0.058 A 
HETATM   22 Cl3  UNK     1      17.814  10.913  34.089  1.00  0.00    -0.082 Cl
HETATM   23  C13 UNK     1      19.402   7.247  33.585  1.00  0.00     0.057 A 
HETATM   24 Cl2  UNK     1      20.641   9.414  34.562  1.00  0.00    -0.082 Cl
ENDBRANCH  14  16
ENDBRANCH   5  12
BRANCH   7  25
HETATM   25  O2  UNK     1      19.059  -1.718  32.693  1.00  0.00    -0.353 OA
HETATM   26  C17 UNK     1      20.161  -2.235  33.437  1.00  0.00     0.210 C 
ENDBRANCH   7  25
TORSDOF 3
ENDMDL
MODEL 6
REMARK VINA RESULT:      -8.7     18.195     20.380
REMARK  3 active torsions:
REMARK  status: ('A' for Active; 'I' for Inactive)
REMARK    1  A    between atoms: C5_13  and  O2_5 
REMARK    2  A    between atoms: C10_18  and  N1_8 
REMARK       I    between atoms: C8_16  and  N1_8 
REMARK    3  A    between atoms: C3_11  and  C8_16 
ROOT
HETATM    1  O1  UNK     1      19.318   1.769  17.187  1.00  0.00    -0.271 OA
HETATM    2  O4  UNK     1      19.029   0.949  15.073  1.00  0.00    -0.259 OA
HETATM    3  C1  UNK     1      19.260   0.248  19.082  1.00  0.00     0.002 A 
HETATM    4  C2  UNK     1      19.399   1.535  18.573  1.00  0.00     0.123 A 
HETATM    5  C3  UNK     1      18.952  -0.624  16.843  1.00  0.00     0.108 A 
HETATM    6  C4  UNK     1      19.029  -0.853  18.159  1.00  0.00     0.037 A 
HETATM    7  C5  UNK     1      19.622   2.632  19.403  1.00  0.00     0.102 A 
HETATM    8  C6  UNK     1      19.348   0.055  20.464  1.00  0.00     0.014 A 
HETATM    9  C7  UNK     1      19.098   0.736  16.279  1.00  0.00     0.304 A 
HETATM   10  C9  UNK     1      19.708   2.432  20.779  1.00  0.00     0.040 A 
HETATM   11  C11 UNK     1      19.571   1.146  21.308  1.00  0.00     0.004 A 
ENDROOT
BRANCH   5  12
HETATM   12  C8  UNK     1      18.716  -1.798  15.994  1.00  0.00     0.262 C 
HETATM   13  O3  UNK     1      17.671  -2.434  16.109  1.00  0.00    -0.267 OA
HETATM   14  N1  UNK     1      19.775  -2.040  15.129  1.00  0.00    -0.321 N 
HETATM   15  H5  UNK     1      20.587  -1.430  15.172  1.00  0.00     0.169 HD
BRANCH  14  16
HETATM   16  C10 UNK     1      19.892  -3.081  14.176  1.00  0.00     0.058 A 
HETATM   17  C12 UNK     1      19.577  -2.862  12.845  1.00  0.00     0.062 A 
HETATM   18 Cl1  UNK     1      19.029  -1.328  12.270  1.00  0.00    -0.082 Cl
HETATM   19  C15 UNK     1      19.707  -3.908  11.930  1.00  0.00     0.051 A 
HETATM   20  C16 UNK     1      20.149  -5.159  12.360  1.00  0.00     0.057 A 
HETATM   21  C14 UNK     1      20.460  -5.364  13.703  1.00  0.00     0.058 A 
HETATM   22 Cl3  UNK     1      20.289  -6.414  11.179  1.00  0.00    -0.082 Cl
HETATM   23  C13 UNK     1      20.331  -4.319  14.618  1.00  0.00     0.057 A 
HETATM   24 Cl2  UNK     1      21.012  -6.892  14.296  1.00  0.00    -0.082 Cl
ENDBRANCH  14  16
ENDBRANCH   5  12
BRANCH   7  25
HETATM   25  O2  UNK     1      19.756   3.885  18.892  1.00  0.00    -0.353 OA
HETATM   26  C17 UNK     1      21.056   4.272  18.448  1.00  0.00     0.210 C 
ENDBRANCH   7  25
TORSDOF 3
ENDMDL
MODEL 7
REMARK VINA RESULT:      -8.7      3.486      8.195
REMARK  3 active torsions:
REMARK  status: ('A' for Active; 'I' for Inactive)
REMARK    1  A    between atoms: C5_13  and  O2_5 
REMARK    2  A    between atoms: C10_18  and  N1_8 
REMARK       I    between atoms: C8_16  and  N1_8 
REMARK    3  A    between atoms: C3_11  and  C8_16 
ROOT
HETATM    1  O1  UNK     1      20.288  -7.422  35.865  1.00  0.00    -0.271 OA
HETATM    2  O4  UNK     1      20.333  -5.466  34.685  1.00  0.00    -0.259 OA
HETATM    3  C1  UNK     1      20.116  -7.358  38.289  1.00  0.00     0.002 A 
HETATM    4  C2  UNK     1      20.213  -8.084  37.106  1.00  0.00     0.123 A 
HETATM    5  C3  UNK     1      20.165  -5.283  37.041  1.00  0.00     0.108 A 
HETATM    6  C4  UNK     1      20.094  -5.905  38.223  1.00  0.00     0.037 A 
HETATM    7  C5  UNK     1      20.239  -9.477  37.100  1.00  0.00     0.102 A 
HETATM    8  C6  UNK     1      20.043  -8.050  39.501  1.00  0.00     0.014 A 
HETATM    9  C7  UNK     1      20.268  -6.033  35.770  1.00  0.00     0.304 A 
HETATM   10  C9  UNK     1      20.167 -10.160  38.312  1.00  0.00     0.040 A 
HETATM   11  C11 UNK     1      20.069  -9.448  39.510  1.00  0.00     0.004 A 
ENDROOT
BRANCH   5  12
HETATM   12  C8  UNK     1      20.135  -3.815  37.079  1.00  0.00     0.262 C 
HETATM   13  O3  UNK     1      20.885  -3.209  37.842  1.00  0.00    -0.267 OA
HETATM   14  N1  UNK     1      19.206  -3.288  36.193  1.00  0.00    -0.321 N 
HETATM   15  H5  UNK     1      18.642  -3.928  35.641  1.00  0.00     0.169 HD
BRANCH  14  16
HETATM   16  C10 UNK     1      18.908  -1.922  35.965  1.00  0.00     0.058 A 
HETATM   17  C12 UNK     1      19.158  -1.337  34.734  1.00  0.00     0.062 A 
HETATM   18 Cl1  UNK     1      19.841  -2.223  33.417  1.00  0.00    -0.082 Cl
HETATM   19  C15 UNK     1      18.849   0.010  34.541  1.00  0.00     0.051 A 
HETATM   20  C16 UNK     1      18.294   0.754  35.583  1.00  0.00     0.057 A 
HETATM   21  C14 UNK     1      18.050   0.152  36.816  1.00  0.00     0.058 A 
HETATM   22 Cl3  UNK     1      17.933   2.417  35.282  1.00  0.00    -0.082 Cl
HETATM   23  C13 UNK     1      18.358  -1.195  37.009  1.00  0.00     0.057 A 
HETATM   24 Cl2  UNK     1      17.365   1.021  38.145  1.00  0.00    -0.082 Cl
ENDBRANCH  14  16
ENDBRANCH   5  12
BRANCH   7  25
HETATM   25  O2  UNK     1      20.335 -10.174  35.936  1.00  0.00    -0.353 OA
HETATM   26  C17 UNK     1      21.622 -10.679  35.583  1.00  0.00     0.210 C 
ENDBRANCH   7  25
TORSDOF 3
ENDMDL
MODEL 8
REMARK VINA RESULT:      -8.5      7.787     11.982
REMARK  3 active torsions:
REMARK  status: ('A' for Active; 'I' for Inactive)
REMARK    1  A    between atoms: C5_13  and  O2_5 
REMARK    2  A    between atoms: C10_18  and  N1_8 
REMARK       I    between atoms: C8_16  and  N1_8 
REMARK    3  A    between atoms: C3_11  and  C8_16 
ROOT
HETATM    1  O1  UNK     1      18.260   1.377  32.106  1.00  0.00    -0.271 OA
HETATM    2  O4  UNK     1      18.208   3.035  30.533  1.00  0.00    -0.259 OA
HETATM    3  C1  UNK     1      18.329   1.962  34.464  1.00  0.00     0.002 A 
HETATM    4  C2  UNK     1      18.302   0.998  33.461  1.00  0.00     0.123 A 
HETATM    5  C3  UNK     1      18.275   3.721  32.800  1.00  0.00     0.108 A 
HETATM    6  C4  UNK     1      18.314   3.368  34.089  1.00  0.00     0.037 A 
HETATM    7  C5  UNK     1      18.314  -0.364  33.753  1.00  0.00     0.102 A 
HETATM    8  C6  UNK     1      18.369   1.547  35.798  1.00  0.00     0.014 A 
HETATM    9  C7  UNK     1      18.245   2.714  31.716  1.00  0.00     0.304 A 
HETATM   10  C9  UNK     1      18.355  -0.770  35.085  1.00  0.00     0.040 A 
HETATM   11  C11 UNK     1      18.382   0.184  36.105  1.00  0.00     0.004 A 
ENDROOT
BRANCH   5  12
HETATM   12  C8  UNK     1      18.264   5.163  32.523  1.00  0.00     0.262 C 
HETATM   13  O3  UNK     1      18.329   5.562  31.362  1.00  0.00    -0.267 OA
HETATM   14  N1  UNK     1      18.176   5.918  33.684  1.00  0.00    -0.321 N 
HETATM   15  H5  UNK     1      18.152   5.435  34.579  1.00  0.00     0.169 HD
BRANCH  14  16
HETATM   16  C10 UNK     1      18.143   7.330  33.797  1.00  0.00     0.058 A 
HETATM   17  C12 UNK     1      16.966   8.030  33.589  1.00  0.00     0.062 A 
HETATM   18 Cl1  UNK     1      15.485   7.239  33.183  1.00  0.00    -0.082 Cl
HETATM   19  C15 UNK     1      16.966   9.421  33.711  1.00  0.00     0.051 A 
HETATM   20  C16 UNK     1      18.145  10.091  34.040  1.00  0.00     0.057 A 
HETATM   21  C14 UNK     1      19.322   9.372  34.245  1.00  0.00     0.058 A 
HETATM   22 Cl3  UNK     1      18.081  11.813  34.178  1.00  0.00    -0.082 Cl
HETATM   23  C13 UNK     1      19.322   7.982  34.124  1.00  0.00     0.057 A 
HETATM   24 Cl2  UNK     1      20.813  10.146  34.654  1.00  0.00    -0.082 Cl
ENDBRANCH  14  16
ENDBRANCH   5  12
BRANCH   7  25
HETATM   25  O2  UNK     1      18.287  -1.296  32.762  1.00  0.00    -0.353 OA
HETATM   26  C17 UNK     1      19.541  -1.693  32.208  1.00  0.00     0.210 C 
ENDBRANCH   7  25
TORSDOF 3
ENDMDL
MODEL 9
REMARK VINA RESULT:      -8.3      3.589      8.328
REMARK  3 active torsions:
REMARK  status: ('A' for Active; 'I' for Inactive)
REMARK    1  A    between atoms: C5_13  and  O2_5 
REMARK    2  A    between atoms: C10_18  and  N1_8 
REMARK       I    between atoms: C8_16  and  N1_8 
REMARK    3  A    between atoms: C3_11  and  C8_16 
ROOT
HETATM    1  O1  UNK     1      20.112  -7.277  35.855  1.00  0.00    -0.271 OA
HETATM    2  O4  UNK     1      20.239  -5.620  34.287  1.00  0.00    -0.259 OA
HETATM    3  C1  UNK     1      20.079  -6.696  38.215  1.00  0.00     0.002 A 
HETATM    4  C2  UNK     1      20.056  -7.658  37.209  1.00  0.00     0.123 A 
HETATM    5  C3  UNK     1      20.215  -4.937  36.556  1.00  0.00     0.108 A 
HETATM    6  C4  UNK     1      20.162  -5.292  37.844  1.00  0.00     0.037 A 
HETATM    7  C5  UNK     1      19.977  -9.019  37.498  1.00  0.00     0.102 A 
HETATM    8  C6  UNK     1      20.020  -7.113  39.548  1.00  0.00     0.014 A 
HETATM    9  C7  UNK     1      20.192  -5.942  35.469  1.00  0.00     0.304 A 
HETATM   10  C9  UNK     1      19.920  -9.426  38.829  1.00  0.00     0.040 A 
HETATM   11  C11 UNK     1      19.941  -8.475  39.852  1.00  0.00     0.004 A 
ENDROOT
BRANCH   5  12
HETATM   12  C8  UNK     1      20.298  -3.497  36.283  1.00  0.00     0.262 C 
HETATM   13  O3  UNK     1      21.321  -2.880  36.571  1.00  0.00    -0.267 OA
HETATM   14  N1  UNK     1      19.136  -3.006  35.704  1.00  0.00    -0.321 N 
HETATM   15  H5  UNK     1      18.362  -3.647  35.547  1.00  0.00     0.169 HD
BRANCH  14  16
HETATM   16  C10 UNK     1      18.863  -1.673  35.310  1.00  0.00     0.058 A 
HETATM   17  C12 UNK     1      18.427  -0.736  36.232  1.00  0.00     0.062 A 
HETATM   18 Cl1  UNK     1      18.190  -1.127  37.898  1.00  0.00    -0.082 Cl
HETATM   19  C15 UNK     1      18.170   0.570  35.812  1.00  0.00     0.051 A 
HETATM   20  C16 UNK     1      18.354   0.920  34.474  1.00  0.00     0.057 A 
HETATM   21  C14 UNK     1      18.792  -0.035  33.557  1.00  0.00     0.058 A 
HETATM   22 Cl3  UNK     1      18.020   2.553  34.015  1.00  0.00    -0.082 Cl
HETATM   23  C13 UNK     1      19.049  -1.340  33.977  1.00  0.00     0.057 A 
HETATM   24 Cl2  UNK     1      19.036   0.338  31.887  1.00  0.00    -0.082 Cl
ENDBRANCH  14  16
ENDBRANCH   5  12
BRANCH   7  25
HETATM   25  O2  UNK     1      19.955  -9.948  36.505  1.00  0.00    -0.353 OA
HETATM   26  C17 UNK     1      21.152 -10.694  36.286  1.00  0.00     0.210 C 
ENDBRANCH   7  25
TORSDOF 3
ENDMDL
MODEL 10
REMARK VINA RESULT:      -8.2      7.249      9.848
REMARK  3 active torsions:
REMARK  status: ('A' for Active; 'I' for Inactive)
REMARK    1  A    between atoms: C5_13  and  O2_5 
REMARK    2  A    between atoms: C10_18  and  N1_8 
REMARK       I    between atoms: C8_16  and  N1_8 
REMARK    3  A    between atoms: C3_11  and  C8_16 
ROOT
HETATM    1  O1  UNK     1      28.061  -5.281  38.471  1.00  0.00    -0.271 OA
HETATM    2  O4  UNK     1      25.786  -5.384  38.668  1.00  0.00    -0.259 OA
HETATM    3  C1  UNK     1      29.358  -7.336  38.459  1.00  0.00     0.002 A 
HETATM    4  C2  UNK     1      29.299  -5.947  38.398  1.00  0.00     0.123 A 
HETATM    5  C3  UNK     1      26.948  -7.449  38.670  1.00  0.00     0.108 A 
HETATM    6  C4  UNK     1      28.121  -8.088  38.600  1.00  0.00     0.037 A 
HETATM    7  C5  UNK     1      30.447  -5.169  38.263  1.00  0.00     0.102 A 
HETATM    8  C6  UNK     1      30.606  -7.961  38.383  1.00  0.00     0.014 A 
HETATM    9  C7  UNK     1      26.860  -5.973  38.606  1.00  0.00     0.304 A 
HETATM   10  C9  UNK     1      31.686  -5.800  38.188  1.00  0.00     0.040 A 
HETATM   11  C11 UNK     1      31.766  -7.193  38.247  1.00  0.00     0.004 A 
ENDROOT
BRANCH   5  12
HETATM   12  C8  UNK     1      25.757  -8.294  38.812  1.00  0.00     0.262 C 
HETATM   13  O3  UNK     1      25.749  -9.203  39.640  1.00  0.00    -0.267 OA
HETATM   14  N1  UNK     1      24.745  -7.926  37.935  1.00  0.00    -0.321 N 
HETATM   15  H5  UNK     1      24.916  -7.159  37.290  1.00  0.00     0.169 HD
BRANCH  14  16
HETATM   16  C10 UNK     1      23.466  -8.517  37.794  1.00  0.00     0.058 A 
HETATM   17  C12 UNK     1      22.448  -8.225  38.687  1.00  0.00     0.062 A 
HETATM   18 Cl1  UNK     1      22.670  -7.139  40.011  1.00  0.00    -0.082 Cl
HETATM   19  C15 UNK     1      21.197  -8.822  38.517  1.00  0.00     0.051 A 
HETATM   20  C16 UNK     1      20.983  -9.702  37.457  1.00  0.00     0.057 A 
HETATM   21  C14 UNK     1      22.019  -9.987  36.567  1.00  0.00     0.058 A 
HETATM   22 Cl3  UNK     1      19.413 -10.408  37.300  1.00  0.00    -0.082 Cl
HETATM   23  C13 UNK     1      23.268  -9.391  36.736  1.00  0.00     0.057 A 
HETATM   24 Cl2  UNK     1      21.815 -11.070  35.235  1.00  0.00    -0.082 Cl
ENDBRANCH  14  16
ENDBRANCH   5  12
BRANCH   7  25
HETATM   25  O2  UNK     1      30.374  -3.811  38.205  1.00  0.00    -0.353 OA
HETATM   26  C17 UNK     1      30.976  -3.176  37.078  1.00  0.00     0.210 C 
ENDBRANCH   7  25
TORSDOF 3
ENDMDL
