MODEL 1
REMARK VINA RESULT:     -10.1      0.000      0.000
REMARK  7 active torsions:
REMARK  status: ('A' for Active; 'I' for Inactive)
REMARK    1  A    between atoms: C1_13  and  N1_9 
REMARK    2  A    between atoms: C3_15  and  N2_10 
REMARK       I    between atoms: C8_20  and  N2_10 
REMARK    3  A    between atoms: C17_29  and  N4_12 
REMARK    4  A    between atoms: C1_13  and  C2_14 
REMARK    5  A    between atoms: C2_14  and  C3_15 
REMARK    6  A    between atoms: C12_24  and  C6_18 
REMARK    7  A    between atoms: C8_20  and  C9_21 
ROOT
HETATM    1  O2  UNK     1      17.377   3.639  31.564  1.00  0.00    -0.267 OA
HETATM    2  N2  UNK     1      19.174   4.518  30.366  1.00  0.00    -0.357 N 
HETATM    3  C8  UNK     1      18.359   3.504  30.836  1.00  0.00     0.257 C 
HETATM    4  H8  UNK     1      19.948   4.306  29.745  1.00  0.00     0.162 HD
ENDROOT
BRANCH   3   5
HETATM    5  C9  UNK     1      18.774   2.175  30.369  1.00  0.00     0.108 A 
HETATM    6  C11 UNK     1      19.288   1.357  31.294  1.00  0.00     0.037 A 
HETATM    7  C10 UNK     1      19.727   0.020  30.927  1.00  0.00     0.001 A 
HETATM    8  C13 UNK     1      19.605  -0.389  29.603  1.00  0.00     0.089 A 
HETATM    9  C15 UNK     1      20.268  -0.868  31.860  1.00  0.00     0.050 A 
HETATM   10  O1  UNK     1      19.065   0.477  28.633  1.00  0.00    -0.274 OA
HETATM   11  C16 UNK     1      20.009  -1.657  29.186  1.00  0.00     0.041 A 
HETATM   12  C14 UNK     1      18.636   1.762  28.954  1.00  0.00     0.304 A 
HETATM   13  O3  UNK     1      18.165   2.509  28.103  1.00  0.00    -0.259 OA
HETATM   14  C18 UNK     1      20.547  -2.537  30.122  1.00  0.00     0.039 A 
HETATM   15  C17 UNK     1      20.676  -2.143  31.457  1.00  0.00     0.103 A 
BRANCH  15  16
HETATM   16  N4  UNK     1      21.226  -3.043  32.408  1.00  0.00    -0.116 N 
HETATM   17  O4  UNK     1      21.518  -2.617  33.551  1.00  0.00    -0.532 OA
HETATM   18  O5  UNK     1      21.407  -4.241  32.078  1.00  0.00    -0.532 OA
ENDBRANCH  15  16
ENDBRANCH   3   5
BRANCH   2  19
HETATM   19  C3  UNK     1      18.962   5.911  30.688  1.00  0.00     0.124 C 
BRANCH  19  20
HETATM   20  C2  UNK     1      19.783   6.359  31.892  1.00  0.00     0.041 C 
BRANCH  20  21
HETATM   21  C1  UNK     1      19.043   6.148  33.214  1.00  0.00     0.152 C 
BRANCH  21  22
HETATM   22  N1  UNK     1      17.902   7.049  33.353  1.00  0.00    -0.274 N 
HETATM   23  C4  UNK     1      17.942   8.337  33.773  1.00  0.00     0.029 A 
HETATM   24  C5  UNK     1      16.639   8.770  33.740  1.00  0.00     0.064 A 
HETATM   25  C7  UNK     1      19.184   9.031  34.161  1.00  0.00     0.070 C 
HETATM   26  C6  UNK     1      15.909   7.655  33.285  1.00  0.00     0.162 A 
HETATM   27  N3  UNK     1      16.684   6.594  33.047  1.00  0.00    -0.168 NA
BRANCH  26  28
HETATM   28  C12 UNK     1      14.457   7.564  33.065  1.00  0.00     0.436 C 
HETATM   29  F1  UNK     1      13.797   6.970  34.100  1.00  0.00    -0.165 F 
HETATM   30  F2  UNK     1      13.860   8.780  32.897  1.00  0.00    -0.165 F 
HETATM   31  F3  UNK     1      14.153   6.837  31.953  1.00  0.00    -0.165 F 
ENDBRANCH  26  28
ENDBRANCH  21  22
ENDBRANCH  20  21
ENDBRANCH  19  20
ENDBRANCH   2  19
TORSDOF 7
ENDMDL
MODEL 2
REMARK VINA RESULT:      -9.9      7.304     11.848
REMARK  7 active torsions:
REMARK  status: ('A' for Active; 'I' for Inactive)
REMARK    1  A    between atoms: C1_13  and  N1_9 
REMARK    2  A    between atoms: C3_15  and  N2_10 
REMARK       I    between atoms: C8_20  and  N2_10 
REMARK    3  A    between atoms: C17_29  and  N4_12 
REMARK    4  A    between atoms: C1_13  and  C2_14 
REMARK    5  A    between atoms: C2_14  and  C3_15 
REMARK    6  A    between atoms: C12_24  and  C6_18 
REMARK    7  A    between atoms: C8_20  and  C9_21 
ROOT
HETATM    1  O2  UNK     1      20.495  -1.546  35.486  1.00  0.00    -0.267 OA
HETATM    2  N2  UNK     1      19.907  -3.742  34.965  1.00  0.00    -0.357 N 
HETATM    3  C8  UNK     1      20.235  -2.430  34.672  1.00  0.00     0.257 C 
HETATM    4  H8  UNK     1      19.733  -4.406  34.217  1.00  0.00     0.162 HD
ENDROOT
BRANCH   3   5
HETATM    5  C9  UNK     1      20.254  -2.156  33.229  1.00  0.00     0.108 A 
HETATM    6  C11 UNK     1      19.717  -0.994  32.841  1.00  0.00     0.037 A 
HETATM    7  C10 UNK     1      19.690  -0.633  31.432  1.00  0.00     0.001 A 
HETATM    8  C13 UNK     1      20.229  -1.515  30.501  1.00  0.00     0.089 A 
HETATM    9  C15 UNK     1      19.140   0.570  30.982  1.00  0.00     0.050 A 
HETATM   10  O1  UNK     1      20.792  -2.738  30.916  1.00  0.00    -0.274 OA
HETATM   11  C16 UNK     1      20.234  -1.230  29.137  1.00  0.00     0.041 A 
HETATM   12  C14 UNK     1      20.833  -3.110  32.257  1.00  0.00     0.304 A 
HETATM   13  O3  UNK     1      21.327  -4.176  32.609  1.00  0.00    -0.259 OA
HETATM   14  C18 UNK     1      19.684  -0.028  28.696  1.00  0.00     0.039 A 
HETATM   15  C17 UNK     1      19.138   0.870  29.617  1.00  0.00     0.103 A 
BRANCH  15  16
HETATM   16  N4  UNK     1      18.578   2.093  29.162  1.00  0.00    -0.116 N 
HETATM   17  O4  UNK     1      17.998   2.120  28.050  1.00  0.00    -0.532 OA
HETATM   18  O5  UNK     1      18.680   3.114  29.885  1.00  0.00    -0.532 OA
ENDBRANCH  15  16
ENDBRANCH   3   5
BRANCH   2  19
HETATM   19  C3  UNK     1      19.827  -4.250  36.316  1.00  0.00     0.124 C 
BRANCH  19  20
HETATM   20  C2  UNK     1      19.380  -5.706  36.362  1.00  0.00     0.041 C 
BRANCH  20  21
HETATM   21  C1  UNK     1      20.287  -6.621  35.537  1.00  0.00     0.152 C 
BRANCH  21  22
HETATM   22  N1  UNK     1      21.258  -7.325  36.371  1.00  0.00    -0.274 N 
HETATM   23  C4  UNK     1      21.801  -8.541  36.119  1.00  0.00     0.029 A 
HETATM   24  C5  UNK     1      22.649  -8.785  37.172  1.00  0.00     0.064 A 
HETATM   25  C7  UNK     1      21.476  -9.350  34.930  1.00  0.00     0.070 C 
HETATM   26  C6  UNK     1      22.530  -7.645  37.991  1.00  0.00     0.162 A 
HETATM   27  N3  UNK     1      21.673  -6.745  37.500  1.00  0.00    -0.168 NA
BRANCH  26  28
HETATM   28  C12 UNK     1      23.224  -7.377  39.261  1.00  0.00     0.436 C 
HETATM   29  F1  UNK     1      24.322  -8.165  39.443  1.00  0.00    -0.165 F 
HETATM   30  F2  UNK     1      23.669  -6.092  39.371  1.00  0.00    -0.165 F 
HETATM   31  F3  UNK     1      22.418  -7.593  40.338  1.00  0.00    -0.165 F 
ENDBRANCH  26  28
ENDBRANCH  21  22
ENDBRANCH  20  21
ENDBRANCH  19  20
ENDBRANCH   2  19
TORSDOF 7
ENDMDL
MODEL 3
REMARK VINA RESULT:      -9.9      7.779     12.145
REMARK  7 active torsions:
REMARK  status: ('A' for Active; 'I' for Inactive)
REMARK    1  A    between atoms: C1_13  and  N1_9 
REMARK    2  A    between atoms: C3_15  and  N2_10 
REMARK       I    between atoms: C8_20  and  N2_10 
REMARK    3  A    between atoms: C17_29  and  N4_12 
REMARK    4  A    between atoms: C1_13  and  C2_14 
REMARK    5  A    between atoms: C2_14  and  C3_15 
REMARK    6  A    between atoms: C12_24  and  C6_18 
REMARK    7  A    between atoms: C8_20  and  C9_21 
ROOT
HETATM    1  O2  UNK     1      21.534  -2.033  35.208  1.00  0.00    -0.267 OA
HETATM    2  N2  UNK     1      19.745  -3.509  34.967  1.00  0.00    -0.357 N 
HETATM    3  C8  UNK     1      20.677  -2.587  34.523  1.00  0.00     0.257 C 
HETATM    4  H8  UNK     1      19.092  -3.932  34.314  1.00  0.00     0.162 HD
ENDROOT
BRANCH   3   5
HETATM    5  C9  UNK     1      20.561  -2.305  33.087  1.00  0.00     0.108 A 
HETATM    6  C11 UNK     1      20.031  -1.122  32.757  1.00  0.00     0.037 A 
HETATM    7  C10 UNK     1      19.875  -0.752  31.359  1.00  0.00     0.001 A 
HETATM    8  C13 UNK     1      20.286  -1.648  30.376  1.00  0.00     0.089 A 
HETATM    9  C15 UNK     1      19.328   0.473  30.969  1.00  0.00     0.050 A 
HETATM   10  O1  UNK     1      20.842  -2.893  30.729  1.00  0.00    -0.274 OA
HETATM   11  C16 UNK     1      20.163  -1.355  29.019  1.00  0.00     0.041 A 
HETATM   12  C14 UNK     1      21.003  -3.274  32.059  1.00  0.00     0.304 A 
HETATM   13  O3  UNK     1      21.490  -4.359  32.357  1.00  0.00    -0.259 OA
HETATM   14  C18 UNK     1      19.617  -0.131  28.638  1.00  0.00     0.039 A 
HETATM   15  C17 UNK     1      19.200   0.781  29.612  1.00  0.00     0.103 A 
BRANCH  15  16
HETATM   16  N4  UNK     1      18.643   2.027  29.219  1.00  0.00    -0.116 N 
HETATM   17  O4  UNK     1      18.041   2.104  28.120  1.00  0.00    -0.532 OA
HETATM   18  O5  UNK     1      18.770   3.017  29.979  1.00  0.00    -0.532 OA
ENDBRANCH  15  16
ENDBRANCH   3   5
BRANCH   2  19
HETATM   19  C3  UNK     1      19.666  -3.948  36.341  1.00  0.00     0.124 C 
BRANCH  19  20
HETATM   20  C2  UNK     1      19.716  -5.466  36.470  1.00  0.00     0.041 C 
BRANCH  20  21
HETATM   21  C1  UNK     1      21.004  -5.952  37.139  1.00  0.00     0.152 C 
BRANCH  21  22
HETATM   22  N1  UNK     1      21.108  -7.408  37.132  1.00  0.00    -0.274 N 
HETATM   23  C4  UNK     1      20.793  -8.242  38.153  1.00  0.00     0.029 A 
HETATM   24  C5  UNK     1      21.054  -9.506  37.683  1.00  0.00     0.064 A 
HETATM   25  C7  UNK     1      20.285  -7.779  39.458  1.00  0.00     0.070 C 
HETATM   26  C6  UNK     1      21.521  -9.304  36.370  1.00  0.00     0.162 A 
HETATM   27  N3  UNK     1      21.556  -8.013  36.028  1.00  0.00    -0.168 NA
BRANCH  26  28
HETATM   28  C12 UNK     1      21.947 -10.329  35.403  1.00  0.00     0.436 C 
HETATM   29  F1  UNK     1      21.212 -11.475  35.483  1.00  0.00    -0.165 F 
HETATM   30  F2  UNK     1      21.848  -9.918  34.105  1.00  0.00    -0.165 F 
HETATM   31  F3  UNK     1      23.246 -10.696  35.587  1.00  0.00    -0.165 F 
ENDBRANCH  26  28
ENDBRANCH  21  22
ENDBRANCH  20  21
ENDBRANCH  19  20
ENDBRANCH   2  19
TORSDOF 7
ENDMDL
MODEL 4
REMARK VINA RESULT:      -9.3      3.033      3.972
REMARK  7 active torsions:
REMARK  status: ('A' for Active; 'I' for Inactive)
REMARK    1  A    between atoms: C1_13  and  N1_9 
REMARK    2  A    between atoms: C3_15  and  N2_10 
REMARK       I    between atoms: C8_20  and  N2_10 
REMARK    3  A    between atoms: C17_29  and  N4_12 
REMARK    4  A    between atoms: C1_13  and  C2_14 
REMARK    5  A    between atoms: C2_14  and  C3_15 
REMARK    6  A    between atoms: C12_24  and  C6_18 
REMARK    7  A    between atoms: C8_20  and  C9_21 
ROOT
HETATM    1  O2  UNK     1      17.846   2.174  29.548  1.00  0.00    -0.267 OA
HETATM    2  N2  UNK     1      19.122   3.702  30.763  1.00  0.00    -0.357 N 
HETATM    3  C8  UNK     1      18.471   2.499  30.557  1.00  0.00     0.257 C 
HETATM    4  H8  UNK     1      19.635   3.865  31.624  1.00  0.00     0.162 HD
ENDROOT
BRANCH   3   5
HETATM    5  C9  UNK     1      18.590   1.582  31.697  1.00  0.00     0.108 A 
HETATM    6  C11 UNK     1      18.115   2.027  32.866  1.00  0.00     0.037 A 
HETATM    7  C10 UNK     1      18.188   1.190  34.053  1.00  0.00     0.001 A 
HETATM    8  C13 UNK     1      18.760  -0.074  33.952  1.00  0.00     0.089 A 
HETATM    9  C15 UNK     1      17.704   1.613  35.294  1.00  0.00     0.050 A 
HETATM   10  O1  UNK     1      19.260  -0.537  32.719  1.00  0.00    -0.274 OA
HETATM   11  C16 UNK     1      18.862  -0.925  35.051  1.00  0.00     0.041 A 
HETATM   12  C14 UNK     1      19.204   0.241  31.566  1.00  0.00     0.304 A 
HETATM   13  O3  UNK     1      19.640  -0.170  30.496  1.00  0.00    -0.259 OA
HETATM   14  C18 UNK     1      18.376  -0.496  36.284  1.00  0.00     0.039 A 
HETATM   15  C17 UNK     1      17.798   0.771  36.405  1.00  0.00     0.103 A 
BRANCH  15  16
HETATM   16  N4  UNK     1      17.304   1.204  37.665  1.00  0.00    -0.116 N 
HETATM   17  O4  UNK     1      16.187   1.772  37.717  1.00  0.00    -0.532 OA
HETATM   18  O5  UNK     1      18.000   1.007  38.690  1.00  0.00    -0.532 OA
ENDBRANCH  15  16
ENDBRANCH   3   5
BRANCH   2  19
HETATM   19  C3  UNK     1      19.148   4.762  29.781  1.00  0.00     0.124 C 
BRANCH  19  20
HETATM   20  C2  UNK     1      19.327   6.136  30.415  1.00  0.00     0.041 C 
BRANCH  20  21
HETATM   21  C1  UNK     1      19.413   6.067  31.942  1.00  0.00     0.152 C 
BRANCH  21  22
HETATM   22  N1  UNK     1      18.333   6.810  32.585  1.00  0.00    -0.274 N 
HETATM   23  C4  UNK     1      18.467   7.740  33.562  1.00  0.00     0.029 A 
HETATM   24  C5  UNK     1      17.189   8.155  33.846  1.00  0.00     0.064 A 
HETATM   25  C7  UNK     1      19.766   8.144  34.131  1.00  0.00     0.070 C 
HETATM   26  C6  UNK     1      16.374   7.404  32.977  1.00  0.00     0.162 A 
HETATM   27  N3  UNK     1      17.076   6.574  32.201  1.00  0.00    -0.168 NA
BRANCH  26  28
HETATM   28  C12 UNK     1      14.907   7.452  32.860  1.00  0.00     0.436 C 
HETATM   29  F1  UNK     1      14.426   6.646  31.869  1.00  0.00    -0.165 F 
HETATM   30  F2  UNK     1      14.263   7.062  33.997  1.00  0.00    -0.165 F 
HETATM   31  F3  UNK     1      14.458   8.707  32.580  1.00  0.00    -0.165 F 
ENDBRANCH  26  28
ENDBRANCH  21  22
ENDBRANCH  20  21
ENDBRANCH  19  20
ENDBRANCH   2  19
TORSDOF 7
ENDMDL
MODEL 5
REMARK VINA RESULT:      -9.3      7.702     11.813
REMARK  7 active torsions:
REMARK  status: ('A' for Active; 'I' for Inactive)
REMARK    1  A    between atoms: C1_13  and  N1_9 
REMARK    2  A    between atoms: C3_15  and  N2_10 
REMARK       I    between atoms: C8_20  and  N2_10 
REMARK    3  A    between atoms: C17_29  and  N4_12 
REMARK    4  A    between atoms: C1_13  and  C2_14 
REMARK    5  A    between atoms: C2_14  and  C3_15 
REMARK    6  A    between atoms: C12_24  and  C6_18 
REMARK    7  A    between atoms: C8_20  and  C9_21 
ROOT
HETATM    1  O2  UNK     1      18.438  -1.210  35.567  1.00  0.00    -0.267 OA
HETATM    2  N2  UNK     1      19.908  -3.017  35.457  1.00  0.00    -0.357 N 
HETATM    3  C8  UNK     1      19.236  -1.917  34.955  1.00  0.00     0.257 C 
HETATM    4  H8  UNK     1      20.570  -3.522  34.877  1.00  0.00     0.162 HD
ENDROOT
BRANCH   3   5
HETATM    5  C9  UNK     1      19.571  -1.636  33.553  1.00  0.00     0.108 A 
HETATM    6  C11 UNK     1      19.025  -0.535  33.023  1.00  0.00     0.037 A 
HETATM    7  C10 UNK     1      19.298  -0.173  31.642  1.00  0.00     0.001 A 
HETATM    8  C13 UNK     1      20.133  -0.989  30.885  1.00  0.00     0.089 A 
HETATM    9  C15 UNK     1      18.750   0.966  31.048  1.00  0.00     0.050 A 
HETATM   10  O1  UNK     1      20.705  -2.147  31.447  1.00  0.00    -0.274 OA
HETATM   11  C16 UNK     1      20.434  -0.699  29.555  1.00  0.00     0.041 A 
HETATM   12  C14 UNK     1      20.462  -2.518  32.767  1.00  0.00     0.304 A 
HETATM   13  O3  UNK     1      20.966  -3.528  33.249  1.00  0.00    -0.259 OA
HETATM   14  C18 UNK     1      19.884   0.440  28.970  1.00  0.00     0.039 A 
HETATM   15  C17 UNK     1      19.043   1.271  29.716  1.00  0.00     0.103 A 
BRANCH  15  16
HETATM   16  N4  UNK     1      18.484   2.430  29.115  1.00  0.00    -0.116 N 
HETATM   17  O4  UNK     1      18.653   3.543  29.668  1.00  0.00    -0.532 OA
HETATM   18  O5  UNK     1      17.834   2.308  28.048  1.00  0.00    -0.532 OA
ENDBRANCH  15  16
ENDBRANCH   3   5
BRANCH   2  19
HETATM   19  C3  UNK     1      19.744  -3.486  36.814  1.00  0.00     0.124 C 
BRANCH  19  20
HETATM   20  C2  UNK     1      19.771  -5.008  36.910  1.00  0.00     0.041 C 
BRANCH  20  21
HETATM   21  C1  UNK     1      21.074  -5.530  37.519  1.00  0.00     0.152 C 
BRANCH  21  22
HETATM   22  N1  UNK     1      20.972  -6.935  37.906  1.00  0.00    -0.274 N 
HETATM   23  C4  UNK     1      21.708  -7.563  38.855  1.00  0.00     0.029 A 
HETATM   24  C5  UNK     1      21.260  -8.861  38.862  1.00  0.00     0.064 A 
HETATM   25  C7  UNK     1      22.750  -6.893  39.655  1.00  0.00     0.070 C 
HETATM   26  C6  UNK     1      20.256  -8.892  37.875  1.00  0.00     0.162 A 
HETATM   27  N3  UNK     1      20.077  -7.708  37.285  1.00  0.00    -0.168 NA
BRANCH  26  28
HETATM   28  C12 UNK     1      19.439 -10.046  37.464  1.00  0.00     0.436 C 
HETATM   29  F1  UNK     1      18.353  -9.690  36.718  1.00  0.00    -0.165 F 
HETATM   30  F2  UNK     1      20.125 -10.950  36.708  1.00  0.00    -0.165 F 
HETATM   31  F3  UNK     1      18.955 -10.736  38.535  1.00  0.00    -0.165 F 
ENDBRANCH  26  28
ENDBRANCH  21  22
ENDBRANCH  20  21
ENDBRANCH  19  20
ENDBRANCH   2  19
TORSDOF 7
ENDMDL
MODEL 6
REMARK VINA RESULT:      -9.3     14.559     18.402
REMARK  7 active torsions:
REMARK  status: ('A' for Active; 'I' for Inactive)
REMARK    1  A    between atoms: C1_13  and  N1_9 
REMARK    2  A    between atoms: C3_15  and  N2_10 
REMARK       I    between atoms: C8_20  and  N2_10 
REMARK    3  A    between atoms: C17_29  and  N4_12 
REMARK    4  A    between atoms: C1_13  and  C2_14 
REMARK    5  A    between atoms: C2_14  and  C3_15 
REMARK    6  A    between atoms: C12_24  and  C6_18 
REMARK    7  A    between atoms: C8_20  and  C9_21 
ROOT
HETATM    1  O2  UNK     1      17.847  -3.342  15.376  1.00  0.00    -0.267 OA
HETATM    2  N2  UNK     1      19.810  -3.074  14.146  1.00  0.00    -0.357 N 
HETATM    3  C8  UNK     1      18.798  -2.662  14.995  1.00  0.00     0.257 C 
HETATM    4  H8  UNK     1      20.569  -2.443  13.911  1.00  0.00     0.162 HD
ENDROOT
BRANCH   3   5
HETATM    5  C9  UNK     1      18.956  -1.271  15.439  1.00  0.00     0.108 A 
HETATM    6  C11 UNK     1      18.808  -1.047  16.749  1.00  0.00     0.037 A 
HETATM    7  C10 UNK     1      18.947   0.298  17.284  1.00  0.00     0.001 A 
HETATM    8  C13 UNK     1      19.234   1.343  16.411  1.00  0.00     0.089 A 
HETATM    9  C15 UNK     1      18.802   0.577  18.645  1.00  0.00     0.050 A 
HETATM   10  O1  UNK     1      19.387   1.102  15.031  1.00  0.00    -0.274 OA
HETATM   11  C16 UNK     1      19.378   2.655  16.858  1.00  0.00     0.041 A 
HETATM   12  C14 UNK     1      19.260  -0.175  14.491  1.00  0.00     0.304 A 
HETATM   13  O3  UNK     1      19.397  -0.376  13.289  1.00  0.00    -0.259 OA
HETATM   14  C18 UNK     1      19.232   2.925  18.217  1.00  0.00     0.039 A 
HETATM   15  C17 UNK     1      18.945   1.888  19.109  1.00  0.00     0.103 A 
BRANCH  15  16
HETATM   16  N4  UNK     1      18.796   2.168  20.493  1.00  0.00    -0.116 N 
HETATM   17  O4  UNK     1      17.649   2.139  21.000  1.00  0.00    -0.532 OA
HETATM   18  O5  UNK     1      19.817   2.440  21.171  1.00  0.00    -0.532 OA
ENDBRANCH  15  16
ENDBRANCH   3   5
BRANCH   2  19
HETATM   19  C3  UNK     1      19.872  -4.403  13.582  1.00  0.00     0.124 C 
BRANCH  19  20
HETATM   20  C2  UNK     1      20.365  -5.438  14.587  1.00  0.00     0.041 C 
BRANCH  20  21
HETATM   21  C1  UNK     1      19.701  -6.802  14.393  1.00  0.00     0.152 C 
BRANCH  21  22
HETATM   22  N1  UNK     1      18.286  -6.778  14.754  1.00  0.00    -0.274 N 
HETATM   23  C4  UNK     1      17.245  -7.104  13.949  1.00  0.00     0.029 A 
HETATM   24  C5  UNK     1      16.121  -6.930  14.720  1.00  0.00     0.064 A 
HETATM   25  C7  UNK     1      17.401  -7.541  12.549  1.00  0.00     0.070 C 
HETATM   26  C6  UNK     1      16.614  -6.498  15.967  1.00  0.00     0.162 A 
HETATM   27  N3  UNK     1      17.946  -6.403  15.990  1.00  0.00    -0.168 NA
BRANCH  26  28
HETATM   28  C12 UNK     1      15.835  -6.162  17.170  1.00  0.00     0.436 C 
HETATM   29  F1  UNK     1      16.250  -6.841  18.278  1.00  0.00    -0.165 F 
HETATM   30  F2  UNK     1      15.900  -4.840  17.502  1.00  0.00    -0.165 F 
HETATM   31  F3  UNK     1      14.512  -6.451  17.020  1.00  0.00    -0.165 F 
ENDBRANCH  26  28
ENDBRANCH  21  22
ENDBRANCH  20  21
ENDBRANCH  19  20
ENDBRANCH   2  19
TORSDOF 7
ENDMDL
MODEL 7
REMARK VINA RESULT:      -9.1      2.138      2.675
REMARK  7 active torsions:
REMARK  status: ('A' for Active; 'I' for Inactive)
REMARK    1  A    between atoms: C1_13  and  N1_9 
REMARK    2  A    between atoms: C3_15  and  N2_10 
REMARK       I    between atoms: C8_20  and  N2_10 
REMARK    3  A    between atoms: C17_29  and  N4_12 
REMARK    4  A    between atoms: C1_13  and  C2_14 
REMARK    5  A    between atoms: C2_14  and  C3_15 
REMARK    6  A    between atoms: C12_24  and  C6_18 
REMARK    7  A    between atoms: C8_20  and  C9_21 
ROOT
HETATM    1  O2  UNK     1      17.202   3.714  31.389  1.00  0.00    -0.267 OA
HETATM    2  N2  UNK     1      19.259   4.531  30.655  1.00  0.00    -0.357 N 
HETATM    3  C8  UNK     1      18.306   3.552  30.873  1.00  0.00     0.257 C 
HETATM    4  H8  UNK     1      20.134   4.301  30.196  1.00  0.00     0.162 HD
ENDROOT
BRANCH   3   5
HETATM    5  C9  UNK     1      18.735   2.226  30.411  1.00  0.00     0.108 A 
HETATM    6  C11 UNK     1      19.253   1.415  31.340  1.00  0.00     0.037 A 
HETATM    7  C10 UNK     1      19.705   0.081  30.978  1.00  0.00     0.001 A 
HETATM    8  C13 UNK     1      19.591  -0.333  29.654  1.00  0.00     0.089 A 
HETATM    9  C15 UNK     1      20.252  -0.800  31.915  1.00  0.00     0.050 A 
HETATM   10  O1  UNK     1      19.046   0.526  28.681  1.00  0.00    -0.274 OA
HETATM   11  C16 UNK     1      20.006  -1.598  29.242  1.00  0.00     0.041 A 
HETATM   12  C14 UNK     1      18.604   1.808  28.997  1.00  0.00     0.304 A 
HETATM   13  O3  UNK     1      18.129   2.549  28.142  1.00  0.00    -0.259 OA
HETATM   14  C18 UNK     1      20.550  -2.470  30.183  1.00  0.00     0.039 A 
HETATM   15  C17 UNK     1      20.672  -2.072  31.517  1.00  0.00     0.103 A 
BRANCH  15  16
HETATM   16  N4  UNK     1      21.227  -2.965  32.472  1.00  0.00    -0.116 N 
HETATM   17  O4  UNK     1      21.416  -2.561  33.644  1.00  0.00    -0.532 OA
HETATM   18  O5  UNK     1      21.516  -4.133  32.115  1.00  0.00    -0.532 OA
ENDBRANCH  15  16
ENDBRANCH   3   5
BRANCH   2  19
HETATM   19  C3  UNK     1      19.064   5.915  31.023  1.00  0.00     0.124 C 
BRANCH  19  20
HETATM   20  C2  UNK     1      19.125   6.129  32.531  1.00  0.00     0.041 C 
BRANCH  20  21
HETATM   21  C1  UNK     1      17.744   6.374  33.142  1.00  0.00     0.152 C 
BRANCH  21  22
HETATM   22  N1  UNK     1      17.516   7.787  33.433  1.00  0.00    -0.274 N 
HETATM   23  C4  UNK     1      16.315   8.410  33.505  1.00  0.00     0.029 A 
HETATM   24  C5  UNK     1      16.602   9.721  33.799  1.00  0.00     0.064 A 
HETATM   25  C7  UNK     1      15.027   7.725  33.293  1.00  0.00     0.070 C 
HETATM   26  C6  UNK     1      18.008   9.763  33.878  1.00  0.00     0.162 A 
HETATM   27  N3  UNK     1      18.573   8.574  33.652  1.00  0.00    -0.168 NA
BRANCH  26  28
HETATM   28  C12 UNK     1      18.854  10.932  34.170  1.00  0.00     0.436 C 
HETATM   29  F1  UNK     1      18.291  11.784  35.074  1.00  0.00    -0.165 F 
HETATM   30  F2  UNK     1      20.072  10.599  34.687  1.00  0.00    -0.165 F 
HETATM   31  F3  UNK     1      19.105  11.672  33.054  1.00  0.00    -0.165 F 
ENDBRANCH  26  28
ENDBRANCH  21  22
ENDBRANCH  20  21
ENDBRANCH  19  20
ENDBRANCH   2  19
TORSDOF 7
ENDMDL
MODEL 8
REMARK VINA RESULT:      -9.1      1.970      2.759
REMARK  7 active torsions:
REMARK  status: ('A' for Active; 'I' for Inactive)
REMARK    1  A    between atoms: C1_13  and  N1_9 
REMARK    2  A    between atoms: C3_15  and  N2_10 
REMARK       I    between atoms: C8_20  and  N2_10 
REMARK    3  A    between atoms: C17_29  and  N4_12 
REMARK    4  A    between atoms: C1_13  and  C2_14 
REMARK    5  A    between atoms: C2_14  and  C3_15 
REMARK    6  A    between atoms: C12_24  and  C6_18 
REMARK    7  A    between atoms: C8_20  and  C9_21 
ROOT
HETATM    1  O2  UNK     1      18.381   1.402  28.309  1.00  0.00    -0.267 OA
HETATM    2  N2  UNK     1      19.100   2.867  29.974  1.00  0.00    -0.357 N 
HETATM    3  C8  UNK     1      18.901   1.624  29.401  1.00  0.00     0.257 C 
HETATM    4  H8  UNK     1      19.566   2.948  30.873  1.00  0.00     0.162 HD
ENDROOT
BRANCH   3   5
HETATM    5  C9  UNK     1      19.390   0.523  30.241  1.00  0.00     0.108 A 
HETATM    6  C11 UNK     1      18.926   0.484  31.495  1.00  0.00     0.037 A 
HETATM    7  C10 UNK     1      19.352  -0.569  32.402  1.00  0.00     0.001 A 
HETATM    8  C13 UNK     1      20.249  -1.530  31.945  1.00  0.00     0.089 A 
HETATM    9  C15 UNK     1      18.892  -0.649  33.719  1.00  0.00     0.050 A 
HETATM   10  O1  UNK     1      20.736  -1.483  30.624  1.00  0.00    -0.274 OA
HETATM   11  C16 UNK     1      20.698  -2.564  32.764  1.00  0.00     0.041 A 
HETATM   12  C14 UNK     1      20.345  -0.487  29.732  1.00  0.00     0.304 A 
HETATM   13  O3  UNK     1      20.773  -0.456  28.583  1.00  0.00    -0.259 OA
HETATM   14  C18 UNK     1      20.234  -2.637  34.076  1.00  0.00     0.039 A 
HETATM   15  C17 UNK     1      19.333  -1.681  34.552  1.00  0.00     0.103 A 
BRANCH  15  16
HETATM   16  N4  UNK     1      18.863  -1.760  35.890  1.00  0.00    -0.116 N 
HETATM   17  O4  UNK     1      18.389  -0.731  36.429  1.00  0.00    -0.532 OA
HETATM   18  O5  UNK     1      18.938  -2.855  36.497  1.00  0.00    -0.532 OA
ENDBRANCH  15  16
ENDBRANCH   3   5
BRANCH   2  19
HETATM   19  C3  UNK     1      18.705   4.101  29.335  1.00  0.00     0.124 C 
BRANCH  19  20
HETATM   20  C2  UNK     1      19.050   5.326  30.173  1.00  0.00     0.041 C 
BRANCH  20  21
HETATM   21  C1  UNK     1      18.910   5.063  31.674  1.00  0.00     0.152 C 
BRANCH  21  22
HETATM   22  N1  UNK     1      18.076   6.067  32.330  1.00  0.00    -0.274 N 
HETATM   23  C4  UNK     1      18.500   7.039  33.173  1.00  0.00     0.029 A 
HETATM   24  C5  UNK     1      17.368   7.730  33.531  1.00  0.00     0.064 A 
HETATM   25  C7  UNK     1      19.911   7.225  33.559  1.00  0.00     0.070 C 
HETATM   26  C6  UNK     1      16.327   7.080  32.841  1.00  0.00     0.162 A 
HETATM   27  N3  UNK     1      16.760   6.055  32.101  1.00  0.00    -0.168 NA
BRANCH  26  28
HETATM   28  C12 UNK     1      14.893   7.411  32.864  1.00  0.00     0.436 C 
HETATM   29  F1  UNK     1      14.164   6.685  31.968  1.00  0.00    -0.165 F 
HETATM   30  F2  UNK     1      14.309   7.193  34.077  1.00  0.00    -0.165 F 
HETATM   31  F3  UNK     1      14.667   8.721  32.564  1.00  0.00    -0.165 F 
ENDBRANCH  26  28
ENDBRANCH  21  22
ENDBRANCH  20  21
ENDBRANCH  19  20
ENDBRANCH   2  19
TORSDOF 7
ENDMDL
MODEL 9
REMARK VINA RESULT:      -9.1      7.220     11.256
REMARK  7 active torsions:
REMARK  status: ('A' for Active; 'I' for Inactive)
REMARK    1  A    between atoms: C1_13  and  N1_9 
REMARK    2  A    between atoms: C3_15  and  N2_10 
REMARK       I    between atoms: C8_20  and  N2_10 
REMARK    3  A    between atoms: C17_29  and  N4_12 
REMARK    4  A    between atoms: C1_13  and  C2_14 
REMARK    5  A    between atoms: C2_14  and  C3_15 
REMARK    6  A    between atoms: C12_24  and  C6_18 
REMARK    7  A    between atoms: C8_20  and  C9_21 
ROOT
HETATM    1  O2  UNK     1      16.992  -0.933  35.410  1.00  0.00    -0.267 OA
HETATM    2  N2  UNK     1      19.308  -1.181  35.514  1.00  0.00    -0.357 N 
HETATM    3  C8  UNK     1      18.122  -0.708  34.981  1.00  0.00     0.257 C 
HETATM    4  H8  UNK     1      20.196  -0.916  35.101  1.00  0.00     0.162 HD
ENDROOT
BRANCH   3   5
HETATM    5  C9  UNK     1      18.325   0.136  33.797  1.00  0.00     0.108 A 
HETATM    6  C11 UNK     1      18.115   1.447  33.961  1.00  0.00     0.037 A 
HETATM    7  C10 UNK     1      18.291   2.363  32.846  1.00  0.00     0.001 A 
HETATM    8  C13 UNK     1      18.679   1.854  31.611  1.00  0.00     0.089 A 
HETATM    9  C15 UNK     1      18.083   3.739  32.973  1.00  0.00     0.050 A 
HETATM   10  O1  UNK     1      18.898   0.472  31.443  1.00  0.00    -0.274 OA
HETATM   11  C16 UNK     1      18.865   2.678  30.503  1.00  0.00     0.041 A 
HETATM   12  C14 UNK     1      18.738  -0.429  32.493  1.00  0.00     0.304 A 
HETATM   13  O3  UNK     1      18.932  -1.630  32.338  1.00  0.00    -0.259 OA
HETATM   14  C18 UNK     1      18.656   4.049  30.637  1.00  0.00     0.039 A 
HETATM   15  C17 UNK     1      18.266   4.578  31.870  1.00  0.00     0.103 A 
BRANCH  15  16
HETATM   16  N4  UNK     1      18.053   5.976  32.002  1.00  0.00    -0.116 N 
HETATM   17  O4  UNK     1      18.911   6.768  31.541  1.00  0.00    -0.532 OA
HETATM   18  O5  UNK     1      17.014   6.382  32.578  1.00  0.00    -0.532 OA
ENDBRANCH  15  16
ENDBRANCH   3   5
BRANCH   2  19
HETATM   19  C3  UNK     1      19.363  -2.029  36.683  1.00  0.00     0.124 C 
BRANCH  19  20
HETATM   20  C2  UNK     1      20.475  -3.068  36.595  1.00  0.00     0.041 C 
BRANCH  20  21
HETATM   21  C1  UNK     1      19.947  -4.457  36.231  1.00  0.00     0.152 C 
BRANCH  21  22
HETATM   22  N1  UNK     1      20.425  -5.483  37.154  1.00  0.00    -0.274 N 
HETATM   23  C4  UNK     1      19.718  -6.545  37.612  1.00  0.00     0.029 A 
HETATM   24  C5  UNK     1      20.576  -7.221  38.445  1.00  0.00     0.064 A 
HETATM   25  C7  UNK     1      18.320  -6.821  37.231  1.00  0.00     0.070 C 
HETATM   26  C6  UNK     1      21.767  -6.470  38.407  1.00  0.00     0.162 A 
HETATM   27  N3  UNK     1      21.676  -5.399  37.614  1.00  0.00    -0.168 NA
BRANCH  26  28
HETATM   28  C12 UNK     1      23.023  -6.746  39.122  1.00  0.00     0.436 C 
HETATM   29  F1  UNK     1      22.834  -7.012  40.447  1.00  0.00    -0.165 F 
HETATM   30  F2  UNK     1      23.702  -7.819  38.624  1.00  0.00    -0.165 F 
HETATM   31  F3  UNK     1      23.885  -5.692  39.066  1.00  0.00    -0.165 F 
ENDBRANCH  26  28
ENDBRANCH  21  22
ENDBRANCH  20  21
ENDBRANCH  19  20
ENDBRANCH   2  19
TORSDOF 7
ENDMDL
MODEL 10
REMARK VINA RESULT:      -9.0      7.644     11.480
REMARK  7 active torsions:
REMARK  status: ('A' for Active; 'I' for Inactive)
REMARK    1  A    between atoms: C1_13  and  N1_9 
REMARK    2  A    between atoms: C3_15  and  N2_10 
REMARK       I    between atoms: C8_20  and  N2_10 
REMARK    3  A    between atoms: C17_29  and  N4_12 
REMARK    4  A    between atoms: C1_13  and  C2_14 
REMARK    5  A    between atoms: C2_14  and  C3_15 
REMARK    6  A    between atoms: C12_24  and  C6_18 
REMARK    7  A    between atoms: C8_20  and  C9_21 
ROOT
HETATM    1  O2  UNK     1      17.375  -1.691  36.313  1.00  0.00    -0.267 OA
HETATM    2  N2  UNK     1      19.674  -1.973  36.049  1.00  0.00    -0.357 N 
HETATM    3  C8  UNK     1      18.432  -1.455  35.730  1.00  0.00     0.257 C 
HETATM    4  H8  UNK     1      20.495  -1.695  35.520  1.00  0.00     0.162 HD
ENDROOT
BRANCH   3   5
HETATM    5  C9  UNK     1      18.471  -0.546  34.578  1.00  0.00     0.108 A 
HETATM    6  C11 UNK     1      18.938  -1.059  33.435  1.00  0.00     0.037 A 
HETATM    7  C10 UNK     1      19.015  -0.235  32.239  1.00  0.00     0.001 A 
HETATM    8  C13 UNK     1      18.596   1.090  32.306  1.00  0.00     0.089 A 
HETATM    9  C15 UNK     1      19.495  -0.729  31.023  1.00  0.00     0.050 A 
HETATM   10  O1  UNK     1      18.107   1.626  33.513  1.00  0.00    -0.274 OA
HETATM   11  C16 UNK     1      18.645   1.933  31.197  1.00  0.00     0.041 A 
HETATM   12  C14 UNK     1      18.021   0.861  34.674  1.00  0.00     0.304 A 
HETATM   13  O3  UNK     1      17.592   1.336  35.720  1.00  0.00    -0.259 OA
HETATM   14  C18 UNK     1      19.125   1.432  29.988  1.00  0.00     0.039 A 
HETATM   15  C17 UNK     1      19.549   0.103  29.902  1.00  0.00     0.103 A 
BRANCH  15  16
HETATM   16  N4  UNK     1      20.038  -0.403  28.668  1.00  0.00    -0.116 N 
HETATM   17  O4  UNK     1      21.257  -0.679  28.565  1.00  0.00    -0.532 OA
HETATM   18  O5  UNK     1      19.237  -0.558  27.714  1.00  0.00    -0.532 OA
ENDBRANCH  15  16
ENDBRANCH   3   5
BRANCH   2  19
HETATM   19  C3  UNK     1      19.887  -2.889  37.146  1.00  0.00     0.124 C 
BRANCH  19  20
HETATM   20  C2  UNK     1      20.133  -4.317  36.671  1.00  0.00     0.041 C 
BRANCH  20  21
HETATM   21  C1  UNK     1      21.190  -5.036  37.512  1.00  0.00     0.152 C 
BRANCH  21  22
HETATM   22  N1  UNK     1      21.075  -6.489  37.408  1.00  0.00    -0.274 N 
HETATM   23  C4  UNK     1      20.518  -7.319  38.323  1.00  0.00     0.029 A 
HETATM   24  C5  UNK     1      20.641  -8.580  37.793  1.00  0.00     0.064 A 
HETATM   25  C7  UNK     1      19.931  -6.855  39.594  1.00  0.00     0.070 C 
HETATM   26  C6  UNK     1      21.288  -8.380  36.558  1.00  0.00     0.162 A 
HETATM   27  N3  UNK     1      21.557  -7.094  36.319  1.00  0.00    -0.168 NA
BRANCH  26  28
HETATM   28  C12 UNK     1      21.670  -9.403  35.571  1.00  0.00     0.436 C 
HETATM   29  F1  UNK     1      22.955  -9.835  35.723  1.00  0.00    -0.165 F 
HETATM   30  F2  UNK     1      20.895 -10.525  35.630  1.00  0.00    -0.165 F 
HETATM   31  F3  UNK     1      21.572  -8.941  34.293  1.00  0.00    -0.165 F 
ENDBRANCH  26  28
ENDBRANCH  21  22
ENDBRANCH  20  21
ENDBRANCH  19  20
ENDBRANCH   2  19
TORSDOF 7
ENDMDL
