MODEL 1
REMARK VINA RESULT:      -9.6      0.000      0.000
REMARK  5 active torsions:
REMARK  status: ('A' for Active; 'I' for Inactive)
REMARK    1  A    between atoms: C13_21  and  O2_4 
REMARK    2  A    between atoms: C3_11  and  N1_8 
REMARK       I    between atoms: C9_17  and  N1_8 
REMARK    3  A    between atoms: C1_9  and  C4_12 
REMARK    4  A    between atoms: C13_21  and  C2_10 
REMARK    5  A    between atoms: C6_14  and  C9_17 
ROOT
HETATM    1  S1  UNK     1      18.021  -0.306  36.961  1.00  0.00    -0.082 SA
HETATM    2  C1  UNK     1      19.309  -2.497  36.587  1.00  0.00    -0.000 A 
HETATM    3  C2  UNK     1      19.562  -1.690  35.441  1.00  0.00     0.085 A 
HETATM    4  C3  UNK     1      18.922  -0.495  35.532  1.00  0.00     0.094 A 
HETATM    5  C5  UNK     1      18.485  -1.865  37.493  1.00  0.00     0.065 A 
ENDROOT
BRANCH   4   6
HETATM    6  N1  UNK     1      18.891   0.587  34.647  1.00  0.00    -0.316 N 
HETATM    7  C9  UNK     1      17.760   1.117  34.043  1.00  0.00     0.262 C 
HETATM    8  O3  UNK     1      16.590   0.757  34.155  1.00  0.00    -0.267 OA
HETATM    9  H2  UNK     1      19.796   1.012  34.468  1.00  0.00     0.169 HD
BRANCH   7  10
HETATM   10  C6  UNK     1      18.087   2.250  33.170  1.00  0.00     0.108 A 
HETATM   11  C14 UNK     1      18.479   2.065  31.754  1.00  0.00     0.304 A 
HETATM   12  O1  UNK     1      18.765   3.218  31.028  1.00  0.00    -0.274 OA
HETATM   13  O5  UNK     1      18.547   0.953  31.242  1.00  0.00    -0.259 OA
HETATM   14  C10 UNK     1      18.687   4.499  31.608  1.00  0.00     0.089 A 
HETATM   15  C7  UNK     1      18.317   4.651  32.941  1.00  0.00    -0.001 A 
HETATM   16  C16 UNK     1      18.991   5.594  30.802  1.00  0.00     0.038 A 
HETATM   17  C15 UNK     1      18.252   5.939  33.479  1.00  0.00     0.014 A 
HETATM   18  C8  UNK     1      18.012   3.465  33.725  1.00  0.00     0.037 A 
HETATM   19  C19 UNK     1      18.556   7.046  32.682  1.00  0.00     0.001 A 
HETATM   20  C21 UNK     1      18.924   6.874  31.346  1.00  0.00     0.003 A 
ENDBRANCH   7  10
ENDBRANCH   4   6
BRANCH   3  21
HETATM   21  C13 UNK     1      20.383  -2.065  34.316  1.00  0.00     0.296 C 
HETATM   22  O4  UNK     1      21.586  -2.351  34.402  1.00  0.00    -0.259 OA
BRANCH  21  23
HETATM   23  O2  UNK     1      19.709  -2.080  33.114  1.00  0.00    -0.322 OA
HETATM   24  C22 UNK     1      20.507  -2.077  31.924  1.00  0.00     0.213 C 
ENDBRANCH  21  23
ENDBRANCH   3  21
BRANCH   2  25
HETATM   25  C4  UNK     1      19.806  -3.821  36.859  1.00  0.00    -0.024 A 
HETATM   26  C11 UNK     1      19.100  -4.933  36.407  1.00  0.00     0.015 A 
HETATM   27  C17 UNK     1      19.582  -6.215  36.670  1.00  0.00     0.043 A 
HETATM   28  C20 UNK     1      20.767  -6.382  37.385  1.00  0.00     0.116 A 
HETATM   29  C18 UNK     1      21.472  -5.267  37.837  1.00  0.00     0.043 A 
HETATM   30  F1  UNK     1      21.230  -7.614  37.637  1.00  0.00    -0.206 F 
HETATM   31  C12 UNK     1      20.991  -3.983  37.573  1.00  0.00     0.015 A 
ENDBRANCH   2  25
TORSDOF 5
ENDMDL
MODEL 2
REMARK VINA RESULT:      -9.5      6.241     10.702
REMARK  5 active torsions:
REMARK  status: ('A' for Active; 'I' for Inactive)
REMARK    1  A    between atoms: C13_21  and  O2_4 
REMARK    2  A    between atoms: C3_11  and  N1_8 
REMARK       I    between atoms: C9_17  and  N1_8 
REMARK    3  A    between atoms: C1_9  and  C4_12 
REMARK    4  A    between atoms: C13_21  and  C2_10 
REMARK    5  A    between atoms: C6_14  and  C9_17 
ROOT
HETATM    1  S1  UNK     1      20.159   6.609  33.809  1.00  0.00    -0.082 SA
HETATM    2  C1  UNK     1      18.318   8.386  33.579  1.00  0.00    -0.000 A 
HETATM    3  C2  UNK     1      18.008   7.370  32.629  1.00  0.00     0.085 A 
HETATM    4  C3  UNK     1      18.926   6.370  32.665  1.00  0.00     0.094 A 
HETATM    5  C5  UNK     1      19.464   8.098  34.289  1.00  0.00     0.065 A 
ENDROOT
BRANCH   4   6
HETATM    6  N1  UNK     1      19.012   5.192  31.917  1.00  0.00    -0.316 N 
HETATM    7  C9  UNK     1      18.339   4.006  32.177  1.00  0.00     0.262 C 
HETATM    8  O3  UNK     1      17.555   3.753  33.089  1.00  0.00    -0.267 OA
HETATM    9  H2  UNK     1      19.618   5.251  31.103  1.00  0.00     0.169 HD
BRANCH   7  10
HETATM   10  C6  UNK     1      18.661   2.967  31.192  1.00  0.00     0.108 A 
HETATM   11  C14 UNK     1      18.594   3.218  29.735  1.00  0.00     0.304 A 
HETATM   12  O1  UNK     1      18.923   2.153  28.901  1.00  0.00    -0.274 OA
HETATM   13  O5  UNK     1      18.268   4.310  29.280  1.00  0.00    -0.259 OA
HETATM   14  C10 UNK     1      19.301   0.897  29.413  1.00  0.00     0.089 A 
HETATM   15  C7  UNK     1      19.356   0.682  30.787  1.00  0.00    -0.001 A 
HETATM   16  C16 UNK     1      19.613  -0.108  28.500  1.00  0.00     0.038 A 
HETATM   17  C15 UNK     1      19.735  -0.578  31.257  1.00  0.00     0.014 A 
HETATM   18  C8  UNK     1      19.019   1.776  31.684  1.00  0.00     0.037 A 
HETATM   19  C19 UNK     1      20.050  -1.596  30.352  1.00  0.00     0.001 A 
HETATM   20  C21 UNK     1      19.989  -1.361  28.977  1.00  0.00     0.003 A 
ENDBRANCH   7  10
ENDBRANCH   4   6
BRANCH   3  21
HETATM   21  C13 UNK     1      16.876   7.376  31.735  1.00  0.00     0.296 C 
HETATM   22  O4  UNK     1      16.811   8.066  30.707  1.00  0.00    -0.259 OA
BRANCH  21  23
HETATM   23  O2  UNK     1      15.854   6.537  32.122  1.00  0.00    -0.322 OA
HETATM   24  C22 UNK     1      14.519   7.033  31.974  1.00  0.00     0.213 C 
ENDBRANCH  21  23
ENDBRANCH   3  21
BRANCH   2  25
HETATM   25  C4  UNK     1      17.588   9.600  33.840  1.00  0.00    -0.024 A 
HETATM   26  C11 UNK     1      18.254  10.823  33.842  1.00  0.00     0.015 A 
HETATM   27  C17 UNK     1      17.547  11.998  34.096  1.00  0.00     0.043 A 
HETATM   28  C20 UNK     1      16.176  11.946  34.347  1.00  0.00     0.116 A 
HETATM   29  C18 UNK     1      15.512  10.720  34.345  1.00  0.00     0.043 A 
HETATM   30  F1  UNK     1      15.497  13.076  34.591  1.00  0.00    -0.206 F 
HETATM   31  C12 UNK     1      16.219   9.544  34.091  1.00  0.00     0.015 A 
ENDBRANCH   2  25
TORSDOF 5
ENDMDL
MODEL 3
REMARK VINA RESULT:      -9.1      5.939     10.679
REMARK  5 active torsions:
REMARK  status: ('A' for Active; 'I' for Inactive)
REMARK    1  A    between atoms: C13_21  and  O2_4 
REMARK    2  A    between atoms: C3_11  and  N1_8 
REMARK       I    between atoms: C9_17  and  N1_8 
REMARK    3  A    between atoms: C1_9  and  C4_12 
REMARK    4  A    between atoms: C13_21  and  C2_10 
REMARK    5  A    between atoms: C6_14  and  C9_17 
ROOT
HETATM    1  S1  UNK     1      15.416   6.630  32.007  1.00  0.00    -0.082 SA
HETATM    2  C1  UNK     1      16.698   8.506  33.206  1.00  0.00    -0.000 A 
HETATM    3  C2  UNK     1      17.555   7.367  33.224  1.00  0.00     0.085 A 
HETATM    4  C3  UNK     1      16.971   6.305  32.611  1.00  0.00     0.094 A 
HETATM    5  C5  UNK     1      15.502   8.243  32.574  1.00  0.00     0.065 A 
ENDROOT
BRANCH   4   6
HETATM    6  N1  UNK     1      17.443   5.006  32.403  1.00  0.00    -0.316 N 
HETATM    7  C9  UNK     1      18.206   4.576  31.326  1.00  0.00     0.262 C 
HETATM    8  O3  UNK     1      18.611   5.225  30.364  1.00  0.00    -0.267 OA
HETATM    9  H2  UNK     1      17.204   4.346  33.138  1.00  0.00     0.169 HD
BRANCH   7  10
HETATM   10  C6  UNK     1      18.530   3.147  31.422  1.00  0.00     0.108 A 
HETATM   11  C14 UNK     1      18.365   2.386  32.680  1.00  0.00     0.304 A 
HETATM   12  O1  UNK     1      18.705   1.037  32.645  1.00  0.00    -0.274 OA
HETATM   13  O5  UNK     1      17.947   2.913  33.706  1.00  0.00    -0.259 OA
HETATM   14  C10 UNK     1      19.183   0.422  31.472  1.00  0.00     0.089 A 
HETATM   15  C7  UNK     1      19.332   1.156  30.299  1.00  0.00    -0.001 A 
HETATM   16  C16 UNK     1      19.497  -0.934  31.533  1.00  0.00     0.038 A 
HETATM   17  C15 UNK     1      19.810   0.510  29.155  1.00  0.00     0.014 A 
HETATM   18  C8  UNK     1      18.984   2.568  30.304  1.00  0.00     0.037 A 
HETATM   19  C19 UNK     1      20.130  -0.850  29.203  1.00  0.00     0.001 A 
HETATM   20  C21 UNK     1      19.973  -1.570  30.389  1.00  0.00     0.003 A 
ENDBRANCH   7  10
ENDBRANCH   4   6
BRANCH   3  21
HETATM   21  C13 UNK     1      18.872   7.318  33.810  1.00  0.00     0.296 C 
HETATM   22  O4  UNK     1      19.085   7.301  35.031  1.00  0.00    -0.259 OA
BRANCH  21  23
HETATM   23  O2  UNK     1      19.893   7.291  32.886  1.00  0.00    -0.322 OA
HETATM   24  C22 UNK     1      20.893   6.279  33.054  1.00  0.00     0.213 C 
ENDBRANCH  21  23
ENDBRANCH   3  21
BRANCH   2  25
HETATM   25  C4  UNK     1      16.960   9.813  33.752  1.00  0.00    -0.024 A 
HETATM   26  C11 UNK     1      15.931  10.528  34.360  1.00  0.00     0.015 A 
HETATM   27  C17 UNK     1      16.184  11.794  34.888  1.00  0.00     0.043 A 
HETATM   28  C20 UNK     1      17.464  12.340  34.806  1.00  0.00     0.116 A 
HETATM   29  C18 UNK     1      18.492  11.623  34.196  1.00  0.00     0.043 A 
HETATM   30  F1  UNK     1      17.707  13.557  35.314  1.00  0.00    -0.206 F 
HETATM   31  C12 UNK     1      18.239  10.355  33.668  1.00  0.00     0.015 A 
ENDBRANCH   2  25
TORSDOF 5
ENDMDL
MODEL 4
REMARK VINA RESULT:      -9.0      4.422      6.233
REMARK  5 active torsions:
REMARK  status: ('A' for Active; 'I' for Inactive)
REMARK    1  A    between atoms: C13_21  and  O2_4 
REMARK    2  A    between atoms: C3_11  and  N1_8 
REMARK       I    between atoms: C9_17  and  N1_8 
REMARK    3  A    between atoms: C1_9  and  C4_12 
REMARK    4  A    between atoms: C13_21  and  C2_10 
REMARK    5  A    between atoms: C6_14  and  C9_17 
ROOT
HETATM    1  S1  UNK     1      18.041   2.687  34.482  1.00  0.00    -0.082 SA
HETATM    2  C1  UNK     1      18.823   1.294  32.471  1.00  0.00    -0.000 A 
HETATM    3  C2  UNK     1      18.354   2.529  31.937  1.00  0.00     0.085 A 
HETATM    4  C3  UNK     1      17.911   3.351  32.923  1.00  0.00     0.094 A 
HETATM    5  C5  UNK     1      18.711   1.247  33.843  1.00  0.00     0.065 A 
ENDROOT
BRANCH   4   6
HETATM    6  N1  UNK     1      17.372   4.640  32.856  1.00  0.00    -0.316 N 
HETATM    7  C9  UNK     1      18.085   5.828  32.928  1.00  0.00     0.262 C 
HETATM    8  O3  UNK     1      19.296   5.991  33.063  1.00  0.00    -0.267 OA
HETATM    9  H2  UNK     1      16.366   4.671  32.722  1.00  0.00     0.169 HD
BRANCH   7  10
HETATM   10  C6  UNK     1      17.206   7.000  32.824  1.00  0.00     0.108 A 
HETATM   11  C14 UNK     1      16.843   7.597  31.520  1.00  0.00     0.304 A 
HETATM   12  O1  UNK     1      16.001   8.705  31.551  1.00  0.00    -0.274 OA
HETATM   13  O5  UNK     1      17.258   7.139  30.460  1.00  0.00    -0.259 OA
HETATM   14  C10 UNK     1      15.517   9.236  32.762  1.00  0.00     0.089 A 
HETATM   15  C7  UNK     1      15.872   8.660  33.979  1.00  0.00    -0.001 A 
HETATM   16  C16 UNK     1      14.680  10.348  32.694  1.00  0.00     0.038 A 
HETATM   17  C15 UNK     1      15.372   9.216  35.159  1.00  0.00     0.014 A 
HETATM   18  C8  UNK     1      16.749   7.500  33.978  1.00  0.00     0.037 A 
HETATM   19  C19 UNK     1      14.531  10.332  35.105  1.00  0.00     0.001 A 
HETATM   20  C21 UNK     1      14.186  10.896  33.875  1.00  0.00     0.003 A 
ENDBRANCH   7  10
ENDBRANCH   4   6
BRANCH   3  21
HETATM   21  C13 UNK     1      18.337   2.887  30.540  1.00  0.00     0.296 C 
HETATM   22  O4  UNK     1      19.037   3.783  30.047  1.00  0.00    -0.259 OA
BRANCH  21  23
HETATM   23  O2  UNK     1      17.462   2.139  29.783  1.00  0.00    -0.322 OA
HETATM   24  C22 UNK     1      17.821   1.909  28.416  1.00  0.00     0.213 C 
ENDBRANCH  21  23
ENDBRANCH   3  21
BRANCH   2  25
HETATM   25  C4  UNK     1      19.367   0.173  31.748  1.00  0.00    -0.024 A 
HETATM   26  C11 UNK     1      20.192   0.392  30.648  1.00  0.00     0.015 A 
HETATM   27  C17 UNK     1      20.719  -0.693  29.948  1.00  0.00     0.043 A 
HETATM   28  C20 UNK     1      20.418  -1.994  30.349  1.00  0.00     0.116 A 
HETATM   29  C18 UNK     1      19.591  -2.211  31.451  1.00  0.00     0.043 A 
HETATM   30  F1  UNK     1      20.924  -3.037  29.676  1.00  0.00    -0.206 F 
HETATM   31  C12 UNK     1      19.065  -1.125  32.152  1.00  0.00     0.015 A 
ENDBRANCH   2  25
TORSDOF 5
ENDMDL
MODEL 5
REMARK VINA RESULT:      -9.0      3.438      9.724
REMARK  5 active torsions:
REMARK  status: ('A' for Active; 'I' for Inactive)
REMARK    1  A    between atoms: C13_21  and  O2_4 
REMARK    2  A    between atoms: C3_11  and  N1_8 
REMARK       I    between atoms: C9_17  and  N1_8 
REMARK    3  A    between atoms: C1_9  and  C4_12 
REMARK    4  A    between atoms: C13_21  and  C2_10 
REMARK    5  A    between atoms: C6_14  and  C9_17 
ROOT
HETATM    1  S1  UNK     1      17.801  -1.654  37.923  1.00  0.00    -0.082 SA
HETATM    2  C1  UNK     1      18.385  -0.054  36.001  1.00  0.00    -0.000 A 
HETATM    3  C2  UNK     1      18.868  -1.336  35.609  1.00  0.00     0.085 A 
HETATM    4  C3  UNK     1      18.611  -2.268  36.562  1.00  0.00     0.094 A 
HETATM    5  C5  UNK     1      17.781  -0.085  37.239  1.00  0.00     0.065 A 
ENDROOT
BRANCH   4   6
HETATM    6  N1  UNK     1      18.905  -3.635  36.596  1.00  0.00    -0.316 N 
HETATM    7  C9  UNK     1      20.058  -4.211  37.112  1.00  0.00     0.262 C 
HETATM    8  O3  UNK     1      21.028  -3.658  37.627  1.00  0.00    -0.267 OA
HETATM    9  H2  UNK     1      18.177  -4.233  36.218  1.00  0.00     0.169 HD
BRANCH   7  10
HETATM   10  C6  UNK     1      20.042  -5.673  36.986  1.00  0.00     0.108 A 
HETATM   11  C14 UNK     1      20.144  -6.351  35.674  1.00  0.00     0.304 A 
HETATM   12  O1  UNK     1      20.118  -7.743  35.685  1.00  0.00    -0.274 OA
HETATM   13  O5  UNK     1      20.250  -5.721  34.627  1.00  0.00    -0.259 OA
HETATM   14  C10 UNK     1      19.999  -8.474  36.883  1.00  0.00     0.089 A 
HETATM   15  C7  UNK     1      19.903  -7.817  38.106  1.00  0.00    -0.001 A 
HETATM   16  C16 UNK     1      19.982  -9.864  36.793  1.00  0.00     0.038 A 
HETATM   17  C15 UNK     1      19.786  -8.578  39.272  1.00  0.00     0.014 A 
HETATM   18  C8  UNK     1      19.928  -6.363  38.127  1.00  0.00     0.037 A 
HETATM   19  C19 UNK     1      19.766  -9.974  39.197  1.00  0.00     0.001 A 
HETATM   20  C21 UNK     1      19.865 -10.615  37.960  1.00  0.00     0.003 A 
ENDBRANCH   7  10
ENDBRANCH   4   6
BRANCH   3  21
HETATM   21  C13 UNK     1      19.546  -1.634  34.371  1.00  0.00     0.296 C 
HETATM   22  O4  UNK     1      20.734  -1.981  34.300  1.00  0.00    -0.259 OA
BRANCH  21  23
HETATM   23  O2  UNK     1      18.753  -1.498  33.253  1.00  0.00    -0.322 OA
HETATM   24  C22 UNK     1      19.420  -1.459  31.986  1.00  0.00     0.213 C 
ENDBRANCH  21  23
ENDBRANCH   3  21
BRANCH   2  25
HETATM   25  C4  UNK     1      18.467   1.181  35.264  1.00  0.00    -0.024 A 
HETATM   26  C11 UNK     1      19.153   2.266  35.803  1.00  0.00     0.015 A 
HETATM   27  C17 UNK     1      19.232   3.462  35.090  1.00  0.00     0.043 A 
HETATM   28  C20 UNK     1      18.624   3.569  33.840  1.00  0.00     0.116 A 
HETATM   29  C18 UNK     1      17.937   2.482  33.302  1.00  0.00     0.043 A 
HETATM   30  F1  UNK     1      18.700   4.719  33.155  1.00  0.00    -0.206 F 
HETATM   31  C12 UNK     1      17.858   1.284  34.016  1.00  0.00     0.015 A 
ENDBRANCH   2  25
TORSDOF 5
ENDMDL
MODEL 6
REMARK VINA RESULT:      -8.9      7.207     10.608
REMARK  5 active torsions:
REMARK  status: ('A' for Active; 'I' for Inactive)
REMARK    1  A    between atoms: C13_21  and  O2_4 
REMARK    2  A    between atoms: C3_11  and  N1_8 
REMARK       I    between atoms: C9_17  and  N1_8 
REMARK    3  A    between atoms: C1_9  and  C4_12 
REMARK    4  A    between atoms: C13_21  and  C2_10 
REMARK    5  A    between atoms: C6_14  and  C9_17 
ROOT
HETATM    1  S1  UNK     1      19.545   8.422  34.210  1.00  0.00    -0.082 SA
HETATM    2  C1  UNK     1      18.677   6.646  32.570  1.00  0.00    -0.000 A 
HETATM    3  C2  UNK     1      17.714   7.696  32.562  1.00  0.00     0.085 A 
HETATM    4  C3  UNK     1      18.075   8.698  33.404  1.00  0.00     0.094 A 
HETATM    5  C5  UNK     1      19.726   6.913  33.424  1.00  0.00     0.065 A 
ENDROOT
BRANCH   4   6
HETATM    6  N1  UNK     1      17.435   9.904  33.705  1.00  0.00    -0.316 N 
HETATM    7  C9  UNK     1      16.382  10.072  34.594  1.00  0.00     0.262 C 
HETATM    8  O3  UNK     1      15.812   9.224  35.277  1.00  0.00    -0.267 OA
HETATM    9  H2  UNK     1      17.815  10.716  33.226  1.00  0.00     0.169 HD
BRANCH   7  10
HETATM   10  C6  UNK     1      15.949  11.472  34.671  1.00  0.00     0.108 A 
HETATM   11  C14 UNK     1      16.915  12.590  34.763  1.00  0.00     0.304 A 
HETATM   12  O1  UNK     1      16.381  13.874  34.829  1.00  0.00    -0.274 OA
HETATM   13  O5  UNK     1      18.127  12.399  34.778  1.00  0.00    -0.259 OA
HETATM   14  C10 UNK     1      14.992  14.103  34.810  1.00  0.00     0.089 A 
HETATM   15  C7  UNK     1      14.101  13.038  34.724  1.00  0.00    -0.001 A 
HETATM   16  C16 UNK     1      14.552  15.423  34.881  1.00  0.00     0.038 A 
HETATM   17  C15 UNK     1      12.729  13.306  34.708  1.00  0.00     0.014 A 
HETATM   18  C8  UNK     1      14.628  11.684  34.653  1.00  0.00     0.037 A 
HETATM   19  C19 UNK     1      12.274  14.625  34.780  1.00  0.00     0.001 A 
HETATM   20  C21 UNK     1      13.184  15.682  34.865  1.00  0.00     0.003 A 
ENDBRANCH   7  10
ENDBRANCH   4   6
BRANCH   3  21
HETATM   21  C13 UNK     1      16.505   7.718  31.777  1.00  0.00     0.296 C 
HETATM   22  O4  UNK     1      16.328   8.462  30.801  1.00  0.00    -0.259 OA
BRANCH  21  23
HETATM   23  O2  UNK     1      15.543   6.830  32.206  1.00  0.00    -0.322 OA
HETATM   24  C22 UNK     1      14.200   7.320  32.291  1.00  0.00     0.213 C 
ENDBRANCH  21  23
ENDBRANCH   3  21
BRANCH   2  25
HETATM   25  C4  UNK     1      18.650   5.420  31.815  1.00  0.00    -0.024 A 
HETATM   26  C11 UNK     1      19.070   5.414  30.488  1.00  0.00     0.015 A 
HETATM   27  C17 UNK     1      19.043   4.227  29.756  1.00  0.00     0.043 A 
HETATM   28  C20 UNK     1      18.595   3.050  30.354  1.00  0.00     0.116 A 
HETATM   29  C18 UNK     1      18.174   3.058  31.683  1.00  0.00     0.043 A 
HETATM   30  F1  UNK     1      18.569   1.909  29.650  1.00  0.00    -0.206 F 
HETATM   31  C12 UNK     1      18.202   4.246  32.416  1.00  0.00     0.015 A 
ENDBRANCH   2  25
TORSDOF 5
ENDMDL
MODEL 7
REMARK VINA RESULT:      -8.7      7.563     10.938
REMARK  5 active torsions:
REMARK  status: ('A' for Active; 'I' for Inactive)
REMARK    1  A    between atoms: C13_21  and  O2_4 
REMARK    2  A    between atoms: C3_11  and  N1_8 
REMARK       I    between atoms: C9_17  and  N1_8 
REMARK    3  A    between atoms: C1_9  and  C4_12 
REMARK    4  A    between atoms: C13_21  and  C2_10 
REMARK    5  A    between atoms: C6_14  and  C9_17 
ROOT
HETATM    1  S1  UNK     1      19.526   8.467  34.516  1.00  0.00    -0.082 SA
HETATM    2  C1  UNK     1      18.703   6.849  32.698  1.00  0.00    -0.000 A 
HETATM    3  C2  UNK     1      17.694   7.848  32.825  1.00  0.00     0.085 A 
HETATM    4  C3  UNK     1      18.029   8.765  33.769  1.00  0.00     0.094 A 
HETATM    5  C5  UNK     1      19.756   7.066  33.560  1.00  0.00     0.065 A 
ENDROOT
BRANCH   4   6
HETATM    6  N1  UNK     1      17.343   9.898  34.216  1.00  0.00    -0.316 N 
HETATM    7  C9  UNK     1      17.715  11.218  33.998  1.00  0.00     0.262 C 
HETATM    8  O3  UNK     1      18.692  11.649  33.389  1.00  0.00    -0.267 OA
HETATM    9  H2  UNK     1      16.488   9.701  34.727  1.00  0.00     0.169 HD
BRANCH   7  10
HETATM   10  C6  UNK     1      16.769  12.160  34.607  1.00  0.00     0.108 A 
HETATM   11  C14 UNK     1      15.575  11.703  35.353  1.00  0.00     0.304 A 
HETATM   12  O1  UNK     1      14.753  12.693  35.885  1.00  0.00    -0.274 OA
HETATM   13  O5  UNK     1      15.319  10.512  35.499  1.00  0.00    -0.259 OA
HETATM   14  C10 UNK     1      15.039  14.062  35.724  1.00  0.00     0.089 A 
HETATM   15  C7  UNK     1      16.167  14.471  35.019  1.00  0.00    -0.001 A 
HETATM   16  C16 UNK     1      14.158  14.980  36.293  1.00  0.00     0.038 A 
HETATM   17  C15 UNK     1      16.417  15.838  34.881  1.00  0.00     0.014 A 
HETATM   18  C8  UNK     1      17.046  13.460  34.451  1.00  0.00     0.037 A 
HETATM   19  C19 UNK     1      15.541  16.770  35.445  1.00  0.00     0.001 A 
HETATM   20  C21 UNK     1      14.415  16.341  36.151  1.00  0.00     0.003 A 
ENDBRANCH   7  10
ENDBRANCH   4   6
BRANCH   3  21
HETATM   21  C13 UNK     1      16.469   7.904  32.066  1.00  0.00     0.296 C 
HETATM   22  O4  UNK     1      16.392   8.339  30.908  1.00  0.00    -0.259 OA
BRANCH  21  23
HETATM   23  O2  UNK     1      15.370   7.426  32.745  1.00  0.00    -0.322 OA
HETATM   24  C22 UNK     1      14.191   7.172  31.972  1.00  0.00     0.213 C 
ENDBRANCH  21  23
ENDBRANCH   3  21
BRANCH   2  25
HETATM   25  C4  UNK     1      18.713   5.716  31.809  1.00  0.00    -0.024 A 
HETATM   26  C11 UNK     1      19.255   5.842  30.533  1.00  0.00     0.015 A 
HETATM   27  C17 UNK     1      19.264   4.745  29.671  1.00  0.00     0.043 A 
HETATM   28  C20 UNK     1      18.731   3.526  30.089  1.00  0.00     0.116 A 
HETATM   29  C18 UNK     1      18.188   3.403  31.367  1.00  0.00     0.043 A 
HETATM   30  F1  UNK     1      18.740   2.472  29.261  1.00  0.00    -0.206 F 
HETATM   31  C12 UNK     1      18.179   4.501  32.230  1.00  0.00     0.015 A 
ENDBRANCH   2  25
TORSDOF 5
ENDMDL
MODEL 8
REMARK VINA RESULT:      -8.7      9.990     13.471
REMARK  5 active torsions:
REMARK  status: ('A' for Active; 'I' for Inactive)
REMARK    1  A    between atoms: C13_21  and  O2_4 
REMARK    2  A    between atoms: C3_11  and  N1_8 
REMARK       I    between atoms: C9_17  and  N1_8 
REMARK    3  A    between atoms: C1_9  and  C4_12 
REMARK    4  A    between atoms: C13_21  and  C2_10 
REMARK    5  A    between atoms: C6_14  and  C9_17 
ROOT
HETATM    1  S1  UNK     1      28.927  -9.240  36.650  1.00  0.00    -0.082 SA
HETATM    2  C1  UNK     1      30.907  -7.608  36.762  1.00  0.00    -0.000 A 
HETATM    3  C2  UNK     1      29.773  -6.887  37.237  1.00  0.00     0.085 A 
HETATM    4  C3  UNK     1      28.658  -7.662  37.220  1.00  0.00     0.094 A 
HETATM    5  C5  UNK     1      30.587  -8.901  36.409  1.00  0.00     0.065 A 
ENDROOT
BRANCH   4   6
HETATM    6  N1  UNK     1      27.344  -7.368  37.594  1.00  0.00    -0.316 N 
HETATM    7  C9  UNK     1      26.713  -7.780  38.760  1.00  0.00     0.262 C 
HETATM    8  O3  UNK     1      27.163  -8.466  39.675  1.00  0.00    -0.267 OA
HETATM    9  H2  UNK     1      26.839  -6.780  36.937  1.00  0.00     0.169 HD
BRANCH   7  10
HETATM   10  C6  UNK     1      25.330  -7.292  38.834  1.00  0.00     0.108 A 
HETATM   11  C14 UNK     1      25.004  -5.848  38.834  1.00  0.00     0.304 A 
HETATM   12  O1  UNK     1      23.656  -5.512  38.908  1.00  0.00    -0.274 OA
HETATM   13  O5  UNK     1      25.876  -4.988  38.768  1.00  0.00    -0.259 OA
HETATM   14  C10 UNK     1      22.648  -6.492  38.981  1.00  0.00     0.089 A 
HETATM   15  C7  UNK     1      22.976  -7.844  38.981  1.00  0.00    -0.001 A 
HETATM   16  C16 UNK     1      21.326  -6.058  39.052  1.00  0.00     0.038 A 
HETATM   17  C15 UNK     1      21.948  -8.788  39.056  1.00  0.00     0.014 A 
HETATM   18  C8  UNK     1      24.377  -8.228  38.904  1.00  0.00     0.037 A 
HETATM   19  C19 UNK     1      20.617  -8.366  39.129  1.00  0.00     0.001 A 
HETATM   20  C21 UNK     1      20.307  -7.004  39.126  1.00  0.00     0.003 A 
ENDBRANCH   7  10
ENDBRANCH   4   6
BRANCH   3  21
HETATM   21  C13 UNK     1      29.778  -5.515  37.682  1.00  0.00     0.296 C 
HETATM   22  O4  UNK     1      30.187  -4.568  36.996  1.00  0.00    -0.259 OA
BRANCH  21  23
HETATM   23  O2  UNK     1      29.283  -5.340  38.956  1.00  0.00    -0.322 OA
HETATM   24  C22 UNK     1      29.386  -4.026  39.515  1.00  0.00     0.213 C 
ENDBRANCH  21  23
ENDBRANCH   3  21
BRANCH   2  25
HETATM   25  C4  UNK     1      32.261  -7.133  36.630  1.00  0.00    -0.024 A 
HETATM   26  C11 UNK     1      32.714  -6.664  35.400  1.00  0.00     0.015 A 
HETATM   27  C17 UNK     1      34.025  -6.204  35.273  1.00  0.00     0.043 A 
HETATM   28  C20 UNK     1      34.877  -6.216  36.376  1.00  0.00     0.116 A 
HETATM   29  C18 UNK     1      34.421  -6.686  37.607  1.00  0.00     0.043 A 
HETATM   30  F1  UNK     1      36.137  -5.773  36.253  1.00  0.00    -0.206 F 
HETATM   31  C12 UNK     1      33.109  -7.146  37.734  1.00  0.00     0.015 A 
ENDBRANCH   2  25
TORSDOF 5
ENDMDL
MODEL 9
REMARK VINA RESULT:      -8.6     18.687     21.118
REMARK  5 active torsions:
REMARK  status: ('A' for Active; 'I' for Inactive)
REMARK    1  A    between atoms: C13_21  and  O2_4 
REMARK    2  A    between atoms: C3_11  and  N1_8 
REMARK       I    between atoms: C9_17  and  N1_8 
REMARK    3  A    between atoms: C1_9  and  C4_12 
REMARK    4  A    between atoms: C13_21  and  C2_10 
REMARK    5  A    between atoms: C6_14  and  C9_17 
ROOT
HETATM    1  S1  UNK     1      20.573  -5.382  15.418  1.00  0.00    -0.082 SA
HETATM    2  C1  UNK     1      20.271  -5.808  12.903  1.00  0.00    -0.000 A 
HETATM    3  C2  UNK     1      19.978  -4.429  13.108  1.00  0.00     0.085 A 
HETATM    4  C3  UNK     1      20.107  -4.090  14.417  1.00  0.00     0.094 A 
HETATM    5  C5  UNK     1      20.610  -6.445  14.077  1.00  0.00     0.065 A 
ENDROOT
BRANCH   4   6
HETATM    6  N1  UNK     1      19.919  -2.863  15.058  1.00  0.00    -0.316 N 
HETATM    7  C9  UNK     1      18.746  -2.425  15.659  1.00  0.00     0.262 C 
HETATM    8  O3  UNK     1      17.666  -3.004  15.747  1.00  0.00    -0.267 OA
HETATM    9  H2  UNK     1      20.743  -2.270  15.086  1.00  0.00     0.169 HD
BRANCH   7  10
HETATM   10  C6  UNK     1      18.897  -1.085  16.239  1.00  0.00     0.108 A 
HETATM   11  C14 UNK     1      19.245   0.094  15.414  1.00  0.00     0.304 A 
HETATM   12  O1  UNK     1      19.359   1.312  16.080  1.00  0.00    -0.274 OA
HETATM   13  O5  UNK     1      19.423   0.008  14.204  1.00  0.00    -0.259 OA
HETATM   14  C10 UNK     1      19.154   1.421  17.469  1.00  0.00     0.089 A 
HETATM   15  C7  UNK     1      18.828   0.300  18.226  1.00  0.00    -0.001 A 
HETATM   16  C16 UNK     1      19.290   2.682  18.047  1.00  0.00     0.038 A 
HETATM   17  C15 UNK     1      18.634   0.448  19.602  1.00  0.00     0.014 A 
HETATM   18  C8  UNK     1      18.702  -0.987  17.559  1.00  0.00     0.037 A 
HETATM   19  C19 UNK     1      18.768   1.707  20.194  1.00  0.00     0.001 A 
HETATM   20  C21 UNK     1      19.094   2.821  19.418  1.00  0.00     0.003 A 
ENDBRANCH   7  10
ENDBRANCH   4   6
BRANCH   3  21
HETATM   21  C13 UNK     1      19.591  -3.492  12.082  1.00  0.00     0.296 C 
HETATM   22  O4  UNK     1      18.608  -3.644  11.342  1.00  0.00    -0.259 OA
BRANCH  21  23
HETATM   23  O2  UNK     1      20.420  -2.395  11.987  1.00  0.00    -0.322 OA
HETATM   24  C22 UNK     1      21.025  -2.149  10.712  1.00  0.00     0.213 C 
ENDBRANCH  21  23
ENDBRANCH   3  21
BRANCH   2  25
HETATM   25  C4  UNK     1      20.245  -6.538  11.661  1.00  0.00    -0.024 A 
HETATM   26  C11 UNK     1      19.064  -7.140  11.235  1.00  0.00     0.015 A 
HETATM   27  C17 UNK     1      19.039  -7.847  10.034  1.00  0.00     0.043 A 
HETATM   28  C20 UNK     1      20.196  -7.952   9.262  1.00  0.00     0.116 A 
HETATM   29  C18 UNK     1      21.378  -7.349   9.692  1.00  0.00     0.043 A 
HETATM   30  F1  UNK     1      20.172  -8.631   8.107  1.00  0.00    -0.206 F 
HETATM   31  C12 UNK     1      21.403  -6.640  10.894  1.00  0.00     0.015 A 
ENDBRANCH   2  25
TORSDOF 5
ENDMDL
MODEL 10
REMARK VINA RESULT:      -8.5     10.903     13.683
REMARK  5 active torsions:
REMARK  status: ('A' for Active; 'I' for Inactive)
REMARK    1  A    between atoms: C13_21  and  O2_4 
REMARK    2  A    between atoms: C3_11  and  N1_8 
REMARK       I    between atoms: C9_17  and  N1_8 
REMARK    3  A    between atoms: C1_9  and  C4_12 
REMARK    4  A    between atoms: C13_21  and  C2_10 
REMARK    5  A    between atoms: C6_14  and  C9_17 
ROOT
HETATM    1  S1  UNK     1      28.789  -4.845  38.897  1.00  0.00    -0.082 SA
HETATM    2  C1  UNK     1      30.870  -5.747  37.692  1.00  0.00    -0.000 A 
HETATM    3  C2  UNK     1      29.799  -6.616  37.335  1.00  0.00     0.085 A 
HETATM    4  C3  UNK     1      28.638  -6.229  37.923  1.00  0.00     0.094 A 
HETATM    5  C5  UNK     1      30.459  -4.739  38.537  1.00  0.00     0.065 A 
ENDROOT
BRANCH   4   6
HETATM    6  N1  UNK     1      27.357  -6.784  37.852  1.00  0.00    -0.316 N 
HETATM    7  C9  UNK     1      26.831  -7.741  38.710  1.00  0.00     0.262 C 
HETATM    8  O3  UNK     1      27.365  -8.282  39.676  1.00  0.00    -0.267 OA
HETATM    9  H2  UNK     1      26.777  -6.415  37.104  1.00  0.00     0.169 HD
BRANCH   7  10
HETATM   10  C6  UNK     1      25.456  -8.103  38.348  1.00  0.00     0.108 A 
HETATM   11  C14 UNK     1      25.154  -9.041  37.243  1.00  0.00     0.304 A 
HETATM   12  O1  UNK     1      23.809  -9.305  36.997  1.00  0.00    -0.274 OA
HETATM   13  O5  UNK     1      26.041  -9.563  36.576  1.00  0.00    -0.259 OA
HETATM   14  C10 UNK     1      22.784  -8.712  37.758  1.00  0.00     0.089 A 
HETATM   15  C7  UNK     1      23.089  -7.832  38.792  1.00  0.00    -0.001 A 
HETATM   16  C16 UNK     1      21.468  -9.038  37.437  1.00  0.00     0.038 A 
HETATM   17  C15 UNK     1      22.044  -7.264  39.524  1.00  0.00     0.014 A 
HETATM   18  C8  UNK     1      24.485  -7.536  39.074  1.00  0.00     0.037 A 
HETATM   19  C19 UNK     1      20.718  -7.581  39.212  1.00  0.00     0.001 A 
HETATM   20  C21 UNK     1      20.432  -8.467  38.171  1.00  0.00     0.003 A 
ENDBRANCH   7  10
ENDBRANCH   4   6
BRANCH   3  21
HETATM   21  C13 UNK     1      29.904  -7.764  36.467  1.00  0.00     0.296 C 
HETATM   22  O4  UNK     1      30.262  -7.704  35.282  1.00  0.00    -0.259 OA
BRANCH  21  23
HETATM   23  O2  UNK     1      29.566  -8.954  37.073  1.00  0.00    -0.322 OA
HETATM   24  C22 UNK     1      30.485  -9.470  38.043  1.00  0.00     0.213 C 
ENDBRANCH  21  23
ENDBRANCH   3  21
BRANCH   2  25
HETATM   25  C4  UNK     1      32.246  -5.827  37.272  1.00  0.00    -0.024 A 
HETATM   26  C11 UNK     1      33.089  -6.778  37.840  1.00  0.00     0.015 A 
HETATM   27  C17 UNK     1      34.421  -6.855  37.435  1.00  0.00     0.043 A 
HETATM   28  C20 UNK     1      34.906  -5.981  36.462  1.00  0.00     0.116 A 
HETATM   29  C18 UNK     1      34.059  -5.029  35.895  1.00  0.00     0.043 A 
HETATM   30  F1  UNK     1      36.186  -6.056  36.072  1.00  0.00    -0.206 F 
HETATM   31  C12 UNK     1      32.726  -4.952  36.301  1.00  0.00     0.015 A 
ENDBRANCH   2  25
TORSDOF 5
ENDMDL
