MODEL 1
REMARK VINA RESULT:      -8.8      0.000      0.000
REMARK  3 active torsions:
REMARK  status: ('A' for Active; 'I' for Inactive)
REMARK    1  A    between atoms: C12_22  and  S2_4 
REMARK       I    between atoms: C10_20  and  N1_8 
REMARK    2  A    between atoms: C11_21  and  N1_8 
REMARK    3  A    between atoms: C10_20  and  C3_13 
ROOT
HETATM    1 Cl1  UNK     1      14.081   7.001  32.283  1.00  0.00    -0.081 Cl
HETATM    2 Cl2  UNK     1      16.306  11.468  34.295  1.00  0.00    -0.084 Cl
HETATM    3  O1  UNK     1      16.810   5.919  32.406  1.00  0.00    -0.302 OA
HETATM    4  O2  UNK     1      20.187   7.798  33.708  1.00  0.00    -0.287 OA
HETATM    5  C1  UNK     1      17.858   7.915  33.314  1.00  0.00     0.051 A 
HETATM    6  C2  UNK     1      16.741   7.214  32.855  1.00  0.00     0.112 A 
HETATM    7  C3  UNK     1      18.041   5.299  32.415  1.00  0.00     0.147 A 
HETATM    8  C4  UNK     1      19.169   7.243  33.320  1.00  0.00     0.187 A 
HETATM    9  C5  UNK     1      19.190   5.850  32.827  1.00  0.00     0.098 A 
HETATM   10  C6  UNK     1      17.730   9.232  33.761  1.00  0.00     0.042 A 
HETATM   11  C7  UNK     1      15.490   7.830  32.841  1.00  0.00     0.070 A 
HETATM   12  C8  UNK     1      16.476   9.844  33.746  1.00  0.00     0.036 A 
HETATM   13  C9  UNK     1      15.359   9.145  33.286  1.00  0.00     0.050 A 
ENDROOT
BRANCH   7  14
HETATM   14  C10 UNK     1      18.093   3.918  31.934  1.00  0.00     0.281 C 
HETATM   15  O3  UNK     1      17.844   2.989  32.704  1.00  0.00    -0.265 OA
HETATM   16  N1  UNK     1      18.439   3.840  30.590  1.00  0.00    -0.298 N 
HETATM   17  H4  UNK     1      18.616   4.703  30.082  1.00  0.00     0.171 HD
BRANCH  16  18
HETATM   18  C11 UNK     1      18.585   2.675  29.799  1.00  0.00     0.197 A 
HETATM   19  S1  UNK     1      19.596   1.481  30.448  1.00  0.00    -0.022 SA
HETATM   20  C12 UNK     1      19.230   0.591  29.029  1.00  0.00     0.160 A 
HETATM   21  N3  UNK     1      18.417   1.198  28.191  1.00  0.00    -0.133 NA
HETATM   22  N2  UNK     1      18.036   2.444  28.659  1.00  0.00    -0.122 NA
BRANCH  20  23
HETATM   23  S2  UNK     1      19.876  -0.998  28.704  1.00  0.00    -0.105 SA
HETATM   24  C13 UNK     1      20.200  -1.584  30.387  1.00  0.00     0.098 C 
ENDBRANCH  20  23
ENDBRANCH  16  18
ENDBRANCH   7  14
TORSDOF 3
ENDMDL
MODEL 2
REMARK VINA RESULT:      -8.6      8.485     12.103
REMARK  3 active torsions:
REMARK  status: ('A' for Active; 'I' for Inactive)
REMARK    1  A    between atoms: C12_22  and  S2_4 
REMARK       I    between atoms: C10_20  and  N1_8 
REMARK    2  A    between atoms: C11_21  and  N1_8 
REMARK    3  A    between atoms: C10_20  and  C3_13 
ROOT
HETATM    1 Cl1  UNK     1      17.006  -6.772  36.096  1.00  0.00    -0.081 Cl
HETATM    2 Cl2  UNK     1      20.071  -9.788  39.330  1.00  0.00    -0.084 Cl
HETATM    3  O1  UNK     1      19.156  -4.788  36.368  1.00  0.00    -0.302 OA
HETATM    4  O2  UNK     1      22.605  -5.120  38.517  1.00  0.00    -0.287 OA
HETATM    5  C1  UNK     1      20.572  -6.114  37.831  1.00  0.00     0.051 A 
HETATM    6  C2  UNK     1      19.412  -5.936  37.076  1.00  0.00     0.112 A 
HETATM    7  C3  UNK     1      20.094  -3.779  36.416  1.00  0.00     0.147 A 
HETATM    8  C4  UNK     1      21.568  -5.030  37.875  1.00  0.00     0.187 A 
HETATM    9  C5  UNK     1      21.246  -3.816  37.098  1.00  0.00     0.098 A 
HETATM   10  C6  UNK     1      20.782  -7.304  38.532  1.00  0.00     0.042 A 
HETATM   11  C7  UNK     1      18.455  -6.949  37.018  1.00  0.00     0.070 A 
HETATM   12  C8  UNK     1      19.822  -8.316  38.471  1.00  0.00     0.036 A 
HETATM   13  C9  UNK     1      18.662  -8.138  37.717  1.00  0.00     0.050 A 
ENDROOT
BRANCH   7  14
HETATM   14  C10 UNK     1      19.803  -2.564  35.654  1.00  0.00     0.281 C 
HETATM   15  O3  UNK     1      19.486  -1.530  36.243  1.00  0.00    -0.265 OA
HETATM   16  N1  UNK     1      19.930  -2.758  34.284  1.00  0.00    -0.298 N 
HETATM   17  H4  UNK     1      20.202  -3.678  33.945  1.00  0.00     0.171 HD
BRANCH  16  18
HETATM   18  C11 UNK     1      19.725  -1.810  33.252  1.00  0.00     0.197 A 
HETATM   19  S1  UNK     1      20.600  -2.090  31.828  1.00  0.00    -0.022 SA
HETATM   20  C12 UNK     1      19.841  -0.667  31.243  1.00  0.00     0.160 A 
HETATM   21  N3  UNK     1      19.020  -0.090  32.094  1.00  0.00    -0.133 NA
HETATM   22  N2  UNK     1      18.957  -0.780  33.294  1.00  0.00    -0.122 NA
BRANCH  20  23
HETATM   23  S2  UNK     1      20.123  -0.021  29.647  1.00  0.00    -0.105 SA
HETATM   24  C13 UNK     1      19.034   1.426  29.669  1.00  0.00     0.098 C 
ENDBRANCH  20  23
ENDBRANCH  16  18
ENDBRANCH   7  14
TORSDOF 3
ENDMDL
MODEL 3
REMARK VINA RESULT:      -8.6      4.539      8.887
REMARK  3 active torsions:
REMARK  status: ('A' for Active; 'I' for Inactive)
REMARK    1  A    between atoms: C12_22  and  S2_4 
REMARK       I    between atoms: C10_20  and  N1_8 
REMARK    2  A    between atoms: C11_21  and  N1_8 
REMARK    3  A    between atoms: C10_20  and  C3_13 
ROOT
HETATM    1 Cl1  UNK     1      18.943  -0.984  34.354  1.00  0.00    -0.081 Cl
HETATM    2 Cl2  UNK     1      21.686  -4.699  31.592  1.00  0.00    -0.084 Cl
HETATM    3  O1  UNK     1      18.969   0.514  31.828  1.00  0.00    -0.302 OA
HETATM    4  O2  UNK     1      20.640  -0.600  28.278  1.00  0.00    -0.287 OA
HETATM    5  C1  UNK     1      20.207  -1.134  30.541  1.00  0.00     0.051 A 
HETATM    6  C2  UNK     1      19.615  -0.693  31.725  1.00  0.00     0.112 A 
HETATM    7  C3  UNK     1      18.914   1.312  30.705  1.00  0.00     0.147 A 
HETATM    8  C4  UNK     1      20.141  -0.275  29.347  1.00  0.00     0.187 A 
HETATM    9  C5  UNK     1      19.437   1.014  29.508  1.00  0.00     0.098 A 
HETATM   10  C6  UNK     1      20.850  -2.374  30.493  1.00  0.00     0.042 A 
HETATM   11  C7  UNK     1      19.663  -1.490  32.868  1.00  0.00     0.070 A 
HETATM   12  C8  UNK     1      20.896  -3.169  31.639  1.00  0.00     0.036 A 
HETATM   13  C9  UNK     1      20.305  -2.728  32.824  1.00  0.00     0.050 A 
ENDROOT
BRANCH   7  14
HETATM   14  C10 UNK     1      18.221   2.594  30.834  1.00  0.00     0.281 C 
HETATM   15  O3  UNK     1      17.007   2.659  30.636  1.00  0.00    -0.265 OA
HETATM   16  N1  UNK     1      19.082   3.627  31.183  1.00  0.00    -0.298 N 
HETATM   17  H4  UNK     1      20.069   3.416  31.314  1.00  0.00     0.171 HD
BRANCH  16  18
HETATM   18  C11 UNK     1      18.762   4.991  31.391  1.00  0.00     0.197 A 
HETATM   19  S1  UNK     1      18.653   5.469  33.013  1.00  0.00    -0.022 SA
HETATM   20  C12 UNK     1      18.283   7.023  32.388  1.00  0.00     0.160 A 
HETATM   21  N3  UNK     1      18.261   7.099  31.074  1.00  0.00    -0.133 NA
HETATM   22  N2  UNK     1      18.549   5.878  30.485  1.00  0.00    -0.122 NA
BRANCH  20  23
HETATM   23  S2  UNK     1      17.958   8.408  33.399  1.00  0.00    -0.105 SA
HETATM   24  C13 UNK     1      17.189   7.609  34.832  1.00  0.00     0.098 C 
ENDBRANCH  20  23
ENDBRANCH  16  18
ENDBRANCH   7  14
TORSDOF 3
ENDMDL
MODEL 4
REMARK VINA RESULT:      -8.6      1.613      1.741
REMARK  3 active torsions:
REMARK  status: ('A' for Active; 'I' for Inactive)
REMARK    1  A    between atoms: C12_22  and  S2_4 
REMARK       I    between atoms: C10_20  and  N1_8 
REMARK    2  A    between atoms: C11_21  and  N1_8 
REMARK    3  A    between atoms: C10_20  and  C3_13 
ROOT
HETATM    1 Cl1  UNK     1      14.095   6.911  31.835  1.00  0.00    -0.081 Cl
HETATM    2 Cl2  UNK     1      14.421  11.294  34.939  1.00  0.00    -0.084 Cl
HETATM    3  O1  UNK     1      16.991   6.714  32.287  1.00  0.00    -0.302 OA
HETATM    4  O2  UNK     1      19.352   9.204  34.491  1.00  0.00    -0.287 OA
HETATM    5  C1  UNK     1      17.186   8.687  33.692  1.00  0.00     0.051 A 
HETATM    6  C2  UNK     1      16.436   7.797  32.922  1.00  0.00     0.112 A 
HETATM    7  C3  UNK     1      18.348   6.513  32.424  1.00  0.00     0.147 A 
HETATM    8  C4  UNK     1      18.635   8.463  33.833  1.00  0.00     0.187 A 
HETATM    9  C5  UNK     1      19.184   7.285  33.129  1.00  0.00     0.098 A 
HETATM   10  C6  UNK     1      16.569   9.772  34.319  1.00  0.00     0.042 A 
HETATM   11  C7  UNK     1      15.062   7.988  32.777  1.00  0.00     0.070 A 
HETATM   12  C8  UNK     1      15.194   9.960  34.170  1.00  0.00     0.036 A 
HETATM   13  C9  UNK     1      14.443   9.071  33.400  1.00  0.00     0.050 A 
ENDROOT
BRANCH   7  14
HETATM   14  C10 UNK     1      18.920   5.353  31.739  1.00  0.00     0.281 C 
HETATM   15  O3  UNK     1      20.012   5.448  31.178  1.00  0.00    -0.265 OA
HETATM   16  N1  UNK     1      18.100   4.234  31.821  1.00  0.00    -0.298 N 
HETATM   17  H4  UNK     1      17.219   4.311  32.325  1.00  0.00     0.171 HD
BRANCH  16  18
HETATM   18  C11 UNK     1      18.332   2.947  31.278  1.00  0.00     0.197 A 
HETATM   19  S1  UNK     1      18.539   2.899  29.597  1.00  0.00    -0.022 SA
HETATM   20  C12 UNK     1      18.731   1.207  29.806  1.00  0.00     0.160 A 
HETATM   21  N3  UNK     1      18.636   0.791  31.051  1.00  0.00    -0.133 NA
HETATM   22  N2  UNK     1      18.396   1.838  31.925  1.00  0.00    -0.122 NA
BRANCH  20  23
HETATM   23  S2  UNK     1      19.031   0.108  28.484  1.00  0.00    -0.105 SA
HETATM   24  C13 UNK     1      20.553  -0.696  29.049  1.00  0.00     0.098 C 
ENDBRANCH  20  23
ENDBRANCH  16  18
ENDBRANCH   7  14
TORSDOF 3
ENDMDL
MODEL 5
REMARK VINA RESULT:      -8.5      8.601     12.672
REMARK  3 active torsions:
REMARK  status: ('A' for Active; 'I' for Inactive)
REMARK    1  A    between atoms: C12_22  and  S2_4 
REMARK       I    between atoms: C10_20  and  N1_8 
REMARK    2  A    between atoms: C11_21  and  N1_8 
REMARK    3  A    between atoms: C10_20  and  C3_13 
ROOT
HETATM    1 Cl1  UNK     1      20.871  -7.283  33.136  1.00  0.00    -0.081 Cl
HETATM    2 Cl2  UNK     1      21.207 -10.863  37.139  1.00  0.00    -0.084 Cl
HETATM    3  O1  UNK     1      20.409  -5.336  35.287  1.00  0.00    -0.302 OA
HETATM    4  O2  UNK     1      20.264  -6.035  39.302  1.00  0.00    -0.287 OA
HETATM    5  C1  UNK     1      20.551  -6.918  37.127  1.00  0.00     0.051 A 
HETATM    6  C2  UNK     1      20.588  -6.610  35.766  1.00  0.00     0.112 A 
HETATM    7  C3  UNK     1      20.183  -4.330  36.202  1.00  0.00     0.147 A 
HETATM    8  C4  UNK     1      20.310  -5.835  38.096  1.00  0.00     0.187 A 
HETATM    9  C5  UNK     1      20.122  -4.483  37.532  1.00  0.00     0.098 A 
HETATM   10  C6  UNK     1      20.742  -8.232  37.559  1.00  0.00     0.042 A 
HETATM   11  C7  UNK     1      20.817  -7.618  34.830  1.00  0.00     0.070 A 
HETATM   12  C8  UNK     1      20.970  -9.238  36.619  1.00  0.00     0.036 A 
HETATM   13  C9  UNK     1      21.007  -8.932  35.258  1.00  0.00     0.050 A 
ENDROOT
BRANCH   7  14
HETATM   14  C10 UNK     1      19.995  -2.979  35.672  1.00  0.00     0.281 C 
HETATM   15  O3  UNK     1      20.007  -2.013  36.435  1.00  0.00    -0.265 OA
HETATM   16  N1  UNK     1      19.817  -2.974  34.294  1.00  0.00    -0.298 N 
HETATM   17  H4  UNK     1      19.833  -3.861  33.796  1.00  0.00     0.171 HD
BRANCH  16  18
HETATM   18  C11 UNK     1      19.608  -1.854  33.452  1.00  0.00     0.197 A 
HETATM   19  S1  UNK     1      20.290  -1.975  31.906  1.00  0.00    -0.022 SA
HETATM   20  C12 UNK     1      19.634  -0.413  31.642  1.00  0.00     0.160 A 
HETATM   21  N3  UNK     1      18.976   0.089  32.665  1.00  0.00    -0.133 NA
HETATM   22  N2  UNK     1      18.966  -0.780  33.744  1.00  0.00    -0.122 NA
BRANCH  20  23
HETATM   23  S2  UNK     1      19.813   0.459  30.141  1.00  0.00    -0.105 SA
HETATM   24  C13 UNK     1      20.656  -0.782  29.126  1.00  0.00     0.098 C 
ENDBRANCH  20  23
ENDBRANCH  16  18
ENDBRANCH   7  14
TORSDOF 3
ENDMDL
MODEL 6
REMARK VINA RESULT:      -8.5      2.058      2.858
REMARK  3 active torsions:
REMARK  status: ('A' for Active; 'I' for Inactive)
REMARK    1  A    between atoms: C12_22  and  S2_4 
REMARK       I    between atoms: C10_20  and  N1_8 
REMARK    2  A    between atoms: C11_21  and  N1_8 
REMARK    3  A    between atoms: C10_20  and  C3_13 
ROOT
HETATM    1 Cl1  UNK     1      19.931   9.497  34.206  1.00  0.00    -0.081 Cl
HETATM    2 Cl2  UNK     1      15.254  12.140  34.502  1.00  0.00    -0.084 Cl
HETATM    3  O1  UNK     1      18.351   7.412  32.868  1.00  0.00    -0.302 OA
HETATM    4  O2  UNK     1      14.356   7.444  32.047  1.00  0.00    -0.287 OA
HETATM    5  C1  UNK     1      16.216   8.569  32.981  1.00  0.00     0.051 A 
HETATM    6  C2  UNK     1      17.587   8.493  33.232  1.00  0.00     0.112 A 
HETATM    7  C3  UNK     1      17.721   6.365  32.230  1.00  0.00     0.147 A 
HETATM    8  C4  UNK     1      15.553   7.445  32.297  1.00  0.00     0.187 A 
HETATM    9  C5  UNK     1      16.418   6.305  31.927  1.00  0.00     0.098 A 
HETATM   10  C6  UNK     1      15.488   9.694  33.371  1.00  0.00     0.042 A 
HETATM   11  C7  UNK     1      18.236   9.546  33.875  1.00  0.00     0.070 A 
HETATM   12  C8  UNK     1      16.141  10.746  34.016  1.00  0.00     0.036 A 
HETATM   13  C9  UNK     1      17.512  10.672  34.268  1.00  0.00     0.050 A 
ENDROOT
BRANCH   7  14
HETATM   14  C10 UNK     1      18.553   5.222  31.849  1.00  0.00     0.281 C 
HETATM   15  O3  UNK     1      19.766   5.369  31.698  1.00  0.00    -0.265 OA
HETATM   16  N1  UNK     1      17.811   4.057  31.701  1.00  0.00    -0.298 N 
HETATM   17  H4  UNK     1      16.807   4.093  31.862  1.00  0.00     0.171 HD
BRANCH  16  18
HETATM   18  C11 UNK     1      18.282   2.770  31.342  1.00  0.00     0.197 A 
HETATM   19  S1  UNK     1      18.684   2.578  29.707  1.00  0.00    -0.022 SA
HETATM   20  C12 UNK     1      19.085   0.966  30.136  1.00  0.00     0.160 A 
HETATM   21  N3  UNK     1      18.908   0.673  31.406  1.00  0.00    -0.133 NA
HETATM   22  N2  UNK     1      18.427   1.758  32.121  1.00  0.00    -0.122 NA
BRANCH  20  23
HETATM   23  S2  UNK     1      19.684  -0.207  28.991  1.00  0.00    -0.105 SA
HETATM   24  C13 UNK     1      20.227  -1.526  30.108  1.00  0.00     0.098 C 
ENDBRANCH  20  23
ENDBRANCH  16  18
ENDBRANCH   7  14
TORSDOF 3
ENDMDL
MODEL 7
REMARK VINA RESULT:      -8.4     10.012     13.998
REMARK  3 active torsions:
REMARK  status: ('A' for Active; 'I' for Inactive)
REMARK    1  A    between atoms: C12_22  and  S2_4 
REMARK       I    between atoms: C10_20  and  N1_8 
REMARK    2  A    between atoms: C11_21  and  N1_8 
REMARK    3  A    between atoms: C10_20  and  C3_13 
ROOT
HETATM    1 Cl1  UNK     1      22.058  -7.168  39.807  1.00  0.00    -0.081 Cl
HETATM    2 Cl2  UNK     1      19.559 -11.759  38.529  1.00  0.00    -0.084 Cl
HETATM    3  O1  UNK     1      20.286  -5.966  37.796  1.00  0.00    -0.302 OA
HETATM    4  O2  UNK     1      17.459  -7.830  35.523  1.00  0.00    -0.287 OA
HETATM    5  C1  UNK     1      19.131  -8.016  37.185  1.00  0.00     0.051 A 
HETATM    6  C2  UNK     1      20.082  -7.317  37.931  1.00  0.00     0.112 A 
HETATM    7  C3  UNK     1      19.512  -5.287  36.879  1.00  0.00     0.147 A 
HETATM    8  C4  UNK     1      18.308  -7.280  36.210  1.00  0.00     0.187 A 
HETATM    9  C5  UNK     1      18.567  -5.830  36.100  1.00  0.00     0.098 A 
HETATM   10  C6  UNK     1      18.964  -9.391  37.365  1.00  0.00     0.042 A 
HETATM   11  C7  UNK     1      20.870  -7.992  38.862  1.00  0.00     0.070 A 
HETATM   12  C8  UNK     1      19.756 -10.063  38.298  1.00  0.00     0.036 A 
HETATM   13  C9  UNK     1      20.707  -9.366  39.044  1.00  0.00     0.050 A 
ENDROOT
BRANCH   7  14
HETATM   14  C10 UNK     1      19.744  -3.848  36.751  1.00  0.00     0.281 C 
HETATM   15  O3  UNK     1      20.876  -3.428  36.509  1.00  0.00    -0.265 OA
HETATM   16  N1  UNK     1      18.582  -3.108  36.931  1.00  0.00    -0.298 N 
HETATM   17  H4  UNK     1      17.714  -3.602  37.126  1.00  0.00     0.171 HD
BRANCH  16  18
HETATM   18  C11 UNK     1      18.434  -1.700  36.880  1.00  0.00     0.197 A 
HETATM   19  S1  UNK     1      18.672  -1.004  35.354  1.00  0.00    -0.022 SA
HETATM   20  C12 UNK     1      18.345   0.488  36.134  1.00  0.00     0.160 A 
HETATM   21  N3  UNK     1      18.089   0.393  37.422  1.00  0.00    -0.133 NA
HETATM   22  N2  UNK     1      18.145  -0.920  37.860  1.00  0.00    -0.122 NA
BRANCH  20  23
HETATM   23  S2  UNK     1      18.345   2.023  35.303  1.00  0.00    -0.105 SA
HETATM   24  C13 UNK     1      18.291   1.474  33.577  1.00  0.00     0.098 C 
ENDBRANCH  20  23
ENDBRANCH  16  18
ENDBRANCH   7  14
TORSDOF 3
ENDMDL
MODEL 8
REMARK VINA RESULT:      -8.3      3.228      3.534
REMARK  3 active torsions:
REMARK  status: ('A' for Active; 'I' for Inactive)
REMARK    1  A    between atoms: C12_22  and  S2_4 
REMARK       I    between atoms: C10_20  and  N1_8 
REMARK    2  A    between atoms: C11_21  and  N1_8 
REMARK    3  A    between atoms: C10_20  and  C3_13 
ROOT
HETATM    1 Cl1  UNK     1      14.079   7.402  32.936  1.00  0.00    -0.081 Cl
HETATM    2 Cl2  UNK     1      16.160  12.194  34.223  1.00  0.00    -0.084 Cl
HETATM    3  O1  UNK     1      16.837   6.433  33.238  1.00  0.00    -0.302 OA
HETATM    4  O2  UNK     1      20.149   8.593  34.237  1.00  0.00    -0.287 OA
HETATM    5  C1  UNK     1      17.820   8.578  33.822  1.00  0.00     0.051 A 
HETATM    6  C2  UNK     1      16.728   7.781  33.476  1.00  0.00     0.112 A 
HETATM    7  C3  UNK     1      18.085   5.859  33.349  1.00  0.00     0.147 A 
HETATM    8  C4  UNK     1      19.149   7.954  33.939  1.00  0.00     0.187 A 
HETATM    9  C5  UNK     1      19.215   6.502  33.673  1.00  0.00     0.098 A 
HETATM   10  C6  UNK     1      17.652   9.945  34.054  1.00  0.00     0.042 A 
HETATM   11  C7  UNK     1      15.459   8.349  33.361  1.00  0.00     0.070 A 
HETATM   12  C8  UNK     1      16.381  10.510  33.938  1.00  0.00     0.036 A 
HETATM   13  C9  UNK     1      15.288   9.714  33.592  1.00  0.00     0.050 A 
ENDROOT
BRANCH   7  14
HETATM   14  C10 UNK     1      18.180   4.421  33.093  1.00  0.00     0.281 C 
HETATM   15  O3  UNK     1      18.336   4.011  31.942  1.00  0.00    -0.265 OA
HETATM   16  N1  UNK     1      18.072   3.670  34.257  1.00  0.00    -0.298 N 
HETATM   17  H4  UNK     1      17.945   4.156  35.141  1.00  0.00     0.171 HD
BRANCH  16  18
HETATM   18  C11 UNK     1      18.118   2.260  34.386  1.00  0.00     0.197 A 
HETATM   19  S1  UNK     1      18.870   1.686  35.791  1.00  0.00    -0.022 SA
HETATM   20  C12 UNK     1      18.515   0.123  35.180  1.00  0.00     0.160 A 
HETATM   21  N3  UNK     1      17.888   0.113  34.023  1.00  0.00    -0.133 NA
HETATM   22  N2  UNK     1      17.654   1.396  33.555  1.00  0.00    -0.122 NA
BRANCH  20  23
HETATM   23  S2  UNK     1      18.942  -1.349  36.013  1.00  0.00    -0.105 SA
HETATM   24  C13 UNK     1      18.002  -1.155  37.550  1.00  0.00     0.098 C 
ENDBRANCH  20  23
ENDBRANCH  16  18
ENDBRANCH   7  14
TORSDOF 3
ENDMDL
MODEL 9
REMARK VINA RESULT:      -8.2      7.805     10.231
REMARK  3 active torsions:
REMARK  status: ('A' for Active; 'I' for Inactive)
REMARK    1  A    between atoms: C12_22  and  S2_4 
REMARK       I    between atoms: C10_20  and  N1_8 
REMARK    2  A    between atoms: C11_21  and  N1_8 
REMARK    3  A    between atoms: C10_20  and  C3_13 
ROOT
HETATM    1 Cl1  UNK     1      21.299  -3.688  31.574  1.00  0.00    -0.081 Cl
HETATM    2 Cl2  UNK     1      19.567   0.529  28.715  1.00  0.00    -0.084 Cl
HETATM    3  O1  UNK     1      19.910  -2.388  33.813  1.00  0.00    -0.302 OA
HETATM    4  O2  UNK     1      17.832   1.120  33.767  1.00  0.00    -0.287 OA
HETATM    5  C1  UNK     1      19.108  -0.465  32.562  1.00  0.00     0.051 A 
HETATM    6  C2  UNK     1      19.804  -1.672  32.647  1.00  0.00     0.112 A 
HETATM    7  C3  UNK     1      19.298  -1.879  34.939  1.00  0.00     0.147 A 
HETATM    8  C4  UNK     1      18.457   0.069  33.770  1.00  0.00     0.187 A 
HETATM    9  C5  UNK     1      18.600  -0.738  35.000  1.00  0.00     0.098 A 
HETATM   10  C6  UNK     1      19.030   0.222  31.348  1.00  0.00     0.042 A 
HETATM   11  C7  UNK     1      20.427  -2.198  31.515  1.00  0.00     0.070 A 
HETATM   12  C8  UNK     1      19.656  -0.308  30.218  1.00  0.00     0.036 A 
HETATM   13  C9  UNK     1      20.353  -1.514  30.302  1.00  0.00     0.050 A 
ENDROOT
BRANCH   7  14
HETATM   14  C10 UNK     1      19.422  -2.658  36.172  1.00  0.00     0.281 C 
HETATM   15  O3  UNK     1      19.234  -2.117  37.262  1.00  0.00    -0.265 OA
HETATM   16  N1  UNK     1      19.756  -3.984  35.926  1.00  0.00    -0.298 N 
HETATM   17  H4  UNK     1      19.879  -4.286  34.963  1.00  0.00     0.171 HD
BRANCH  16  18
HETATM   18  C11 UNK     1      19.958  -5.017  36.875  1.00  0.00     0.197 A 
HETATM   19  S1  UNK     1      18.985  -6.388  36.669  1.00  0.00    -0.022 SA
HETATM   20  C12 UNK     1      19.794  -7.002  38.051  1.00  0.00     0.160 A 
HETATM   21  N3  UNK     1      20.699  -6.196  38.564  1.00  0.00    -0.133 NA
HETATM   22  N2  UNK     1      20.791  -5.010  37.855  1.00  0.00    -0.122 NA
BRANCH  20  23
HETATM   23  S2  UNK     1      19.459  -8.571  38.737  1.00  0.00    -0.105 SA
HETATM   24  C13 UNK     1      19.067  -9.519  37.243  1.00  0.00     0.098 C 
ENDBRANCH  20  23
ENDBRANCH  16  18
ENDBRANCH   7  14
TORSDOF 3
ENDMDL
MODEL 10
REMARK VINA RESULT:      -8.2      9.738     13.611
REMARK  3 active torsions:
REMARK  status: ('A' for Active; 'I' for Inactive)
REMARK    1  A    between atoms: C12_22  and  S2_4 
REMARK       I    between atoms: C10_20  and  N1_8 
REMARK    2  A    between atoms: C11_21  and  N1_8 
REMARK    3  A    between atoms: C10_20  and  C3_13 
ROOT
HETATM    1 Cl1  UNK     1      17.407  -7.336  35.415  1.00  0.00    -0.081 Cl
HETATM    2 Cl2  UNK     1      19.746 -11.414  38.033  1.00  0.00    -0.084 Cl
HETATM    3  O1  UNK     1      19.470  -5.689  36.706  1.00  0.00    -0.302 OA
HETATM    4  O2  UNK     1      22.417  -6.911  39.245  1.00  0.00    -0.287 OA
HETATM    5  C1  UNK     1      20.557  -7.500  37.908  1.00  0.00     0.051 A 
HETATM    6  C2  UNK     1      19.573  -7.015  37.045  1.00  0.00     0.112 A 
HETATM    7  C3  UNK     1      20.384  -4.813  37.249  1.00  0.00     0.147 A 
HETATM    8  C4  UNK     1      21.530  -6.555  38.482  1.00  0.00     0.187 A 
HETATM    9  C5  UNK     1      21.377  -5.140  38.087  1.00  0.00     0.098 A 
HETATM   10  C6  UNK     1      20.617  -8.861  38.218  1.00  0.00     0.042 A 
HETATM   11  C7  UNK     1      18.642  -7.892  36.488  1.00  0.00     0.070 A 
HETATM   12  C8  UNK     1      19.683  -9.734  37.658  1.00  0.00     0.036 A 
HETATM   13  C9  UNK     1      18.698  -9.251  36.796  1.00  0.00     0.050 A 
ENDROOT
BRANCH   7  14
HETATM   14  C10 UNK     1      20.258  -3.404  36.874  1.00  0.00     0.281 C 
HETATM   15  O3  UNK     1      21.084  -2.894  36.116  1.00  0.00    -0.265 OA
HETATM   16  N1  UNK     1      19.156  -2.798  37.463  1.00  0.00    -0.298 N 
HETATM   17  H4  UNK     1      18.560  -3.355  38.072  1.00  0.00     0.171 HD
BRANCH  16  18
HETATM   18  C11 UNK     1      18.729  -1.454  37.327  1.00  0.00     0.197 A 
HETATM   19  S1  UNK     1      18.632  -0.884  35.735  1.00  0.00    -0.022 SA
HETATM   20  C12 UNK     1      18.119   0.594  36.439  1.00  0.00     0.160 A 
HETATM   21  N3  UNK     1      18.051   0.584  37.753  1.00  0.00    -0.133 NA
HETATM   22  N2  UNK     1      18.418  -0.645  38.277  1.00  0.00    -0.122 NA
BRANCH  20  23
HETATM   23  S2  UNK     1      17.715   2.009  35.503  1.00  0.00    -0.105 SA
HETATM   24  C13 UNK     1      18.215   1.475  33.845  1.00  0.00     0.098 C 
ENDBRANCH  20  23
ENDBRANCH  16  18
ENDBRANCH   7  14
TORSDOF 3
ENDMDL
