MODEL 1
REMARK VINA RESULT:      -9.5      0.000      0.000
REMARK  9 active torsions:
REMARK  status: ('A' for Active; 'I' for Inactive)
REMARK    1  A    between atoms: C15_25  and  O2_2 
REMARK    2  A    between atoms: C9_19  and  O2_2 
REMARK    3  A    between atoms: C20_30  and  O4_4 
REMARK    4  A    between atoms: C21_31  and  O4_4 
REMARK    5  A    between atoms: C12_22  and  N1_9 
REMARK       I    between atoms: C20_30  and  N1_9 
REMARK    6  A    between atoms: C18_28  and  N2_10 
REMARK    7  A    between atoms: C1_11  and  C6_16 
REMARK    8  A    between atoms: C12_22  and  C15_25 
REMARK    9  A    between atoms: C21_31  and  C22_32 
ROOT
HETATM    1  O1  UNK     1      19.493  -0.958  34.156  1.00  0.00    -0.313 OA
HETATM    2  O3  UNK     1      18.494  -1.671  38.034  1.00  0.00    -0.286 OA
HETATM    3  C1  UNK     1      19.523  -2.470  36.043  1.00  0.00     0.054 A 
HETATM    4  C2  UNK     1      18.461  -0.191  36.208  1.00  0.00     0.049 A 
HETATM    5  C3  UNK     1      18.830  -0.006  34.881  1.00  0.00     0.092 A 
HETATM    6  C4  UNK     1      18.798  -1.460  36.866  1.00  0.00     0.198 A 
HETATM    7  C5  UNK     1      19.821  -2.164  34.762  1.00  0.00     0.065 A 
HETATM    8  C7  UNK     1      18.524   1.191  34.232  1.00  0.00     0.075 A 
HETATM    9  C8  UNK     1      17.785   0.817  36.900  1.00  0.00     0.021 A 
HETATM   10  C9  UNK     1      17.849   2.201  34.917  1.00  0.00     0.082 A 
HETATM   11  C10 UNK     1      17.479   2.014  36.250  1.00  0.00     0.038 A 
HETATM   12  C11 UNK     1      20.545  -3.076  33.811  1.00  0.00     0.077 C 
ENDROOT
BRANCH  10  13
HETATM   13  O2  UNK     1      17.549   3.369  34.286  1.00  0.00    -0.277 OA
BRANCH  13  14
HETATM   14  C15 UNK     1      18.651   4.209  34.059  1.00  0.00     0.286 C 
HETATM   15  O5  UNK     1      19.622   4.298  34.804  1.00  0.00    -0.263 OA
BRANCH  14  16
HETATM   16  C12 UNK     1      18.528   5.009  32.768  1.00  0.00     0.183 C 
HETATM   17  C19 UNK     1      17.329   5.942  32.839  1.00  0.00     0.043 C 
BRANCH  16  18
HETATM   18  N1  UNK     1      18.430   4.155  31.613  1.00  0.00    -0.323 N 
HETATM   19  C20 UNK     1      19.056   4.414  30.408  1.00  0.00     0.361 C 
HETATM   20  O6  UNK     1      19.765   5.385  30.167  1.00  0.00    -0.238 OA
HETATM   21  H15 UNK     1      17.858   3.318  31.677  1.00  0.00     0.165 HD
BRANCH  19  22
HETATM   22  O4  UNK     1      18.771   3.421  29.514  1.00  0.00    -0.299 OA
BRANCH  22  23
HETATM   23  C21 UNK     1      18.101   2.273  30.048  1.00  0.00     0.219 C 
BRANCH  23  24
HETATM   24  C22 UNK     1      18.966   1.064  29.849  1.00  0.00    -0.034 A 
HETATM   25  C24 UNK     1      19.042   0.459  28.595  1.00  0.00     0.009 A 
HETATM   26  C26 UNK     1      19.848  -0.664  28.409  1.00  0.00     0.001 A 
HETATM   27  C27 UNK     1      20.577  -1.183  29.480  1.00  0.00     0.000 A 
HETATM   28  C25 UNK     1      20.500  -0.579  30.735  1.00  0.00     0.001 A 
HETATM   29  C23 UNK     1      19.695   0.545  30.919  1.00  0.00     0.009 A 
ENDBRANCH  23  24
ENDBRANCH  22  23
ENDBRANCH  19  22
ENDBRANCH  16  18
ENDBRANCH  14  16
ENDBRANCH  13  14
ENDBRANCH  10  13
BRANCH   3  30
HETATM   30  C6  UNK     1      19.886  -3.749  36.640  1.00  0.00    -0.019 A 
HETATM   31  C13 UNK     1      19.056  -4.858  36.470  1.00  0.00     0.015 A 
HETATM   32  C16 UNK     1      19.403  -6.082  37.041  1.00  0.00     0.037 A 
HETATM   33  C18 UNK     1      20.578  -6.197  37.783  1.00  0.00     0.102 A 
HETATM   34  C17 UNK     1      21.408  -5.089  37.953  1.00  0.00     0.037 A 
HETATM   35  C14 UNK     1      21.061  -3.865  37.382  1.00  0.00     0.015 A 
BRANCH  33  36
HETATM   36  N2  UNK     1      20.930  -7.443  38.366  1.00  0.00    -0.116 N 
HETATM   37  O7  UNK     1      21.453  -7.456  39.507  1.00  0.00    -0.532 OA
HETATM   38  O8  UNK     1      20.710  -8.499  37.723  1.00  0.00    -0.532 OA
ENDBRANCH  33  36
ENDBRANCH   3  30
TORSDOF 9
ENDMDL
MODEL 2
REMARK VINA RESULT:      -9.2      4.565     11.642
REMARK  9 active torsions:
REMARK  status: ('A' for Active; 'I' for Inactive)
REMARK    1  A    between atoms: C15_25  and  O2_2 
REMARK    2  A    between atoms: C9_19  and  O2_2 
REMARK    3  A    between atoms: C20_30  and  O4_4 
REMARK    4  A    between atoms: C21_31  and  O4_4 
REMARK    5  A    between atoms: C12_22  and  N1_9 
REMARK       I    between atoms: C20_30  and  N1_9 
REMARK    6  A    between atoms: C18_28  and  N2_10 
REMARK    7  A    between atoms: C1_11  and  C6_16 
REMARK    8  A    between atoms: C12_22  and  C15_25 
REMARK    9  A    between atoms: C21_31  and  C22_32 
ROOT
HETATM    1  O1  UNK     1      15.576   6.458  32.271  1.00  0.00    -0.313 OA
HETATM    2  O3  UNK     1      17.758   9.629  33.586  1.00  0.00    -0.286 OA
HETATM    3  C1  UNK     1      15.606   8.676  33.234  1.00  0.00     0.054 A 
HETATM    4  C2  UNK     1      17.742   7.472  32.652  1.00  0.00     0.049 A 
HETATM    5  C3  UNK     1      16.943   6.421  32.219  1.00  0.00     0.092 A 
HETATM    6  C4  UNK     1      17.097   8.676  33.192  1.00  0.00     0.198 A 
HETATM    7  C5  UNK     1      14.949   7.587  32.779  1.00  0.00     0.065 A 
HETATM    8  C7  UNK     1      17.530   5.264  31.703  1.00  0.00     0.075 A 
HETATM    9  C8  UNK     1      19.134   7.379  32.575  1.00  0.00     0.021 A 
HETATM   10  C9  UNK     1      18.920   5.166  31.624  1.00  0.00     0.082 A 
HETATM   11  C10 UNK     1      19.720   6.222  32.059  1.00  0.00     0.038 A 
HETATM   12  C11 UNK     1      13.453   7.439  32.757  1.00  0.00     0.077 C 
ENDROOT
BRANCH  10  13
HETATM   13  O2  UNK     1      19.494   4.039  31.120  1.00  0.00    -0.277 OA
BRANCH  13  14
HETATM   14  C15 UNK     1      18.943   3.595  29.907  1.00  0.00     0.286 C 
HETATM   15  O5  UNK     1      18.610   4.333  28.984  1.00  0.00    -0.263 OA
BRANCH  14  16
HETATM   16  C12 UNK     1      18.805   2.080  29.841  1.00  0.00     0.183 C 
HETATM   17  C19 UNK     1      17.787   1.689  28.782  1.00  0.00     0.043 C 
BRANCH  16  18
HETATM   18  N1  UNK     1      18.443   1.516  31.116  1.00  0.00    -0.323 N 
HETATM   19  C20 UNK     1      19.190   0.556  31.773  1.00  0.00     0.361 C 
HETATM   20  O6  UNK     1      20.239   0.067  31.368  1.00  0.00    -0.238 OA
HETATM   21  H15 UNK     1      17.583   1.828  31.556  1.00  0.00     0.165 HD
BRANCH  19  22
HETATM   22  O4  UNK     1      18.585   0.227  32.953  1.00  0.00    -0.299 OA
BRANCH  22  23
HETATM   23  C21 UNK     1      18.208   1.326  33.790  1.00  0.00     0.219 C 
BRANCH  23  24
HETATM   24  C22 UNK     1      18.019   0.831  35.194  1.00  0.00    -0.034 A 
HETATM   25  C24 UNK     1      17.910   1.739  36.245  1.00  0.00     0.009 A 
HETATM   26  C26 UNK     1      17.734   1.279  37.551  1.00  0.00     0.001 A 
HETATM   27  C27 UNK     1      17.667  -0.091  37.803  1.00  0.00     0.000 A 
HETATM   28  C25 UNK     1      17.776  -1.001  36.751  1.00  0.00     0.001 A 
HETATM   29  C23 UNK     1      17.952  -0.540  35.446  1.00  0.00     0.009 A 
ENDBRANCH  23  24
ENDBRANCH  22  23
ENDBRANCH  19  22
ENDBRANCH  16  18
ENDBRANCH  14  16
ENDBRANCH  13  14
ENDBRANCH  10  13
BRANCH   3  30
HETATM   30  C6  UNK     1      14.907   9.841  33.760  1.00  0.00    -0.019 A 
HETATM   31  C13 UNK     1      14.749   9.996  35.138  1.00  0.00     0.015 A 
HETATM   32  C16 UNK     1      14.079  11.110  35.641  1.00  0.00     0.037 A 
HETATM   33  C18 UNK     1      13.568  12.070  34.768  1.00  0.00     0.102 A 
HETATM   34  C17 UNK     1      13.726  11.916  33.390  1.00  0.00     0.037 A 
HETATM   35  C14 UNK     1      14.396  10.801  32.887  1.00  0.00     0.015 A 
BRANCH  33  36
HETATM   36  N2  UNK     1      12.885  13.205  35.280  1.00  0.00    -0.116 N 
HETATM   37  O7  UNK     1      13.367  13.813  36.266  1.00  0.00    -0.532 OA
HETATM   38  O8  UNK     1      11.816  13.569  34.732  1.00  0.00    -0.532 OA
ENDBRANCH  33  36
ENDBRANCH   3  30
TORSDOF 9
ENDMDL
MODEL 3
REMARK VINA RESULT:      -9.2      4.004     11.174
REMARK  9 active torsions:
REMARK  status: ('A' for Active; 'I' for Inactive)
REMARK    1  A    between atoms: C15_25  and  O2_2 
REMARK    2  A    between atoms: C9_19  and  O2_2 
REMARK    3  A    between atoms: C20_30  and  O4_4 
REMARK    4  A    between atoms: C21_31  and  O4_4 
REMARK    5  A    between atoms: C12_22  and  N1_9 
REMARK       I    between atoms: C20_30  and  N1_9 
REMARK    6  A    between atoms: C18_28  and  N2_10 
REMARK    7  A    between atoms: C1_11  and  C6_16 
REMARK    8  A    between atoms: C12_22  and  C15_25 
REMARK    9  A    between atoms: C21_31  and  C22_32 
ROOT
HETATM    1  O1  UNK     1      17.426   5.718  33.545  1.00  0.00    -0.313 OA
HETATM    2  O3  UNK     1      16.619   8.573  30.762  1.00  0.00    -0.286 OA
HETATM    3  C1  UNK     1      16.477   7.883  33.035  1.00  0.00     0.054 A 
HETATM    4  C2  UNK     1      17.548   6.468  31.245  1.00  0.00     0.049 A 
HETATM    5  C3  UNK     1      17.797   5.531  32.241  1.00  0.00     0.092 A 
HETATM    6  C4  UNK     1      16.861   7.716  31.603  1.00  0.00     0.198 A 
HETATM    7  C5  UNK     1      16.777   6.892  33.902  1.00  0.00     0.065 A 
HETATM    8  C7  UNK     1      18.449   4.338  31.929  1.00  0.00     0.075 A 
HETATM    9  C8  UNK     1      17.949   6.223  29.929  1.00  0.00     0.021 A 
HETATM   10  C9  UNK     1      18.852   4.087  30.617  1.00  0.00     0.082 A 
HETATM   11  C10 UNK     1      18.602   5.030  29.618  1.00  0.00     0.038 A 
HETATM   12  C11 UNK     1      16.455   6.915  35.370  1.00  0.00     0.077 C 
ENDROOT
BRANCH  10  13
HETATM   13  O2  UNK     1      19.488   2.924  30.310  1.00  0.00    -0.277 OA
BRANCH  13  14
HETATM   14  C15 UNK     1      18.666   1.947  29.723  1.00  0.00     0.286 C 
HETATM   15  O5  UNK     1      17.511   2.140  29.356  1.00  0.00    -0.263 OA
BRANCH  14  16
HETATM   16  C12 UNK     1      19.363   0.601  29.575  1.00  0.00     0.183 C 
HETATM   17  C19 UNK     1      18.966  -0.056  28.263  1.00  0.00     0.043 C 
BRANCH  16  18
HETATM   18  N1  UNK     1      19.081  -0.276  30.681  1.00  0.00    -0.323 N 
HETATM   19  C20 UNK     1      20.045  -0.767  31.541  1.00  0.00     0.361 C 
HETATM   20  O6  UNK     1      21.246  -0.524  31.480  1.00  0.00    -0.238 OA
HETATM   21  H15 UNK     1      18.120  -0.566  30.835  1.00  0.00     0.165 HD
BRANCH  19  22
HETATM   22  O4  UNK     1      19.463  -1.568  32.481  1.00  0.00    -0.299 OA
BRANCH  22  23
HETATM   23  C21 UNK     1      18.153  -1.179  32.911  1.00  0.00     0.219 C 
BRANCH  23  24
HETATM   24  C22 UNK     1      18.278  -0.232  34.068  1.00  0.00    -0.034 A 
HETATM   25  C24 UNK     1      18.215   1.144  33.854  1.00  0.00     0.009 A 
HETATM   26  C26 UNK     1      18.330   2.024  34.929  1.00  0.00     0.001 A 
HETATM   27  C27 UNK     1      18.508   1.527  36.221  1.00  0.00     0.000 A 
HETATM   28  C25 UNK     1      18.572   0.150  36.436  1.00  0.00     0.001 A 
HETATM   29  C23 UNK     1      18.456  -0.730  35.359  1.00  0.00     0.009 A 
ENDBRANCH  23  24
ENDBRANCH  22  23
ENDBRANCH  19  22
ENDBRANCH  16  18
ENDBRANCH  14  16
ENDBRANCH  13  14
ENDBRANCH  10  13
BRANCH   3  30
HETATM   30  C6  UNK     1      15.794   9.100  33.453  1.00  0.00    -0.019 A 
HETATM   31  C13 UNK     1      14.401   9.172  33.395  1.00  0.00     0.015 A 
HETATM   32  C16 UNK     1      13.747  10.337  33.795  1.00  0.00     0.037 A 
HETATM   33  C18 UNK     1      14.484  11.430  34.250  1.00  0.00     0.102 A 
HETATM   34  C17 UNK     1      15.876  11.358  34.307  1.00  0.00     0.037 A 
HETATM   35  C14 UNK     1      16.531  10.193  33.908  1.00  0.00     0.015 A 
BRANCH  33  36
HETATM   36  N2  UNK     1      13.818  12.617  34.656  1.00  0.00    -0.116 N 
HETATM   37  O7  UNK     1      12.565  12.660  34.604  1.00  0.00    -0.532 OA
HETATM   38  O8  UNK     1      14.501  13.591  35.054  1.00  0.00    -0.532 OA
ENDBRANCH  33  36
ENDBRANCH   3  30
TORSDOF 9
ENDMDL
MODEL 4
REMARK VINA RESULT:      -9.0      8.471     12.047
REMARK  9 active torsions:
REMARK  status: ('A' for Active; 'I' for Inactive)
REMARK    1  A    between atoms: C15_25  and  O2_2 
REMARK    2  A    between atoms: C9_19  and  O2_2 
REMARK    3  A    between atoms: C20_30  and  O4_4 
REMARK    4  A    between atoms: C21_31  and  O4_4 
REMARK    5  A    between atoms: C12_22  and  N1_9 
REMARK       I    between atoms: C20_30  and  N1_9 
REMARK    6  A    between atoms: C18_28  and  N2_10 
REMARK    7  A    between atoms: C1_11  and  C6_16 
REMARK    8  A    between atoms: C12_22  and  C15_25 
REMARK    9  A    between atoms: C21_31  and  C22_32 
ROOT
HETATM    1  O1  UNK     1      24.380 -10.334  36.372  1.00  0.00    -0.313 OA
HETATM    2  O3  UNK     1      22.921  -6.994  38.179  1.00  0.00    -0.286 OA
HETATM    3  C1  UNK     1      22.523  -8.821  36.707  1.00  0.00     0.054 A 
HETATM    4  C2  UNK     1      24.732  -8.459  37.865  1.00  0.00     0.049 A 
HETATM    5  C3  UNK     1      25.173  -9.608  37.219  1.00  0.00     0.092 A 
HETATM    6  C4  UNK     1      23.356  -8.001  37.633  1.00  0.00     0.198 A 
HETATM    7  C5  UNK     1      23.076  -9.916  36.143  1.00  0.00     0.065 A 
HETATM    8  C7  UNK     1      26.476 -10.066  37.422  1.00  0.00     0.075 A 
HETATM    9  C8  UNK     1      25.587  -7.757  38.719  1.00  0.00     0.021 A 
HETATM   10  C9  UNK     1      27.333  -9.370  38.273  1.00  0.00     0.082 A 
HETATM   11  C10 UNK     1      26.889  -8.216  38.921  1.00  0.00     0.038 A 
HETATM   12  C11 UNK     1      22.365 -10.839  35.192  1.00  0.00     0.077 C 
ENDROOT
BRANCH  10  13
HETATM   13  O2  UNK     1      28.604  -9.814  38.472  1.00  0.00    -0.277 OA
BRANCH  13  14
HETATM   14  C15 UNK     1      29.597  -9.042  37.847  1.00  0.00     0.286 C 
HETATM   15  O5  UNK     1      30.344  -8.265  38.434  1.00  0.00    -0.263 OA
BRANCH  14  16
HETATM   16  C12 UNK     1      29.665  -9.272  36.343  1.00  0.00     0.183 C 
HETATM   17  C19 UNK     1      30.803 -10.224  36.007  1.00  0.00     0.043 C 
BRANCH  16  18
HETATM   18  N1  UNK     1      29.812  -8.039  35.615  1.00  0.00    -0.323 N 
HETATM   19  C20 UNK     1      28.760  -7.198  35.304  1.00  0.00     0.361 C 
HETATM   20  O6  UNK     1      27.585  -7.386  35.600  1.00  0.00    -0.238 OA
HETATM   21  H15 UNK     1      30.739  -7.772  35.298  1.00  0.00     0.165 HD
BRANCH  19  22
HETATM   22  O4  UNK     1      29.222  -6.115  34.611  1.00  0.00    -0.299 OA
BRANCH  22  23
HETATM   23  C21 UNK     1      29.936  -6.404  33.403  1.00  0.00     0.219 C 
BRANCH  23  24
HETATM   24  C22 UNK     1      28.981  -6.960  32.390  1.00  0.00    -0.034 A 
HETATM   25  C24 UNK     1      29.171  -8.245  31.883  1.00  0.00     0.009 A 
HETATM   26  C26 UNK     1      28.282  -8.764  30.941  1.00  0.00     0.001 A 
HETATM   27  C27 UNK     1      27.202  -7.995  30.506  1.00  0.00     0.000 A 
HETATM   28  C25 UNK     1      27.012  -6.709  31.012  1.00  0.00     0.001 A 
HETATM   29  C23 UNK     1      27.901  -6.192  31.954  1.00  0.00     0.009 A 
ENDBRANCH  23  24
ENDBRANCH  22  23
ENDBRANCH  19  22
ENDBRANCH  16  18
ENDBRANCH  14  16
ENDBRANCH  13  14
ENDBRANCH  10  13
BRANCH   3  30
HETATM   30  C6  UNK     1      21.149  -8.419  36.438  1.00  0.00    -0.019 A 
HETATM   31  C13 UNK     1      20.869  -7.563  35.372  1.00  0.00     0.015 A 
HETATM   32  C16 UNK     1      19.554  -7.177  35.115  1.00  0.00     0.037 A 
HETATM   33  C18 UNK     1      18.519  -7.646  35.924  1.00  0.00     0.102 A 
HETATM   34  C17 UNK     1      18.798  -8.501  36.990  1.00  0.00     0.037 A 
HETATM   35  C14 UNK     1      20.113  -8.887  37.247  1.00  0.00     0.015 A 
BRANCH  33  36
HETATM   36  N2  UNK     1      17.180  -7.252  35.663  1.00  0.00    -0.116 N 
HETATM   37  O7  UNK     1      16.599  -7.703  34.646  1.00  0.00    -0.532 OA
HETATM   38  O8  UNK     1      16.613  -6.463  36.457  1.00  0.00    -0.532 OA
ENDBRANCH  33  36
ENDBRANCH   3  30
TORSDOF 9
ENDMDL
MODEL 5
REMARK VINA RESULT:      -8.9      8.475     13.101
REMARK  9 active torsions:
REMARK  status: ('A' for Active; 'I' for Inactive)
REMARK    1  A    between atoms: C15_25  and  O2_2 
REMARK    2  A    between atoms: C9_19  and  O2_2 
REMARK    3  A    between atoms: C20_30  and  O4_4 
REMARK    4  A    between atoms: C21_31  and  O4_4 
REMARK    5  A    between atoms: C12_22  and  N1_9 
REMARK       I    between atoms: C20_30  and  N1_9 
REMARK    6  A    between atoms: C18_28  and  N2_10 
REMARK    7  A    between atoms: C1_11  and  C6_16 
REMARK    8  A    between atoms: C12_22  and  C15_25 
REMARK    9  A    between atoms: C21_31  and  C22_32 
ROOT
HETATM    1  O1  UNK     1      24.387 -10.470  36.319  1.00  0.00    -0.313 OA
HETATM    2  O3  UNK     1      23.007  -7.133  38.191  1.00  0.00    -0.286 OA
HETATM    3  C1  UNK     1      22.566  -8.921  36.684  1.00  0.00     0.054 A 
HETATM    4  C2  UNK     1      24.783  -8.633  37.847  1.00  0.00     0.049 A 
HETATM    5  C3  UNK     1      25.197  -9.780  37.179  1.00  0.00     0.092 A 
HETATM    6  C4  UNK     1      23.418  -8.139  37.626  1.00  0.00     0.198 A 
HETATM    7  C5  UNK     1      23.093 -10.018  36.099  1.00  0.00     0.065 A 
HETATM    8  C7  UNK     1      26.488 -10.272  37.372  1.00  0.00     0.075 A 
HETATM    9  C8  UNK     1      25.654  -7.969  38.715  1.00  0.00     0.021 A 
HETATM   10  C9  UNK     1      27.362  -9.613  38.237  1.00  0.00     0.082 A 
HETATM   11  C10 UNK     1      26.945  -8.462  38.907  1.00  0.00     0.038 A 
HETATM   12  C11 UNK     1      22.361 -10.904  35.130  1.00  0.00     0.077 C 
ENDROOT
BRANCH  10  13
HETATM   13  O2  UNK     1      28.622 -10.091  38.426  1.00  0.00    -0.277 OA
BRANCH  13  14
HETATM   14  C15 UNK     1      29.639  -9.286  37.887  1.00  0.00     0.286 C 
HETATM   15  O5  UNK     1      30.689  -9.016  38.461  1.00  0.00    -0.263 OA
BRANCH  14  16
HETATM   16  C12 UNK     1      29.311  -8.778  36.489  1.00  0.00     0.183 C 
HETATM   17  C19 UNK     1      29.692  -9.818  35.447  1.00  0.00     0.043 C 
BRANCH  16  18
HETATM   18  N1  UNK     1      29.959  -7.524  36.205  1.00  0.00    -0.323 N 
HETATM   19  C20 UNK     1      29.444  -6.292  36.563  1.00  0.00     0.361 C 
HETATM   20  O6  UNK     1      28.388  -6.106  37.157  1.00  0.00    -0.238 OA
HETATM   21  H15 UNK     1      30.841  -7.538  35.702  1.00  0.00     0.165 HD
BRANCH  19  22
HETATM   22  O4  UNK     1      30.290  -5.300  36.154  1.00  0.00    -0.299 OA
BRANCH  22  23
HETATM   23  C21 UNK     1      31.110  -4.719  37.175  1.00  0.00     0.219 C 
BRANCH  23  24
HETATM   24  C22 UNK     1      32.546  -5.058  36.901  1.00  0.00    -0.034 A 
HETATM   25  C24 UNK     1      33.223  -5.950  37.732  1.00  0.00     0.009 A 
HETATM   26  C26 UNK     1      34.558  -6.266  37.477  1.00  0.00     0.001 A 
HETATM   27  C27 UNK     1      35.215  -5.689  36.390  1.00  0.00     0.000 A 
HETATM   28  C25 UNK     1      34.538  -4.796  35.559  1.00  0.00     0.001 A 
HETATM   29  C23 UNK     1      33.203  -4.482  35.814  1.00  0.00     0.009 A 
ENDBRANCH  23  24
ENDBRANCH  22  23
ENDBRANCH  19  22
ENDBRANCH  16  18
ENDBRANCH  14  16
ENDBRANCH  13  14
ENDBRANCH  10  13
BRANCH   3  30
HETATM   30  C6  UNK     1      21.202  -8.481  36.424  1.00  0.00    -0.019 A 
HETATM   31  C13 UNK     1      20.937  -7.627  35.353  1.00  0.00     0.015 A 
HETATM   32  C16 UNK     1      19.631  -7.205  35.104  1.00  0.00     0.037 A 
HETATM   33  C18 UNK     1      18.590  -7.637  35.926  1.00  0.00     0.102 A 
HETATM   34  C17 UNK     1      18.855  -8.491  36.997  1.00  0.00     0.037 A 
HETATM   35  C14 UNK     1      20.161  -8.913  37.246  1.00  0.00     0.015 A 
BRANCH  33  36
HETATM   36  N2  UNK     1      17.261  -7.207  35.673  1.00  0.00    -0.116 N 
HETATM   37  O7  UNK     1      16.663  -7.640  34.658  1.00  0.00    -0.532 OA
HETATM   38  O8  UNK     1      16.720  -6.405  36.472  1.00  0.00    -0.532 OA
ENDBRANCH  33  36
ENDBRANCH   3  30
TORSDOF 9
ENDMDL
MODEL 6
REMARK VINA RESULT:      -8.9     11.385     15.416
REMARK  9 active torsions:
REMARK  status: ('A' for Active; 'I' for Inactive)
REMARK    1  A    between atoms: C15_25  and  O2_2 
REMARK    2  A    between atoms: C9_19  and  O2_2 
REMARK    3  A    between atoms: C20_30  and  O4_4 
REMARK    4  A    between atoms: C21_31  and  O4_4 
REMARK    5  A    between atoms: C12_22  and  N1_9 
REMARK       I    between atoms: C20_30  and  N1_9 
REMARK    6  A    between atoms: C18_28  and  N2_10 
REMARK    7  A    between atoms: C1_11  and  C6_16 
REMARK    8  A    between atoms: C12_22  and  C15_25 
REMARK    9  A    between atoms: C21_31  and  C22_32 
ROOT
HETATM    1  O1  UNK     1      29.447  -6.529  33.676  1.00  0.00    -0.313 OA
HETATM    2  O3  UNK     1      32.216  -9.471  34.154  1.00  0.00    -0.286 OA
HETATM    3  C1  UNK     1      31.437  -7.633  32.859  1.00  0.00     0.054 A 
HETATM    4  C2  UNK     1      30.282  -8.405  34.961  1.00  0.00     0.049 A 
HETATM    5  C3  UNK     1      29.368  -7.380  34.744  1.00  0.00     0.092 A 
HETATM    6  C4  UNK     1      31.384  -8.583  34.007  1.00  0.00     0.198 A 
HETATM    7  C5  UNK     1      30.483  -6.682  32.765  1.00  0.00     0.065 A 
HETATM    8  C7  UNK     1      28.312  -7.188  35.637  1.00  0.00     0.075 A 
HETATM    9  C8  UNK     1      30.152  -9.244  36.070  1.00  0.00     0.021 A 
HETATM   10  C9  UNK     1      28.177  -8.024  36.745  1.00  0.00     0.082 A 
HETATM   11  C10 UNK     1      29.096  -9.051  36.961  1.00  0.00     0.038 A 
HETATM   12  C11 UNK     1      30.403  -5.656  31.668  1.00  0.00     0.077 C 
ENDROOT
BRANCH  10  13
HETATM   13  O2  UNK     1      27.147  -7.838  37.616  1.00  0.00    -0.277 OA
BRANCH  13  14
HETATM   14  C15 UNK     1      27.542  -7.584  38.940  1.00  0.00     0.286 C 
HETATM   15  O5  UNK     1      27.677  -8.447  39.802  1.00  0.00    -0.263 OA
BRANCH  14  16
HETATM   16  C12 UNK     1      27.799  -6.106  39.206  1.00  0.00     0.183 C 
HETATM   17  C19 UNK     1      26.673  -5.263  38.630  1.00  0.00     0.043 C 
BRANCH  16  18
HETATM   18  N1  UNK     1      29.068  -5.677  38.677  1.00  0.00    -0.323 N 
HETATM   19  C20 UNK     1      29.743  -4.552  39.112  1.00  0.00     0.361 C 
HETATM   20  O6  UNK     1      29.361  -3.785  39.990  1.00  0.00    -0.238 OA
HETATM   21  H15 UNK     1      29.489  -6.221  37.931  1.00  0.00     0.165 HD
BRANCH  19  22
HETATM   22  O4  UNK     1      30.911  -4.415  38.418  1.00  0.00    -0.299 OA
BRANCH  22  23
HETATM   23  C21 UNK     1      30.863  -4.786  37.035  1.00  0.00     0.219 C 
BRANCH  23  24
HETATM   24  C22 UNK     1      32.042  -5.659  36.721  1.00  0.00    -0.034 A 
HETATM   25  C24 UNK     1      32.846  -5.376  35.618  1.00  0.00     0.009 A 
HETATM   26  C26 UNK     1      33.942  -6.188  35.326  1.00  0.00     0.001 A 
HETATM   27  C27 UNK     1      34.234  -7.284  36.139  1.00  0.00     0.000 A 
HETATM   28  C25 UNK     1      33.429  -7.568  37.242  1.00  0.00     0.001 A 
HETATM   29  C23 UNK     1      32.333  -6.755  37.534  1.00  0.00     0.009 A 
ENDBRANCH  23  24
ENDBRANCH  22  23
ENDBRANCH  19  22
ENDBRANCH  16  18
ENDBRANCH  14  16
ENDBRANCH  13  14
ENDBRANCH  10  13
BRANCH   3  30
HETATM   30  C6  UNK     1      32.508  -7.758  31.878  1.00  0.00    -0.019 A 
HETATM   31  C13 UNK     1      32.272  -8.414  30.669  1.00  0.00     0.015 A 
HETATM   32  C16 UNK     1      33.296  -8.534  29.731  1.00  0.00     0.037 A 
HETATM   33  C18 UNK     1      34.556  -8.000  30.000  1.00  0.00     0.102 A 
HETATM   34  C17 UNK     1      34.792  -7.344  31.209  1.00  0.00     0.037 A 
HETATM   35  C14 UNK     1      33.767  -7.223  32.148  1.00  0.00     0.015 A 
BRANCH  33  36
HETATM   36  N2  UNK     1      35.600  -8.123  29.045  1.00  0.00    -0.116 N 
HETATM   37  O7  UNK     1      35.493  -7.528  27.946  1.00  0.00    -0.532 OA
HETATM   38  O8  UNK     1      36.601  -8.825  29.327  1.00  0.00    -0.532 OA
ENDBRANCH  33  36
ENDBRANCH   3  30
TORSDOF 9
ENDMDL
MODEL 7
REMARK VINA RESULT:      -8.9      4.955     11.972
REMARK  9 active torsions:
REMARK  status: ('A' for Active; 'I' for Inactive)
REMARK    1  A    between atoms: C15_25  and  O2_2 
REMARK    2  A    between atoms: C9_19  and  O2_2 
REMARK    3  A    between atoms: C20_30  and  O4_4 
REMARK    4  A    between atoms: C21_31  and  O4_4 
REMARK    5  A    between atoms: C12_22  and  N1_9 
REMARK       I    between atoms: C20_30  and  N1_9 
REMARK    6  A    between atoms: C18_28  and  N2_10 
REMARK    7  A    between atoms: C1_11  and  C6_16 
REMARK    8  A    between atoms: C12_22  and  C15_25 
REMARK    9  A    between atoms: C21_31  and  C22_32 
ROOT
HETATM    1  O1  UNK     1      15.780   7.811  32.791  1.00  0.00    -0.313 OA
HETATM    2  O3  UNK     1      18.991   9.695  34.432  1.00  0.00    -0.286 OA
HETATM    3  C1  UNK     1      16.690   9.795  33.833  1.00  0.00     0.054 A 
HETATM    4  C2  UNK     1      18.117   7.759  33.424  1.00  0.00     0.049 A 
HETATM    5  C3  UNK     1      16.985   7.169  32.875  1.00  0.00     0.092 A 
HETATM    6  C4  UNK     1      18.021   9.131  33.939  1.00  0.00     0.198 A 
HETATM    7  C5  UNK     1      15.670   9.108  33.275  1.00  0.00     0.065 A 
HETATM    8  C7  UNK     1      17.048   5.866  32.379  1.00  0.00     0.075 A 
HETATM    9  C8  UNK     1      19.322   7.054  33.483  1.00  0.00     0.021 A 
HETATM   10  C9  UNK     1      18.249   5.157  32.435  1.00  0.00     0.082 A 
HETATM   11  C10 UNK     1      19.384   5.752  32.987  1.00  0.00     0.038 A 
HETATM   12  C11 UNK     1      14.276   9.642  33.098  1.00  0.00     0.077 C 
ENDROOT
BRANCH  10  13
HETATM   13  O2  UNK     1      18.313   3.887  31.952  1.00  0.00    -0.277 OA
BRANCH  13  14
HETATM   14  C15 UNK     1      18.772   3.789  30.628  1.00  0.00     0.286 C 
HETATM   15  O5  UNK     1      19.064   4.749  29.921  1.00  0.00    -0.263 OA
BRANCH  14  16
HETATM   16  C12 UNK     1      18.885   2.348  30.147  1.00  0.00     0.183 C 
HETATM   17  C19 UNK     1      18.151   2.174  28.827  1.00  0.00     0.043 C 
BRANCH  16  18
HETATM   18  N1  UNK     1      18.389   1.414  31.124  1.00  0.00    -0.323 N 
HETATM   19  C20 UNK     1      19.107   0.327  31.586  1.00  0.00     0.361 C 
HETATM   20  O6  UNK     1      20.241   0.020  31.234  1.00  0.00    -0.238 OA
HETATM   21  H15 UNK     1      17.451   1.548  31.489  1.00  0.00     0.165 HD
BRANCH  19  22
HETATM   22  O4  UNK     1      18.365  -0.363  32.502  1.00  0.00    -0.299 OA
BRANCH  22  23
HETATM   23  C21 UNK     1      18.957  -0.517  33.797  1.00  0.00     0.219 C 
BRANCH  23  24
HETATM   24  C22 UNK     1      18.003  -0.007  34.836  1.00  0.00    -0.034 A 
HETATM   25  C24 UNK     1      16.635  -0.243  34.703  1.00  0.00     0.009 A 
HETATM   26  C26 UNK     1      15.747   0.230  35.670  1.00  0.00     0.001 A 
HETATM   27  C27 UNK     1      16.229   0.940  36.770  1.00  0.00     0.000 A 
HETATM   28  C25 UNK     1      17.597   1.177  36.903  1.00  0.00     0.001 A 
HETATM   29  C23 UNK     1      18.484   0.703  35.937  1.00  0.00     0.009 A 
ENDBRANCH  23  24
ENDBRANCH  22  23
ENDBRANCH  19  22
ENDBRANCH  16  18
ENDBRANCH  14  16
ENDBRANCH  13  14
ENDBRANCH  10  13
BRANCH   3  30
HETATM   30  C6  UNK     1      16.531  11.156  34.328  1.00  0.00    -0.019 A 
HETATM   31  C13 UNK     1      15.602  11.428  35.333  1.00  0.00     0.015 A 
HETATM   32  C16 UNK     1      15.448  12.730  35.806  1.00  0.00     0.037 A 
HETATM   33  C18 UNK     1      16.222  13.762  35.275  1.00  0.00     0.102 A 
HETATM   34  C17 UNK     1      17.151  13.490  34.270  1.00  0.00     0.037 A 
HETATM   35  C14 UNK     1      17.305  12.188  33.796  1.00  0.00     0.015 A 
BRANCH  33  36
HETATM   36  N2  UNK     1      16.065  15.088  35.756  1.00  0.00    -0.116 N 
HETATM   37  O7  UNK     1      15.328  15.293  36.751  1.00  0.00    -0.532 OA
HETATM   38  O8  UNK     1      16.668  16.021  35.172  1.00  0.00    -0.532 OA
ENDBRANCH  33  36
ENDBRANCH   3  30
TORSDOF 9
ENDMDL
MODEL 8
REMARK VINA RESULT:      -8.7     10.023     11.984
REMARK  9 active torsions:
REMARK  status: ('A' for Active; 'I' for Inactive)
REMARK    1  A    between atoms: C15_25  and  O2_2 
REMARK    2  A    between atoms: C9_19  and  O2_2 
REMARK    3  A    between atoms: C20_30  and  O4_4 
REMARK    4  A    between atoms: C21_31  and  O4_4 
REMARK    5  A    between atoms: C12_22  and  N1_9 
REMARK       I    between atoms: C20_30  and  N1_9 
REMARK    6  A    between atoms: C18_28  and  N2_10 
REMARK    7  A    between atoms: C1_11  and  C6_16 
REMARK    8  A    between atoms: C12_22  and  C15_25 
REMARK    9  A    between atoms: C21_31  and  C22_32 
ROOT
HETATM    1  O1  UNK     1      28.069  -8.229  38.596  1.00  0.00    -0.313 OA
HETATM    2  O3  UNK     1      25.207  -5.339  38.663  1.00  0.00    -0.286 OA
HETATM    3  C1  UNK     1      25.718  -7.663  38.630  1.00  0.00     0.054 A 
HETATM    4  C2  UNK     1      27.495  -5.876  38.633  1.00  0.00     0.049 A 
HETATM    5  C3  UNK     1      28.426  -6.909  38.611  1.00  0.00     0.092 A 
HETATM    6  C4  UNK     1      26.066  -6.213  38.643  1.00  0.00     0.198 A 
HETATM    7  C5  UNK     1      26.722  -8.566  38.607  1.00  0.00     0.065 A 
HETATM    8  C7  UNK     1      29.791  -6.617  38.601  1.00  0.00     0.075 A 
HETATM    9  C8  UNK     1      27.918  -4.545  38.647  1.00  0.00     0.021 A 
HETATM   10  C9  UNK     1      30.219  -5.289  38.615  1.00  0.00     0.082 A 
HETATM   11  C10 UNK     1      29.283  -4.255  38.638  1.00  0.00     0.038 A 
HETATM   12  C11 UNK     1      26.530 -10.057  38.591  1.00  0.00     0.077 C 
ENDROOT
BRANCH  10  13
HETATM   13  O2  UNK     1      31.549  -5.003  38.606  1.00  0.00    -0.277 OA
BRANCH  13  14
HETATM   14  C15 UNK     1      32.261  -5.573  37.538  1.00  0.00     0.286 C 
HETATM   15  O5  UNK     1      32.908  -6.613  37.610  1.00  0.00    -0.263 OA
BRANCH  14  16
HETATM   16  C12 UNK     1      32.143  -4.764  36.252  1.00  0.00     0.183 C 
HETATM   17  C19 UNK     1      32.193  -3.276  36.559  1.00  0.00     0.043 C 
BRANCH  16  18
HETATM   18  N1  UNK     1      30.945  -5.086  35.521  1.00  0.00    -0.323 N 
HETATM   19  C20 UNK     1      30.827  -6.170  34.673  1.00  0.00     0.361 C 
HETATM   20  O6  UNK     1      31.709  -6.989  34.435  1.00  0.00    -0.238 OA
HETATM   21  H15 UNK     1      30.140  -4.475  35.621  1.00  0.00     0.165 HD
BRANCH  19  22
HETATM   22  O4  UNK     1      29.573  -6.202  34.133  1.00  0.00    -0.299 OA
BRANCH  22  23
HETATM   23  C21 UNK     1      28.995  -7.502  33.970  1.00  0.00     0.219 C 
BRANCH  23  24
HETATM   24  C22 UNK     1      28.346  -7.585  32.620  1.00  0.00    -0.034 A 
HETATM   25  C24 UNK     1      27.577  -6.521  32.149  1.00  0.00     0.009 A 
HETATM   26  C26 UNK     1      26.974  -6.597  30.893  1.00  0.00     0.001 A 
HETATM   27  C27 UNK     1      27.140  -7.739  30.109  1.00  0.00     0.000 A 
HETATM   28  C25 UNK     1      27.908  -8.804  30.580  1.00  0.00     0.001 A 
HETATM   29  C23 UNK     1      28.512  -8.727  31.836  1.00  0.00     0.009 A 
ENDBRANCH  23  24
ENDBRANCH  22  23
ENDBRANCH  19  22
ENDBRANCH  16  18
ENDBRANCH  14  16
ENDBRANCH  13  14
ENDBRANCH  10  13
BRANCH   3  30
HETATM   30  C6  UNK     1      24.316  -8.060  38.641  1.00  0.00    -0.019 A 
HETATM   31  C13 UNK     1      23.699  -8.468  37.458  1.00  0.00     0.015 A 
HETATM   32  C16 UNK     1      22.357  -8.848  37.468  1.00  0.00     0.037 A 
HETATM   33  C18 UNK     1      21.632  -8.820  38.659  1.00  0.00     0.102 A 
HETATM   34  C17 UNK     1      22.250  -8.412  39.842  1.00  0.00     0.037 A 
HETATM   35  C14 UNK     1      23.592  -8.032  39.832  1.00  0.00     0.015 A 
BRANCH  33  36
HETATM   36  N2  UNK     1      20.266  -9.206  38.669  1.00  0.00    -0.116 N 
HETATM   37  O7  UNK     1      19.422  -8.444  39.200  1.00  0.00    -0.532 OA
HETATM   38  O8  UNK     1      19.940 -10.299  38.147  1.00  0.00    -0.532 OA
ENDBRANCH  33  36
ENDBRANCH   3  30
TORSDOF 9
ENDMDL
MODEL 9
REMARK VINA RESULT:      -8.6      6.383     12.891
REMARK  9 active torsions:
REMARK  status: ('A' for Active; 'I' for Inactive)
REMARK    1  A    between atoms: C15_25  and  O2_2 
REMARK    2  A    between atoms: C9_19  and  O2_2 
REMARK    3  A    between atoms: C20_30  and  O4_4 
REMARK    4  A    between atoms: C21_31  and  O4_4 
REMARK    5  A    between atoms: C12_22  and  N1_9 
REMARK       I    between atoms: C20_30  and  N1_9 
REMARK    6  A    between atoms: C18_28  and  N2_10 
REMARK    7  A    between atoms: C1_11  and  C6_16 
REMARK    8  A    between atoms: C12_22  and  C15_25 
REMARK    9  A    between atoms: C21_31  and  C22_32 
ROOT
HETATM    1  O1  UNK     1      18.112  10.820  33.815  1.00  0.00    -0.313 OA
HETATM    2  O3  UNK     1      14.327  10.557  35.284  1.00  0.00    -0.286 OA
HETATM    3  C1  UNK     1      16.187  11.944  34.754  1.00  0.00     0.054 A 
HETATM    4  C2  UNK     1      16.190   9.453  34.369  1.00  0.00     0.049 A 
HETATM    5  C3  UNK     1      17.481   9.607  33.877  1.00  0.00     0.092 A 
HETATM    6  C4  UNK     1      15.467  10.641  34.842  1.00  0.00     0.198 A 
HETATM    7  C5  UNK     1      17.443  11.953  34.257  1.00  0.00     0.065 A 
HETATM    8  C7  UNK     1      18.191   8.495  33.421  1.00  0.00     0.075 A 
HETATM    9  C8  UNK     1      15.596   8.189  34.408  1.00  0.00     0.021 A 
HETATM   10  C9  UNK     1      17.602   7.231  33.458  1.00  0.00     0.082 A 
HETATM   11  C10 UNK     1      16.306   7.078  33.952  1.00  0.00     0.038 A 
HETATM   12  C11 UNK     1      18.294  13.184  34.107  1.00  0.00     0.077 C 
ENDROOT
BRANCH  10  13
HETATM   13  O2  UNK     1      18.293   6.146  33.013  1.00  0.00    -0.277 OA
BRANCH  13  14
HETATM   14  C15 UNK     1      18.377   6.040  31.616  1.00  0.00     0.286 C 
HETATM   15  O5  UNK     1      17.643   6.630  30.829  1.00  0.00    -0.263 OA
BRANCH  14  16
HETATM   16  C12 UNK     1      19.494   5.110  31.160  1.00  0.00     0.183 C 
HETATM   17  C19 UNK     1      20.489   5.867  30.294  1.00  0.00     0.043 C 
BRANCH  16  18
HETATM   18  N1  UNK     1      18.986   3.963  30.454  1.00  0.00    -0.323 N 
HETATM   19  C20 UNK     1      18.191   2.992  31.032  1.00  0.00     0.361 C 
HETATM   20  O6  UNK     1      17.819   2.978  32.201  1.00  0.00    -0.238 OA
HETATM   21  H15 UNK     1      19.235   3.848  29.476  1.00  0.00     0.165 HD
BRANCH  19  22
HETATM   22  O4  UNK     1      17.876   2.039  30.106  1.00  0.00    -0.299 OA
BRANCH  22  23
HETATM   23  C21 UNK     1      18.949   1.608  29.261  1.00  0.00     0.219 C 
BRANCH  23  24
HETATM   24  C22 UNK     1      19.464   0.289  29.757  1.00  0.00    -0.034 A 
HETATM   25  C24 UNK     1      19.371  -0.032  31.110  1.00  0.00     0.009 A 
HETATM   26  C26 UNK     1      19.849  -1.259  31.571  1.00  0.00     0.001 A 
HETATM   27  C27 UNK     1      20.422  -2.164  30.677  1.00  0.00     0.000 A 
HETATM   28  C25 UNK     1      20.516  -1.842  29.323  1.00  0.00     0.001 A 
HETATM   29  C23 UNK     1      20.037  -0.616  28.863  1.00  0.00     0.009 A 
ENDBRANCH  23  24
ENDBRANCH  22  23
ENDBRANCH  19  22
ENDBRANCH  16  18
ENDBRANCH  14  16
ENDBRANCH  13  14
ENDBRANCH  10  13
BRANCH   3  30
HETATM   30  C6  UNK     1      15.522  13.158  35.207  1.00  0.00    -0.019 A 
HETATM   31  C13 UNK     1      14.753  13.906  34.313  1.00  0.00     0.015 A 
HETATM   32  C16 UNK     1      14.117  15.069  34.746  1.00  0.00     0.037 A 
HETATM   33  C18 UNK     1      14.250  15.486  36.070  1.00  0.00     0.102 A 
HETATM   34  C17 UNK     1      15.019  14.738  36.963  1.00  0.00     0.037 A 
HETATM   35  C14 UNK     1      15.655  13.575  36.531  1.00  0.00     0.015 A 
BRANCH  33  36
HETATM   36  N2  UNK     1      13.603  16.671  36.511  1.00  0.00    -0.116 N 
HETATM   37  O7  UNK     1      12.432  16.597  36.954  1.00  0.00    -0.532 OA
HETATM   38  O8  UNK     1      14.222  17.761  36.443  1.00  0.00    -0.532 OA
ENDBRANCH  33  36
ENDBRANCH   3  30
TORSDOF 9
ENDMDL
MODEL 10
REMARK VINA RESULT:      -8.6     26.327     28.493
REMARK  9 active torsions:
REMARK  status: ('A' for Active; 'I' for Inactive)
REMARK    1  A    between atoms: C15_25  and  O2_2 
REMARK    2  A    between atoms: C9_19  and  O2_2 
REMARK    3  A    between atoms: C20_30  and  O4_4 
REMARK    4  A    between atoms: C21_31  and  O4_4 
REMARK    5  A    between atoms: C12_22  and  N1_9 
REMARK       I    between atoms: C20_30  and  N1_9 
REMARK    6  A    between atoms: C18_28  and  N2_10 
REMARK    7  A    between atoms: C1_11  and  C6_16 
REMARK    8  A    between atoms: C12_22  and  C15_25 
REMARK    9  A    between atoms: C21_31  and  C22_32 
ROOT
HETATM    1  O1  UNK     1      14.290  10.189   8.729  1.00  0.00    -0.313 OA
HETATM    2  O3  UNK     1      17.646   8.267   9.990  1.00  0.00    -0.286 OA
HETATM    3  C1  UNK     1      16.664  10.278   9.182  1.00  0.00     0.054 A 
HETATM    4  C2  UNK     1      15.337   8.168   9.557  1.00  0.00     0.049 A 
HETATM    5  C3  UNK     1      14.227   8.879   9.118  1.00  0.00     0.092 A 
HETATM    6  C4  UNK     1      16.638   8.850   9.610  1.00  0.00     0.198 A 
HETATM    7  C5  UNK     1      15.511  10.849   8.774  1.00  0.00     0.065 A 
HETATM    8  C7  UNK     1      12.979   8.256   9.059  1.00  0.00     0.075 A 
HETATM    9  C8  UNK     1      15.213   6.831   9.943  1.00  0.00     0.021 A 
HETATM   10  C9  UNK     1      12.849   6.921   9.442  1.00  0.00     0.082 A 
HETATM   11  C10 UNK     1      13.965   6.210   9.883  1.00  0.00     0.038 A 
HETATM   12  C11 UNK     1      15.379  12.275   8.313  1.00  0.00     0.077 C 
ENDROOT
BRANCH  10  13
HETATM   13  O2  UNK     1      11.633   6.312   9.385  1.00  0.00    -0.277 OA
BRANCH  13  14
HETATM   14  C15 UNK     1      11.496   5.379   8.344  1.00  0.00     0.286 C 
HETATM   15  O5  UNK     1      12.052   4.285   8.315  1.00  0.00    -0.263 OA
BRANCH  14  16
HETATM   16  C12 UNK     1      10.566   5.860   7.238  1.00  0.00     0.183 C 
HETATM   17  C19 UNK     1      11.351   6.633   6.189  1.00  0.00     0.043 C 
BRANCH  16  18
HETATM   18  N1  UNK     1       9.489   6.666   7.752  1.00  0.00    -0.323 N 
HETATM   19  C20 UNK     1       8.189   6.218   7.886  1.00  0.00     0.361 C 
HETATM   20  O6  UNK     1       7.786   5.097   7.592  1.00  0.00    -0.238 OA
HETATM   21  H15 UNK     1       9.688   7.624   8.020  1.00  0.00     0.165 HD
BRANCH  19  22
HETATM   22  O4  UNK     1       7.406   7.213   8.399  1.00  0.00    -0.299 OA
BRANCH  22  23
HETATM   23  C21 UNK     1       7.772   7.687   9.701  1.00  0.00     0.219 C 
BRANCH  23  24
HETATM   24  C22 UNK     1       6.804   7.144  10.710  1.00  0.00    -0.034 A 
HETATM   25  C24 UNK     1       5.704   7.905  11.102  1.00  0.00     0.009 A 
HETATM   26  C26 UNK     1       4.803   7.400  12.040  1.00  0.00     0.001 A 
HETATM   27  C27 UNK     1       5.004   6.132  12.586  1.00  0.00     0.000 A 
HETATM   28  C25 UNK     1       6.105   5.370  12.194  1.00  0.00     0.001 A 
HETATM   29  C23 UNK     1       7.005   5.876  11.256  1.00  0.00     0.009 A 
ENDBRANCH  23  24
ENDBRANCH  22  23
ENDBRANCH  19  22
ENDBRANCH  16  18
ENDBRANCH  14  16
ENDBRANCH  13  14
ENDBRANCH  10  13
BRANCH   3  30
HETATM   30  C6  UNK     1      17.925  11.008   9.213  1.00  0.00    -0.019 A 
HETATM   31  C13 UNK     1      18.359  11.598  10.400  1.00  0.00     0.015 A 
HETATM   32  C16 UNK     1      19.565  12.298  10.430  1.00  0.00     0.037 A 
HETATM   33  C18 UNK     1      20.335  12.410   9.273  1.00  0.00     0.102 A 
HETATM   34  C17 UNK     1      19.901  11.820   8.085  1.00  0.00     0.037 A 
HETATM   35  C14 UNK     1      18.695  11.120   8.056  1.00  0.00     0.015 A 
BRANCH  33  36
HETATM   36  N2  UNK     1      21.562  13.123   9.303  1.00  0.00    -0.116 N 
HETATM   37  O7  UNK     1      22.193  13.207  10.385  1.00  0.00    -0.532 OA
HETATM   38  O8  UNK     1      21.983  13.652   8.245  1.00  0.00    -0.532 OA
ENDBRANCH  33  36
ENDBRANCH   3  30
TORSDOF 9
ENDMDL
