MODEL 1
REMARK VINA RESULT:      -8.2      0.000      0.000
REMARK  7 active torsions:
REMARK  status: ('A' for Active; 'I' for Inactive)
REMARK    1  A    between atoms: C3_9  and  O1_1 
REMARK    2  A    between atoms: C6_12  and  O1_1 
REMARK    3  A    between atoms: C8_14  and  O3_3 
REMARK    4  A    between atoms: C1_7  and  C2_8 
REMARK    5  A    between atoms: C2_8  and  C3_9 
REMARK    6  A    between atoms: C3_9  and  C8_14 
REMARK    7  A    between atoms: C14_20  and  C7_13 
ROOT
HETATM    1  O2  UNK     1      19.414  -0.586  32.895  1.00  0.00    -0.274 OA
HETATM    2  O6  UNK     1      20.271  -2.703  32.976  1.00  0.00    -0.260 OA
HETATM    3  C6  UNK     1      18.178   2.768  32.106  1.00  0.00     0.086 A 
HETATM    4  C7  UNK     1      18.518   1.625  32.814  1.00  0.00     0.077 A 
HETATM    5  C9  UNK     1      19.087   0.551  32.128  1.00  0.00     0.106 A 
HETATM    6  C10 UNK     1      19.325   0.587  30.753  1.00  0.00     0.005 A 
HETATM    7  C11 UNK     1      18.401   2.839  30.737  1.00  0.00     0.039 A 
HETATM    8  C12 UNK     1      18.972   1.753  30.063  1.00  0.00     0.017 A 
HETATM    9  C13 UNK     1      19.927  -0.590  30.113  1.00  0.00    -0.043 A 
HETATM   10  C15 UNK     1      20.228  -1.657  30.867  1.00  0.00     0.090 A 
HETATM   11  C16 UNK     1      20.195  -0.583  28.636  1.00  0.00     0.049 C 
HETATM   12  C17 UNK     1      19.983  -1.710  32.317  1.00  0.00     0.288 A 
ENDROOT
BRANCH   3  13
HETATM   13  O1  UNK     1      17.615   3.845  32.742  1.00  0.00    -0.335 OA
BRANCH  13  14
HETATM   14  C3  UNK     1      18.010   5.133  32.292  1.00  0.00     0.228 C 
BRANCH  14  15
HETATM   15  C2  UNK     1      16.888   6.135  32.582  1.00  0.00     0.046 C 
BRANCH  15  16
HETATM   16  C1  UNK     1      17.165   7.568  32.086  1.00  0.00    -0.020 C 
HETATM   17  C4  UNK     1      17.610   8.498  33.215  1.00  0.00     0.009 C 
HETATM   18  C5  UNK     1      15.912   8.135  31.413  1.00  0.00     0.009 C 
ENDBRANCH  15  16
ENDBRANCH  14  15
BRANCH  14  19
HETATM   19  C8  UNK     1      19.280   5.515  33.030  1.00  0.00     0.288 C 
HETATM   20  O4  UNK     1      19.525   5.214  34.191  1.00  0.00    -0.262 OA
BRANCH  19  21
HETATM   21  O3  UNK     1      20.104   6.214  32.195  1.00  0.00    -0.324 OA
HETATM   22  C19 UNK     1      20.178   5.728  30.852  1.00  0.00     0.213 C 
ENDBRANCH  19  21
ENDBRANCH  14  19
ENDBRANCH  13  14
ENDBRANCH   3  13
BRANCH   4  23
HETATM   23  C14 UNK     1      18.283   1.552  34.252  1.00  0.00     0.161 C 
HETATM   24  O5  UNK     1      19.104   2.016  35.065  1.00  0.00    -0.293 OA
HETATM   25  C18 UNK     1      17.015   0.899  34.788  1.00  0.00     0.097 C 
ENDBRANCH   4  23
TORSDOF 7
ENDMDL
MODEL 2
REMARK VINA RESULT:      -8.0      1.356      2.357
REMARK  7 active torsions:
REMARK  status: ('A' for Active; 'I' for Inactive)
REMARK    1  A    between atoms: C3_9  and  O1_1 
REMARK    2  A    between atoms: C6_12  and  O1_1 
REMARK    3  A    between atoms: C8_14  and  O3_3 
REMARK    4  A    between atoms: C1_7  and  C2_8 
REMARK    5  A    between atoms: C2_8  and  C3_9 
REMARK    6  A    between atoms: C3_9  and  C8_14 
REMARK    7  A    between atoms: C14_20  and  C7_13 
ROOT
HETATM    1  O2  UNK     1      19.287  -0.521  32.946  1.00  0.00    -0.274 OA
HETATM    2  O6  UNK     1      20.159  -2.593  33.368  1.00  0.00    -0.260 OA
HETATM    3  C6  UNK     1      18.143   2.705  31.652  1.00  0.00     0.086 A 
HETATM    4  C7  UNK     1      18.376   1.641  32.510  1.00  0.00     0.077 A 
HETATM    5  C9  UNK     1      19.078   0.532  32.034  1.00  0.00     0.106 A 
HETATM    6  C10 UNK     1      19.553   0.457  30.724  1.00  0.00     0.005 A 
HETATM    7  C11 UNK     1      18.602   2.665  30.342  1.00  0.00     0.039 A 
HETATM    8  C12 UNK     1      19.305   1.547  29.879  1.00  0.00     0.017 A 
HETATM    9  C13 UNK     1      20.283  -0.748  30.309  1.00  0.00    -0.043 A 
HETATM   10  C15 UNK     1      20.467  -1.734  31.197  1.00  0.00     0.090 A 
HETATM   11  C16 UNK     1      20.806  -0.859  28.906  1.00  0.00     0.049 C 
HETATM   12  C17 UNK     1      19.971  -1.671  32.582  1.00  0.00     0.288 A 
ENDROOT
BRANCH   3  13
HETATM   13  O1  UNK     1      17.456   3.812  32.079  1.00  0.00    -0.335 OA
BRANCH  13  14
HETATM   14  C3  UNK     1      18.231   4.933  32.481  1.00  0.00     0.228 C 
BRANCH  14  15
HETATM   15  C2  UNK     1      18.971   5.497  31.263  1.00  0.00     0.046 C 
BRANCH  15  16
HETATM   16  C1  UNK     1      20.231   6.316  31.603  1.00  0.00    -0.020 C 
HETATM   17  C4  UNK     1      21.458   5.847  30.820  1.00  0.00     0.009 C 
HETATM   18  C5  UNK     1      20.515   6.232  33.106  1.00  0.00     0.009 C 
ENDBRANCH  15  16
ENDBRANCH  14  15
BRANCH  14  19
HETATM   19  C8  UNK     1      17.288   5.966  33.067  1.00  0.00     0.288 C 
HETATM   20  O4  UNK     1      17.222   6.251  34.256  1.00  0.00    -0.262 OA
BRANCH  19  21
HETATM   21  O3  UNK     1      16.556   6.540  32.067  1.00  0.00    -0.324 OA
HETATM   22  C19 UNK     1      15.387   7.249  32.488  1.00  0.00     0.213 C 
ENDBRANCH  19  21
ENDBRANCH  14  19
ENDBRANCH  13  14
ENDBRANCH   3  13
BRANCH   4  23
HETATM   23  C14 UNK     1      17.893   1.684  33.886  1.00  0.00     0.161 C 
HETATM   24  O5  UNK     1      16.805   1.169  34.206  1.00  0.00    -0.293 OA
HETATM   25  C18 UNK     1      18.722   2.367  34.967  1.00  0.00     0.097 C 
ENDBRANCH   4  23
TORSDOF 7
ENDMDL
MODEL 3
REMARK VINA RESULT:      -8.0      4.643      9.813
REMARK  7 active torsions:
REMARK  status: ('A' for Active; 'I' for Inactive)
REMARK    1  A    between atoms: C3_9  and  O1_1 
REMARK    2  A    between atoms: C6_12  and  O1_1 
REMARK    3  A    between atoms: C8_14  and  O3_3 
REMARK    4  A    between atoms: C1_7  and  C2_8 
REMARK    5  A    between atoms: C2_8  and  C3_9 
REMARK    6  A    between atoms: C3_9  and  C8_14 
REMARK    7  A    between atoms: C14_20  and  C7_13 
ROOT
HETATM    1  O2  UNK     1      19.115  -0.190  33.813  1.00  0.00    -0.274 OA
HETATM    2  O6  UNK     1      18.363   1.617  32.630  1.00  0.00    -0.260 OA
HETATM    3  C6  UNK     1      19.826  -2.924  36.138  1.00  0.00     0.086 A 
HETATM    4  C7  UNK     1      19.902  -2.076  35.044  1.00  0.00     0.077 A 
HETATM    5  C9  UNK     1      18.994  -1.021  34.944  1.00  0.00     0.106 A 
HETATM    6  C10 UNK     1      18.011  -0.790  35.907  1.00  0.00     0.005 A 
HETATM    7  C11 UNK     1      18.861  -2.724  37.117  1.00  0.00     0.039 A 
HETATM    8  C12 UNK     1      17.957  -1.662  37.003  1.00  0.00     0.017 A 
HETATM    9  C13 UNK     1      17.097   0.345  35.722  1.00  0.00    -0.043 A 
HETATM   10  C15 UNK     1      17.235   1.119  34.636  1.00  0.00     0.090 A 
HETATM   11  C16 UNK     1      16.029   0.619  36.740  1.00  0.00     0.049 C 
HETATM   12  C17 UNK     1      18.266   0.888  33.611  1.00  0.00     0.288 A 
ENDROOT
BRANCH   3  13
HETATM   13  O1  UNK     1      20.698  -3.974  36.274  1.00  0.00    -0.335 OA
BRANCH  13  14
HETATM   14  C3  UNK     1      20.180  -5.170  36.837  1.00  0.00     0.228 C 
BRANCH  14  15
HETATM   15  C2  UNK     1      20.022  -6.221  35.733  1.00  0.00     0.046 C 
BRANCH  15  16
HETATM   16  C1  UNK     1      18.712  -7.030  35.802  1.00  0.00    -0.020 C 
HETATM   17  C4  UNK     1      17.636  -6.324  36.629  1.00  0.00     0.009 C 
HETATM   18  C5  UNK     1      18.989  -8.416  36.391  1.00  0.00     0.009 C 
ENDBRANCH  15  16
ENDBRANCH  14  15
BRANCH  14  19
HETATM   19  C8  UNK     1      21.152  -5.645  37.900  1.00  0.00     0.288 C 
HETATM   20  O4  UNK     1      22.358  -5.436  37.881  1.00  0.00    -0.262 OA
BRANCH  19  21
HETATM   21  O3  UNK     1      20.472  -6.310  38.881  1.00  0.00    -0.324 OA
HETATM   22  C19 UNK     1      21.112  -7.485  39.387  1.00  0.00     0.213 C 
ENDBRANCH  19  21
ENDBRANCH  14  19
ENDBRANCH  13  14
ENDBRANCH   3  13
BRANCH   4  23
HETATM   23  C14 UNK     1      20.917  -2.288  34.016  1.00  0.00     0.161 C 
HETATM   24  O5  UNK     1      22.117  -2.034  34.232  1.00  0.00    -0.293 OA
HETATM   25  C18 UNK     1      20.519  -2.828  32.649  1.00  0.00     0.097 C 
ENDBRANCH   4  23
TORSDOF 7
ENDMDL
MODEL 4
REMARK VINA RESULT:      -7.9      1.876      6.677
REMARK  7 active torsions:
REMARK  status: ('A' for Active; 'I' for Inactive)
REMARK    1  A    between atoms: C3_9  and  O1_1 
REMARK    2  A    between atoms: C6_12  and  O1_1 
REMARK    3  A    between atoms: C8_14  and  O3_3 
REMARK    4  A    between atoms: C1_7  and  C2_8 
REMARK    5  A    between atoms: C2_8  and  C3_9 
REMARK    6  A    between atoms: C3_9  and  C8_14 
REMARK    7  A    between atoms: C14_20  and  C7_13 
ROOT
HETATM    1  O2  UNK     1      18.961   4.416  30.612  1.00  0.00    -0.274 OA
HETATM    2  O6  UNK     1      19.429   6.312  29.424  1.00  0.00    -0.260 OA
HETATM    3  C6  UNK     1      18.196   1.793  33.048  1.00  0.00     0.086 A 
HETATM    4  C7  UNK     1      18.473   2.435  31.850  1.00  0.00     0.077 A 
HETATM    5  C9  UNK     1      18.684   3.814  31.856  1.00  0.00     0.106 A 
HETATM    6  C10 UNK     1      18.627   4.572  33.027  1.00  0.00     0.005 A 
HETATM    7  C11 UNK     1      18.132   2.516  34.233  1.00  0.00     0.039 A 
HETATM    8  C12 UNK     1      18.346   3.899  34.224  1.00  0.00     0.017 A 
HETATM    9  C13 UNK     1      18.863   6.019  32.941  1.00  0.00    -0.043 A 
HETATM   10  C15 UNK     1      19.124   6.564  31.745  1.00  0.00     0.090 A 
HETATM   11  C16 UNK     1      18.807   6.861  34.183  1.00  0.00     0.049 C 
HETATM   12  C17 UNK     1      19.187   5.779  30.501  1.00  0.00     0.288 A 
ENDROOT
BRANCH   3  13
HETATM   13  O1  UNK     1      17.981   0.440  33.085  1.00  0.00    -0.335 OA
BRANCH  13  14
HETATM   14  C3  UNK     1      18.277  -0.223  34.306  1.00  0.00     0.228 C 
BRANCH  14  15
HETATM   15  C2  UNK     1      16.991  -0.834  34.873  1.00  0.00     0.046 C 
BRANCH  15  16
HETATM   16  C1  UNK     1      16.634  -0.366  36.298  1.00  0.00    -0.020 C 
HETATM   17  C4  UNK     1      15.560   0.722  36.300  1.00  0.00     0.009 C 
HETATM   18  C5  UNK     1      17.892   0.148  37.004  1.00  0.00     0.009 C 
ENDBRANCH  15  16
ENDBRANCH  14  15
BRANCH  14  19
HETATM   19  C8  UNK     1      19.304  -1.301  34.014  1.00  0.00     0.288 C 
HETATM   20  O4  UNK     1      20.041  -1.804  34.852  1.00  0.00    -0.262 OA
BRANCH  19  21
HETATM   21  O3  UNK     1      19.257  -1.633  32.690  1.00  0.00    -0.324 OA
HETATM   22  C19 UNK     1      20.467  -2.169  32.146  1.00  0.00     0.213 C 
ENDBRANCH  19  21
ENDBRANCH  14  19
ENDBRANCH  13  14
ENDBRANCH   3  13
BRANCH   4  23
HETATM   23  C14 UNK     1      18.540   1.675  30.606  1.00  0.00     0.161 C 
HETATM   24  O5  UNK     1      17.581   1.650  29.812  1.00  0.00    -0.293 OA
HETATM   25  C18 UNK     1      19.799   0.893  30.255  1.00  0.00     0.097 C 
ENDBRANCH   4  23
TORSDOF 7
ENDMDL
MODEL 5
REMARK VINA RESULT:      -7.7     22.762     24.654
REMARK  7 active torsions:
REMARK  status: ('A' for Active; 'I' for Inactive)
REMARK    1  A    between atoms: C3_9  and  O1_1 
REMARK    2  A    between atoms: C6_12  and  O1_1 
REMARK    3  A    between atoms: C8_14  and  O3_3 
REMARK    4  A    between atoms: C1_7  and  C2_8 
REMARK    5  A    between atoms: C2_8  and  C3_9 
REMARK    6  A    between atoms: C3_9  and  C8_14 
REMARK    7  A    between atoms: C14_20  and  C7_13 
ROOT
HETATM    1  O2  UNK     1       9.865   8.261   9.675  1.00  0.00    -0.274 OA
HETATM    2  O6  UNK     1       7.610   7.907   9.812  1.00  0.00    -0.260 OA
HETATM    3  C6  UNK     1      13.435   8.460   8.891  1.00  0.00     0.086 A 
HETATM    4  C7  UNK     1      12.218   8.632   9.535  1.00  0.00     0.077 A 
HETATM    5  C9  UNK     1      11.074   8.056   8.981  1.00  0.00     0.106 A 
HETATM    6  C10 UNK     1      11.112   7.312   7.801  1.00  0.00     0.005 A 
HETATM    7  C11 UNK     1      13.509   7.725   7.715  1.00  0.00     0.039 A 
HETATM    8  C12 UNK     1      12.353   7.153   7.171  1.00  0.00     0.017 A 
HETATM    9  C13 UNK     1       9.859   6.740   7.289  1.00  0.00    -0.043 A 
HETATM   10  C15 UNK     1       8.723   6.952   7.970  1.00  0.00     0.090 A 
HETATM   11  C16 UNK     1       9.866   5.936   6.022  1.00  0.00     0.049 C 
HETATM   12  C17 UNK     1       8.668   7.734   9.215  1.00  0.00     0.288 A 
ENDROOT
BRANCH   3  13
HETATM   13  O1  UNK     1      14.582   9.012   9.401  1.00  0.00    -0.335 OA
BRANCH  13  14
HETATM   14  C3  UNK     1      15.654   8.121   9.676  1.00  0.00     0.228 C 
BRANCH  14  15
HETATM   15  C2  UNK     1      16.964   8.913   9.735  1.00  0.00     0.046 C 
BRANCH  15  16
HETATM   16  C1  UNK     1      16.817  10.417   9.431  1.00  0.00    -0.020 C 
HETATM   17  C4  UNK     1      17.920  10.933   8.506  1.00  0.00     0.009 C 
HETATM   18  C5  UNK     1      16.826  11.214  10.738  1.00  0.00     0.009 C 
ENDBRANCH  15  16
ENDBRANCH  14  15
BRANCH  14  19
HETATM   19  C8  UNK     1      15.370   7.445  11.004  1.00  0.00     0.288 C 
HETATM   20  O4  UNK     1      15.485   7.985  12.097  1.00  0.00    -0.262 OA
BRANCH  19  21
HETATM   21  O3  UNK     1      14.947   6.165  10.787  1.00  0.00    -0.324 OA
HETATM   22  C19 UNK     1      15.678   5.432   9.799  1.00  0.00     0.213 C 
ENDBRANCH  19  21
ENDBRANCH  14  19
ENDBRANCH  13  14
ENDBRANCH   3  13
BRANCH   4  23
HETATM   23  C14 UNK     1      12.141   9.404  10.771  1.00  0.00     0.161 C 
HETATM   24  O5  UNK     1      12.284   8.861  11.882  1.00  0.00    -0.293 OA
HETATM   25  C18 UNK     1      11.883  10.905  10.720  1.00  0.00     0.097 C 
ENDBRANCH   4  23
TORSDOF 7
ENDMDL
MODEL 6
REMARK VINA RESULT:      -7.5      6.729     10.074
REMARK  7 active torsions:
REMARK  status: ('A' for Active; 'I' for Inactive)
REMARK    1  A    between atoms: C3_9  and  O1_1 
REMARK    2  A    between atoms: C6_12  and  O1_1 
REMARK    3  A    between atoms: C8_14  and  O3_3 
REMARK    4  A    between atoms: C1_7  and  C2_8 
REMARK    5  A    between atoms: C2_8  and  C3_9 
REMARK    6  A    between atoms: C3_9  and  C8_14 
REMARK    7  A    between atoms: C14_20  and  C7_13 
ROOT
HETATM    1  O2  UNK     1      19.213  -8.510  38.011  1.00  0.00    -0.274 OA
HETATM    2  O6  UNK     1      19.076 -10.630  38.857  1.00  0.00    -0.260 OA
HETATM    3  C6  UNK     1      20.009  -5.083  37.004  1.00  0.00     0.086 A 
HETATM    4  C7  UNK     1      19.351  -6.298  37.127  1.00  0.00     0.077 A 
HETATM    5  C9  UNK     1      19.921  -7.296  37.920  1.00  0.00     0.106 A 
HETATM    6  C10 UNK     1      21.130  -7.113  38.594  1.00  0.00     0.005 A 
HETATM    7  C11 UNK     1      21.214  -4.866  37.661  1.00  0.00     0.039 A 
HETATM    8  C12 UNK     1      21.772  -5.876  38.452  1.00  0.00     0.017 A 
HETATM    9  C13 UNK     1      21.656  -8.218  39.407  1.00  0.00    -0.043 A 
HETATM   10  C15 UNK     1      20.961  -9.362  39.476  1.00  0.00     0.090 A 
HETATM   11  C16 UNK     1      22.954  -8.053  40.143  1.00  0.00     0.049 C 
HETATM   12  C17 UNK     1      19.685  -9.570  38.771  1.00  0.00     0.288 A 
ENDROOT
BRANCH   3  13
HETATM   13  O1  UNK     1      19.485  -4.077  36.234  1.00  0.00    -0.335 OA
BRANCH  13  14
HETATM   14  C3  UNK     1      19.747  -2.745  36.652  1.00  0.00     0.228 C 
BRANCH  14  15
HETATM   15  C2  UNK     1      20.397  -1.974  35.499  1.00  0.00     0.046 C 
BRANCH  15  16
HETATM   16  C1  UNK     1      19.824  -2.303  34.106  1.00  0.00    -0.020 C 
HETATM   17  C4  UNK     1      20.921  -2.568  33.075  1.00  0.00     0.009 C 
HETATM   18  C5  UNK     1      18.933  -1.153  33.627  1.00  0.00     0.009 C 
ENDBRANCH  15  16
ENDBRANCH  14  15
BRANCH  14  19
HETATM   19  C8  UNK     1      18.427  -2.113  37.050  1.00  0.00     0.288 C 
HETATM   20  O4  UNK     1      17.339  -2.427  36.586  1.00  0.00    -0.262 OA
BRANCH  19  21
HETATM   21  O3  UNK     1      18.642  -1.170  38.014  1.00  0.00    -0.324 OA
HETATM   22  C19 UNK     1      17.836   0.008  37.915  1.00  0.00     0.213 C 
ENDBRANCH  19  21
ENDBRANCH  14  19
ENDBRANCH  13  14
ENDBRANCH   3  13
BRANCH   4  23
HETATM   23  C14 UNK     1      18.086  -6.525  36.437  1.00  0.00     0.161 C 
HETATM   24  O5  UNK     1      17.014  -6.085  36.893  1.00  0.00    -0.293 OA
HETATM   25  C18 UNK     1      18.056  -7.312  35.133  1.00  0.00     0.097 C 
ENDBRANCH   4  23
TORSDOF 7
ENDMDL
MODEL 7
REMARK VINA RESULT:      -7.4      1.991      3.996
REMARK  7 active torsions:
REMARK  status: ('A' for Active; 'I' for Inactive)
REMARK    1  A    between atoms: C3_9  and  O1_1 
REMARK    2  A    between atoms: C6_12  and  O1_1 
REMARK    3  A    between atoms: C8_14  and  O3_3 
REMARK    4  A    between atoms: C1_7  and  C2_8 
REMARK    5  A    between atoms: C2_8  and  C3_9 
REMARK    6  A    between atoms: C3_9  and  C8_14 
REMARK    7  A    between atoms: C14_20  and  C7_13 
ROOT
HETATM    1  O2  UNK     1      18.474   0.612  32.041  1.00  0.00    -0.274 OA
HETATM    2  O6  UNK     1      18.729  -1.660  32.077  1.00  0.00    -0.260 OA
HETATM    3  C6  UNK     1      18.080   4.198  32.654  1.00  0.00     0.086 A 
HETATM    4  C7  UNK     1      18.208   2.983  31.998  1.00  0.00     0.077 A 
HETATM    5  C9  UNK     1      18.348   1.819  32.756  1.00  0.00     0.106 A 
HETATM    6  C10 UNK     1      18.364   1.836  34.152  1.00  0.00     0.005 A 
HETATM    7  C11 UNK     1      18.092   4.253  34.042  1.00  0.00     0.039 A 
HETATM    8  C12 UNK     1      18.233   3.077  34.788  1.00  0.00     0.017 A 
HETATM    9  C13 UNK     1      18.516   0.563  34.869  1.00  0.00    -0.043 A 
HETATM   10  C15 UNK     1      18.634  -0.570  34.163  1.00  0.00     0.090 A 
HETATM   11  C16 UNK     1      18.538   0.548  36.370  1.00  0.00     0.049 C 
HETATM   12  C17 UNK     1      18.619  -0.604  32.691  1.00  0.00     0.288 A 
ENDROOT
BRANCH   3  13
HETATM   13  O1  UNK     1      17.942   5.365  31.947  1.00  0.00    -0.335 OA
BRANCH  13  14
HETATM   14  C3  UNK     1      17.483   6.500  32.666  1.00  0.00     0.228 C 
BRANCH  14  15
HETATM   15  C2  UNK     1      18.647   7.476  32.866  1.00  0.00     0.046 C 
BRANCH  15  16
HETATM   16  C1  UNK     1      18.582   8.290  34.174  1.00  0.00    -0.020 C 
HETATM   17  C4  UNK     1      17.496   7.781  35.122  1.00  0.00     0.009 C 
HETATM   18  C5  UNK     1      18.335   9.767  33.853  1.00  0.00     0.009 C 
ENDBRANCH  15  16
ENDBRANCH  14  15
BRANCH  14  19
HETATM   19  C8  UNK     1      16.370   7.144  31.861  1.00  0.00     0.288 C 
HETATM   20  O4  UNK     1      16.528   8.065  31.070  1.00  0.00    -0.262 OA
BRANCH  19  21
HETATM   21  O3  UNK     1      15.185   6.522  32.134  1.00  0.00    -0.324 OA
HETATM   22  C19 UNK     1      14.043   7.379  32.216  1.00  0.00     0.213 C 
ENDBRANCH  19  21
ENDBRANCH  14  19
ENDBRANCH  13  14
ENDBRANCH   3  13
BRANCH   4  23
HETATM   23  C14 UNK     1      18.196   2.927  30.540  1.00  0.00     0.161 C 
HETATM   24  O5  UNK     1      17.421   2.167  29.930  1.00  0.00    -0.293 OA
HETATM   25  C18 UNK     1      19.140   3.808  29.733  1.00  0.00     0.097 C 
ENDBRANCH   4  23
TORSDOF 7
ENDMDL
MODEL 8
REMARK VINA RESULT:      -7.2     23.267     25.252
REMARK  7 active torsions:
REMARK  status: ('A' for Active; 'I' for Inactive)
REMARK    1  A    between atoms: C3_9  and  O1_1 
REMARK    2  A    between atoms: C6_12  and  O1_1 
REMARK    3  A    between atoms: C8_14  and  O3_3 
REMARK    4  A    between atoms: C1_7  and  C2_8 
REMARK    5  A    between atoms: C2_8  and  C3_9 
REMARK    6  A    between atoms: C3_9  and  C8_14 
REMARK    7  A    between atoms: C14_20  and  C7_13 
ROOT
HETATM    1  O2  UNK     1       9.009   5.421   8.340  1.00  0.00    -0.274 OA
HETATM    2  O6  UNK     1       7.233   3.985   8.437  1.00  0.00    -0.260 OA
HETATM    3  C6  UNK     1      11.467   8.123   8.559  1.00  0.00     0.086 A 
HETATM    4  C7  UNK     1      10.866   6.916   8.235  1.00  0.00     0.077 A 
HETATM    5  C9  UNK     1       9.573   6.662   8.697  1.00  0.00     0.106 A 
HETATM    6  C10 UNK     1       8.865   7.580   9.472  1.00  0.00     0.005 A 
HETATM    7  C11 UNK     1      10.791   9.061   9.329  1.00  0.00     0.039 A 
HETATM    8  C12 UNK     1       9.495   8.792   9.784  1.00  0.00     0.017 A 
HETATM    9  C13 UNK     1       7.508   7.229   9.914  1.00  0.00    -0.043 A 
HETATM   10  C15 UNK     1       6.997   6.041   9.560  1.00  0.00     0.090 A 
HETATM   11  C16 UNK     1       6.720   8.195  10.750  1.00  0.00     0.049 C 
HETATM   12  C17 UNK     1       7.732   5.062   8.743  1.00  0.00     0.288 A 
ENDROOT
BRANCH   3  13
HETATM   13  O1  UNK     1      12.736   8.412   8.128  1.00  0.00    -0.335 OA
BRANCH  13  14
HETATM   14  C3  UNK     1      13.751   8.478   9.119  1.00  0.00     0.228 C 
BRANCH  14  15
HETATM   15  C2  UNK     1      14.757   7.346   8.887  1.00  0.00     0.046 C 
BRANCH  15  16
HETATM   16  C1  UNK     1      15.349   6.741  10.176  1.00  0.00    -0.020 C 
HETATM   17  C4  UNK     1      16.731   7.308  10.503  1.00  0.00     0.009 C 
HETATM   18  C5  UNK     1      15.434   5.218  10.042  1.00  0.00     0.009 C 
ENDBRANCH  15  16
ENDBRANCH  14  15
BRANCH  14  19
HETATM   19  C8  UNK     1      14.426   9.832   9.007  1.00  0.00     0.288 C 
HETATM   20  O4  UNK     1      15.236  10.135   8.141  1.00  0.00    -0.262 OA
BRANCH  19  21
HETATM   21  O3  UNK     1      13.970  10.656   9.997  1.00  0.00    -0.324 OA
HETATM   22  C19 UNK     1      13.868  10.063  11.295  1.00  0.00     0.213 C 
ENDBRANCH  19  21
ENDBRANCH  14  19
ENDBRANCH  13  14
ENDBRANCH   3  13
BRANCH   4  23
HETATM   23  C14 UNK     1      11.577   5.932   7.427  1.00  0.00     0.161 C 
HETATM   24  O5  UNK     1      11.577   5.996   6.183  1.00  0.00    -0.293 OA
HETATM   25  C18 UNK     1      12.341   4.798   8.099  1.00  0.00     0.097 C 
ENDBRANCH   4  23
TORSDOF 7
ENDMDL
MODEL 9
REMARK VINA RESULT:      -7.1      2.320      4.878
REMARK  7 active torsions:
REMARK  status: ('A' for Active; 'I' for Inactive)
REMARK    1  A    between atoms: C3_9  and  O1_1 
REMARK    2  A    between atoms: C6_12  and  O1_1 
REMARK    3  A    between atoms: C8_14  and  O3_3 
REMARK    4  A    between atoms: C1_7  and  C2_8 
REMARK    5  A    between atoms: C2_8  and  C3_9 
REMARK    6  A    between atoms: C3_9  and  C8_14 
REMARK    7  A    between atoms: C14_20  and  C7_13 
ROOT
HETATM    1  O2  UNK     1      18.248  -1.520  35.231  1.00  0.00    -0.274 OA
HETATM    2  O6  UNK     1      17.934  -3.000  36.945  1.00  0.00    -0.260 OA
HETATM    3  C6  UNK     1      18.607   1.319  32.949  1.00  0.00     0.086 A 
HETATM    4  C7  UNK     1      18.577   0.022  33.440  1.00  0.00     0.077 A 
HETATM    5  C9  UNK     1      18.265  -0.183  34.784  1.00  0.00     0.106 A 
HETATM    6  C10 UNK     1      17.981   0.872  35.653  1.00  0.00     0.005 A 
HETATM    7  C11 UNK     1      18.329   2.393  33.785  1.00  0.00     0.039 A 
HETATM    8  C12 UNK     1      18.017   2.171  35.131  1.00  0.00     0.017 A 
HETATM    9  C13 UNK     1      17.661   0.563  37.054  1.00  0.00    -0.043 A 
HETATM   10  C15 UNK     1      17.653  -0.717  37.451  1.00  0.00     0.090 A 
HETATM   11  C16 UNK     1      17.352   1.676  38.013  1.00  0.00     0.049 C 
HETATM   12  C17 UNK     1      17.951  -1.840  36.547  1.00  0.00     0.288 A 
ENDROOT
BRANCH   3  13
HETATM   13  O1  UNK     1      18.911   1.564  31.635  1.00  0.00    -0.335 OA
BRANCH  13  14
HETATM   14  C3  UNK     1      18.271   2.677  31.025  1.00  0.00     0.228 C 
BRANCH  14  15
HETATM   15  C2  UNK     1      19.176   3.907  31.145  1.00  0.00     0.046 C 
BRANCH  15  16
HETATM   16  C1  UNK     1      18.425   5.235  31.366  1.00  0.00    -0.020 C 
HETATM   17  C4  UNK     1      18.711   6.255  30.264  1.00  0.00     0.009 C 
HETATM   18  C5  UNK     1      18.806   5.825  32.727  1.00  0.00     0.009 C 
ENDBRANCH  15  16
ENDBRANCH  14  15
BRANCH  14  19
HETATM   19  C8  UNK     1      18.020   2.330  29.570  1.00  0.00     0.288 C 
HETATM   20  O4  UNK     1      17.939   3.149  28.664  1.00  0.00    -0.262 OA
BRANCH  19  21
HETATM   21  O3  UNK     1      17.926   0.974  29.430  1.00  0.00    -0.324 OA
HETATM   22  C19 UNK     1      18.778   0.396  28.438  1.00  0.00     0.213 C 
ENDBRANCH  19  21
ENDBRANCH  14  19
ENDBRANCH  13  14
ENDBRANCH   3  13
BRANCH   4  23
HETATM   23  C14 UNK     1      18.869  -1.105  32.561  1.00  0.00     0.161 C 
HETATM   24  O5  UNK     1      17.979  -1.630  31.866  1.00  0.00    -0.293 OA
HETATM   25  C18 UNK     1      20.284  -1.664  32.477  1.00  0.00     0.097 C 
ENDBRANCH   4  23
TORSDOF 7
ENDMDL
MODEL 10
REMARK VINA RESULT:      -7.1     23.125     24.999
REMARK  7 active torsions:
REMARK  status: ('A' for Active; 'I' for Inactive)
REMARK    1  A    between atoms: C3_9  and  O1_1 
REMARK    2  A    between atoms: C6_12  and  O1_1 
REMARK    3  A    between atoms: C8_14  and  O3_3 
REMARK    4  A    between atoms: C1_7  and  C2_8 
REMARK    5  A    between atoms: C2_8  and  C3_9 
REMARK    6  A    between atoms: C3_9  and  C8_14 
REMARK    7  A    between atoms: C14_20  and  C7_13 
ROOT
HETATM    1  O2  UNK     1      14.251   6.131   8.961  1.00  0.00    -0.274 OA
HETATM    2  O6  UNK     1      16.406   5.445   9.296  1.00  0.00    -0.260 OA
HETATM    3  C6  UNK     1      10.955   7.718   8.858  1.00  0.00     0.086 A 
HETATM    4  C7  UNK     1      12.000   6.842   8.608  1.00  0.00     0.077 A 
HETATM    5  C9  UNK     1      13.222   7.050   9.250  1.00  0.00     0.106 A 
HETATM    6  C10 UNK     1      13.429   8.109  10.135  1.00  0.00     0.005 A 
HETATM    7  C11 UNK     1      11.125   8.784   9.733  1.00  0.00     0.039 A 
HETATM    8  C12 UNK     1      12.356   8.978  10.369  1.00  0.00     0.017 A 
HETATM    9  C13 UNK     1      14.748   8.251  10.766  1.00  0.00    -0.043 A 
HETATM   10  C15 UNK     1      15.707   7.362  10.472  1.00  0.00     0.090 A 
HETATM   11  C16 UNK     1      15.002   9.380  11.722  1.00  0.00     0.049 C 
HETATM   12  C17 UNK     1      15.505   6.240   9.541  1.00  0.00     0.288 A 
ENDROOT
BRANCH   3  13
HETATM   13  O1  UNK     1       9.739   7.552   8.246  1.00  0.00    -0.335 OA
BRANCH  13  14
HETATM   14  C3  UNK     1       8.706   6.961   9.023  1.00  0.00     0.228 C 
BRANCH  14  15
HETATM   15  C2  UNK     1       7.630   8.011   9.313  1.00  0.00     0.046 C 
BRANCH  15  16
HETATM   16  C1  UNK     1       7.250   8.144  10.801  1.00  0.00    -0.020 C 
HETATM   17  C4  UNK     1       5.832   7.650  11.085  1.00  0.00     0.009 C 
HETATM   18  C5  UNK     1       7.385   9.605  11.242  1.00  0.00     0.009 C 
ENDBRANCH  15  16
ENDBRANCH  14  15
BRANCH  14  19
HETATM   19  C8  UNK     1       8.132   5.802   8.230  1.00  0.00     0.288 C 
HETATM   20  O4  UNK     1       8.491   5.485   7.103  1.00  0.00    -0.262 OA
BRANCH  19  21
HETATM   21  O3  UNK     1       7.182   5.162   8.975  1.00  0.00    -0.324 OA
HETATM   22  C19 UNK     1       7.679   4.210   9.920  1.00  0.00     0.213 C 
ENDBRANCH  19  21
ENDBRANCH  14  19
ENDBRANCH  13  14
ENDBRANCH   3  13
BRANCH   4  23
HETATM   23  C14 UNK     1      11.821   5.724   7.688  1.00  0.00     0.161 C 
HETATM   24  O5  UNK     1      11.674   4.561   8.106  1.00  0.00    -0.293 OA
HETATM   25  C18 UNK     1      11.809   5.965   6.184  1.00  0.00     0.097 C 
ENDBRANCH   4  23
TORSDOF 7
ENDMDL
