MODEL 1
REMARK VINA RESULT:      -9.7      0.000      0.000
REMARK  4 active torsions:
REMARK  status: ('A' for Active; 'I' for Inactive)
REMARK    1  A    between atoms: C5_13  and  S1_2 
REMARK    2  A    between atoms: N1_7  and  S1_2 
REMARK    3  A    between atoms: N1_7  and  N2_8 
REMARK    4  A    between atoms: C13_21  and  C4_12 
ROOT
HETATM    1  N2  UNK     1      18.937   4.851  30.453  1.00  0.00    -0.176 NA
HETATM    2  C13 UNK     1      18.971   5.070  31.726  1.00  0.00     0.156 C 
ENDROOT
BRANCH   2   3
HETATM    3  C4  UNK     1      18.522   6.330  32.321  1.00  0.00     0.056 A 
HETATM    4  C3  UNK     1      17.106   6.754  32.370  1.00  0.00     0.198 A 
HETATM    5  C1  UNK     1      16.845   8.058  33.007  1.00  0.00     0.050 A 
HETATM    6  O2  UNK     1      16.204   6.067  31.910  1.00  0.00    -0.286 OA
HETATM    7  C2  UNK     1      17.919   8.794  33.512  1.00  0.00     0.089 A 
HETATM    8  C6  UNK     1      15.543   8.555  33.104  1.00  0.00     0.042 A 
HETATM    9  O1  UNK     1      19.218   8.355  33.444  1.00  0.00    -0.321 OA
HETATM   10  C7  UNK     1      17.694  10.030  34.118  1.00  0.00     0.040 A 
HETATM   11  C8  UNK     1      19.449   7.139  32.847  1.00  0.00     0.159 A 
HETATM   12  C12 UNK     1      16.394  10.528  34.217  1.00  0.00     0.026 A 
HETATM   13  C11 UNK     1      15.322   9.792  33.710  1.00  0.00     0.035 A 
HETATM   14 Cl1  UNK     1      13.721  10.414  33.834  1.00  0.00    -0.084 Cl
ENDBRANCH   2   3
BRANCH   1  15
HETATM   15  N1  UNK     1      19.425   3.532  30.090  1.00  0.00    -0.200 N 
HETATM   16  H6  UNK     1      20.333   3.226  30.462  1.00  0.00     0.202 HD
BRANCH  15  17
HETATM   17  S1  UNK     1      18.251   2.397  29.611  1.00  0.00     0.277 S 
HETATM   18  O3  UNK     1      18.001   2.536  28.189  1.00  0.00    -0.199 OA
HETATM   19  O4  UNK     1      17.151   2.429  30.556  1.00  0.00    -0.199 OA
BRANCH  17  20
HETATM   20  C5  UNK     1      19.117   0.872  29.834  1.00  0.00     0.081 A 
HETATM   21  C10 UNK     1      19.525   0.159  28.721  1.00  0.00     0.025 A 
HETATM   22  C15 UNK     1      20.209  -1.045  28.897  1.00  0.00     0.002 A 
HETATM   23  C16 UNK     1      20.474  -1.515  30.183  1.00  0.00     0.000 A 
HETATM   24  C14 UNK     1      20.056  -0.781  31.294  1.00  0.00     0.002 A 
HETATM   25  C9  UNK     1      19.373   0.422  31.117  1.00  0.00     0.025 A 
ENDBRANCH  17  20
ENDBRANCH  15  17
ENDBRANCH   1  15
TORSDOF 4
ENDMDL
MODEL 2
REMARK VINA RESULT:      -9.6      1.244      2.004
REMARK  4 active torsions:
REMARK  status: ('A' for Active; 'I' for Inactive)
REMARK    1  A    between atoms: C5_13  and  S1_2 
REMARK    2  A    between atoms: N1_7  and  S1_2 
REMARK    3  A    between atoms: N1_7  and  N2_8 
REMARK    4  A    between atoms: C13_21  and  C4_12 
ROOT
HETATM    1  N2  UNK     1      18.900   4.927  30.624  1.00  0.00    -0.176 NA
HETATM    2  C13 UNK     1      18.306   5.041  31.766  1.00  0.00     0.156 C 
ENDROOT
BRANCH   2   3
HETATM    3  C4  UNK     1      17.730   6.304  32.230  1.00  0.00     0.056 A 
HETATM    4  C3  UNK     1      18.529   7.402  32.817  1.00  0.00     0.198 A 
HETATM    5  C1  UNK     1      17.774   8.599  33.231  1.00  0.00     0.050 A 
HETATM    6  O2  UNK     1      19.742   7.324  32.953  1.00  0.00    -0.286 OA
HETATM    7  C2  UNK     1      16.390   8.626  33.048  1.00  0.00     0.089 A 
HETATM    8  C6  UNK     1      18.430   9.693  33.800  1.00  0.00     0.042 A 
HETATM    9  O1  UNK     1      15.693   7.580  32.495  1.00  0.00    -0.321 OA
HETATM   10  C7  UNK     1      15.657   9.749  33.433  1.00  0.00     0.040 A 
HETATM   11  C8  UNK     1      16.407   6.469  32.115  1.00  0.00     0.159 A 
HETATM   12  C12 UNK     1      16.310  10.843  34.000  1.00  0.00     0.026 A 
HETATM   13  C11 UNK     1      17.693  10.815  34.183  1.00  0.00     0.035 A 
HETATM   14 Cl1  UNK     1      18.493  12.168  34.886  1.00  0.00    -0.084 Cl
ENDBRANCH   2   3
BRANCH   1  15
HETATM   15  N1  UNK     1      19.389   3.583  30.370  1.00  0.00    -0.200 N 
HETATM   16  H6  UNK     1      20.204   3.250  30.900  1.00  0.00     0.202 HD
BRANCH  15  17
HETATM   17  S1  UNK     1      18.271   2.484  29.709  1.00  0.00     0.277 S 
HETATM   18  O3  UNK     1      18.072   2.788  28.304  1.00  0.00    -0.199 OA
HETATM   19  O4  UNK     1      17.134   2.371  30.603  1.00  0.00    -0.199 OA
BRANCH  17  20
HETATM   20  C5  UNK     1      19.175   0.967  29.782  1.00  0.00     0.081 A 
HETATM   21  C10 UNK     1      19.393   0.253  28.617  1.00  0.00     0.025 A 
HETATM   22  C15 UNK     1      20.107  -0.944  28.675  1.00  0.00     0.002 A 
HETATM   23  C16 UNK     1      20.592  -1.408  29.898  1.00  0.00     0.000 A 
HETATM   24  C14 UNK     1      20.364  -0.675  31.062  1.00  0.00     0.002 A 
HETATM   25  C9  UNK     1      19.650   0.522  31.003  1.00  0.00     0.025 A 
ENDBRANCH  17  20
ENDBRANCH  15  17
ENDBRANCH   1  15
TORSDOF 4
ENDMDL
MODEL 3
REMARK VINA RESULT:      -9.0      3.831      8.980
REMARK  4 active torsions:
REMARK  status: ('A' for Active; 'I' for Inactive)
REMARK    1  A    between atoms: C5_13  and  S1_2 
REMARK    2  A    between atoms: N1_7  and  S1_2 
REMARK    3  A    between atoms: N1_7  and  N2_8 
REMARK    4  A    between atoms: C13_21  and  C4_12 
ROOT
HETATM    1  N2  UNK     1      17.463   4.694  31.720  1.00  0.00    -0.176 NA
HETATM    2  C13 UNK     1      17.923   3.610  32.252  1.00  0.00     0.156 C 
ENDROOT
BRANCH   2   3
HETATM    3  C4  UNK     1      18.487   2.519  31.455  1.00  0.00     0.056 A 
HETATM    4  C3  UNK     1      18.925   1.228  32.028  1.00  0.00     0.198 A 
HETATM    5  C1  UNK     1      19.471   0.249  31.070  1.00  0.00     0.050 A 
HETATM    6  O2  UNK     1      18.841   0.984  33.224  1.00  0.00    -0.286 OA
HETATM    7  C2  UNK     1      19.539   0.588  29.717  1.00  0.00     0.089 A 
HETATM    8  C6  UNK     1      19.916  -1.002  31.505  1.00  0.00     0.042 A 
HETATM    9  O1  UNK     1      19.117   1.802  29.233  1.00  0.00    -0.321 OA
HETATM   10  C7  UNK     1      20.052  -0.324  28.794  1.00  0.00     0.040 A 
HETATM   11  C8  UNK     1      18.612   2.706  30.136  1.00  0.00     0.159 A 
HETATM   12  C12 UNK     1      20.497  -1.573  29.227  1.00  0.00     0.026 A 
HETATM   13  C11 UNK     1      20.429  -1.911  30.579  1.00  0.00     0.035 A 
HETATM   14 Cl1  UNK     1      20.980  -3.455  31.107  1.00  0.00    -0.084 Cl
ENDBRANCH   2   3
BRANCH   1  15
HETATM   15  N1  UNK     1      16.958   5.638  32.701  1.00  0.00    -0.200 N 
HETATM   16  H6  UNK     1      17.094   5.429  33.697  1.00  0.00     0.202 HD
BRANCH  15  17
HETATM   17  S1  UNK     1      16.742   7.240  32.166  1.00  0.00     0.277 S 
HETATM   18  O3  UNK     1      15.474   7.744  32.659  1.00  0.00    -0.199 OA
HETATM   19  O4  UNK     1      17.061   7.312  30.753  1.00  0.00    -0.199 OA
BRANCH  17  20
HETATM   20  C5  UNK     1      18.013   8.087  33.057  1.00  0.00     0.081 A 
HETATM   21  C10 UNK     1      17.808   9.400  33.439  1.00  0.00     0.025 A 
HETATM   22  C15 UNK     1      18.812  10.069  34.142  1.00  0.00     0.002 A 
HETATM   23  C16 UNK     1      20.003   9.412  34.451  1.00  0.00     0.000 A 
HETATM   24  C14 UNK     1      20.191   8.086  34.058  1.00  0.00     0.002 A 
HETATM   25  C9  UNK     1      19.187   7.419  33.355  1.00  0.00     0.025 A 
ENDBRANCH  17  20
ENDBRANCH  15  17
ENDBRANCH   1  15
TORSDOF 4
ENDMDL
MODEL 4
REMARK VINA RESULT:      -9.0      2.498      2.797
REMARK  4 active torsions:
REMARK  status: ('A' for Active; 'I' for Inactive)
REMARK    1  A    between atoms: C5_13  and  S1_2 
REMARK    2  A    between atoms: N1_7  and  S1_2 
REMARK    3  A    between atoms: N1_7  and  N2_8 
REMARK    4  A    between atoms: C13_21  and  C4_12 
ROOT
HETATM    1  N2  UNK     1      18.035   3.236  33.521  1.00  0.00    -0.176 NA
HETATM    2  C13 UNK     1      18.044   4.235  32.701  1.00  0.00     0.156 C 
ENDROOT
BRANCH   2   3
HETATM    3  C4  UNK     1      18.453   5.581  33.103  1.00  0.00     0.056 A 
HETATM    4  C3  UNK     1      17.537   6.742  33.125  1.00  0.00     0.198 A 
HETATM    5  C1  UNK     1      18.128   8.022  33.557  1.00  0.00     0.050 A 
HETATM    6  O2  UNK     1      16.360   6.649  32.804  1.00  0.00    -0.286 OA
HETATM    7  C2  UNK     1      19.478   8.061  33.911  1.00  0.00     0.089 A 
HETATM    8  C6  UNK     1      17.352   9.183  33.612  1.00  0.00     0.042 A 
HETATM    9  O1  UNK     1      20.288   6.953  33.876  1.00  0.00    -0.321 OA
HETATM   10  C7  UNK     1      20.057   9.262  34.323  1.00  0.00     0.040 A 
HETATM   11  C8  UNK     1      19.725   5.766  33.470  1.00  0.00     0.159 A 
HETATM   12  C12 UNK     1      19.284  10.422  34.378  1.00  0.00     0.026 A 
HETATM   13  C11 UNK     1      17.935  10.382  34.024  1.00  0.00     0.035 A 
HETATM   14 Cl1  UNK     1      16.986  11.818  34.093  1.00  0.00    -0.084 Cl
ENDBRANCH   2   3
BRANCH   1  15
HETATM   15  N1  UNK     1      17.600   1.996  32.903  1.00  0.00    -0.200 N 
HETATM   16  H6  UNK     1      17.294   2.018  31.922  1.00  0.00     0.202 HD
BRANCH  15  17
HETATM   17  S1  UNK     1      18.180   0.558  33.603  1.00  0.00     0.277 S 
HETATM   18  O3  UNK     1      17.063  -0.325  33.882  1.00  0.00    -0.199 OA
HETATM   19  O4  UNK     1      19.130   0.892  34.647  1.00  0.00    -0.199 OA
BRANCH  17  20
HETATM   20  C5  UNK     1      19.076  -0.158  32.258  1.00  0.00     0.081 A 
HETATM   21  C10 UNK     1      19.407   0.632  31.171  1.00  0.00     0.025 A 
HETATM   22  C15 UNK     1      20.115   0.067  30.109  1.00  0.00     0.002 A 
HETATM   23  C16 UNK     1      20.479  -1.279  30.152  1.00  0.00     0.000 A 
HETATM   24  C14 UNK     1      20.138  -2.060  31.257  1.00  0.00     0.002 A 
HETATM   25  C9  UNK     1      19.431  -1.494  32.318  1.00  0.00     0.025 A 
ENDBRANCH  17  20
ENDBRANCH  15  17
ENDBRANCH   1  15
TORSDOF 4
ENDMDL
MODEL 5
REMARK VINA RESULT:      -8.9      4.272      8.254
REMARK  4 active torsions:
REMARK  status: ('A' for Active; 'I' for Inactive)
REMARK    1  A    between atoms: C5_13  and  S1_2 
REMARK    2  A    between atoms: N1_7  and  S1_2 
REMARK    3  A    between atoms: N1_7  and  N2_8 
REMARK    4  A    between atoms: C13_21  and  C4_12 
ROOT
HETATM    1  N2  UNK     1      17.927   4.210  32.369  1.00  0.00    -0.176 NA
HETATM    2  C13 UNK     1      17.569   3.609  31.283  1.00  0.00     0.156 C 
ENDROOT
BRANCH   2   3
HETATM    3  C4  UNK     1      18.277   2.439  30.760  1.00  0.00     0.056 A 
HETATM    4  C3  UNK     1      18.680   1.286  31.594  1.00  0.00     0.198 A 
HETATM    5  C1  UNK     1      19.387   0.198  30.893  1.00  0.00     0.050 A 
HETATM    6  O2  UNK     1      18.443   1.235  32.793  1.00  0.00    -0.286 OA
HETATM    7  C2  UNK     1      19.626   0.317  29.522  1.00  0.00     0.089 A 
HETATM    8  C6  UNK     1      19.814  -0.936  31.586  1.00  0.00     0.042 A 
HETATM    9  O1  UNK     1      19.229   1.409  28.790  1.00  0.00    -0.321 OA
HETATM   10  C7  UNK     1      20.293  -0.700  28.840  1.00  0.00     0.040 A 
HETATM   11  C8  UNK     1      18.572   2.417  29.456  1.00  0.00     0.159 A 
HETATM   12  C12 UNK     1      20.721  -1.834  29.530  1.00  0.00     0.026 A 
HETATM   13  C11 UNK     1      20.482  -1.952  30.900  1.00  0.00     0.035 A 
HETATM   14 Cl1  UNK     1      21.014  -3.354  31.747  1.00  0.00    -0.084 Cl
ENDBRANCH   2   3
BRANCH   1  15
HETATM   15  N1  UNK     1      17.079   5.342  32.699  1.00  0.00    -0.200 N 
HETATM   16  H6  UNK     1      16.356   5.220  33.419  1.00  0.00     0.202 HD
BRANCH  15  17
HETATM   17  S1  UNK     1      17.707   6.884  32.346  1.00  0.00     0.277 S 
HETATM   18  O3  UNK     1      17.733   7.681  33.558  1.00  0.00    -0.199 OA
HETATM   19  O4  UNK     1      17.065   7.391  31.148  1.00  0.00    -0.199 OA
BRANCH  17  20
HETATM   20  C5  UNK     1      19.386   6.503  31.946  1.00  0.00     0.081 A 
HETATM   21  C10 UNK     1      19.708   6.156  30.646  1.00  0.00     0.025 A 
HETATM   22  C15 UNK     1      21.034   5.855  30.330  1.00  0.00     0.002 A 
HETATM   23  C16 UNK     1      22.015   5.907  31.320  1.00  0.00     0.000 A 
HETATM   24  C14 UNK     1      21.672   6.260  32.625  1.00  0.00     0.002 A 
HETATM   25  C9  UNK     1      20.346   6.561  32.940  1.00  0.00     0.025 A 
ENDBRANCH  17  20
ENDBRANCH  15  17
ENDBRANCH   1  15
TORSDOF 4
ENDMDL
MODEL 6
REMARK VINA RESULT:      -8.8     16.424     17.818
REMARK  4 active torsions:
REMARK  status: ('A' for Active; 'I' for Inactive)
REMARK    1  A    between atoms: C5_13  and  S1_2 
REMARK    2  A    between atoms: N1_7  and  S1_2 
REMARK    3  A    between atoms: N1_7  and  N2_8 
REMARK    4  A    between atoms: C13_21  and  C4_12 
ROOT
HETATM    1  N2  UNK     1      25.139  -7.554  38.300  1.00  0.00    -0.176 NA
HETATM    2  C13 UNK     1      26.250  -8.010  38.779  1.00  0.00     0.156 C 
ENDROOT
BRANCH   2   3
HETATM    3  C4  UNK     1      27.506  -7.262  38.705  1.00  0.00     0.056 A 
HETATM    4  C3  UNK     1      28.816  -7.889  38.424  1.00  0.00     0.198 A 
HETATM    5  C1  UNK     1      29.973  -6.976  38.390  1.00  0.00     0.050 A 
HETATM    6  O2  UNK     1      28.935  -9.091  38.231  1.00  0.00    -0.286 OA
HETATM    7  C2  UNK     1      29.770  -5.613  38.617  1.00  0.00     0.089 A 
HETATM    8  C6  UNK     1      31.257  -7.463  38.136  1.00  0.00     0.042 A 
HETATM    9  O1  UNK     1      28.531  -5.079  38.872  1.00  0.00    -0.321 OA
HETATM   10  C7  UNK     1      30.852  -4.732  38.590  1.00  0.00     0.040 A 
HETATM   11  C8  UNK     1      27.460  -5.940  38.903  1.00  0.00     0.159 A 
HETATM   12  C12 UNK     1      32.135  -5.217  38.335  1.00  0.00     0.026 A 
HETATM   13  C11 UNK     1      32.337  -6.579  38.109  1.00  0.00     0.035 A 
HETATM   14 Cl1  UNK     1      33.924  -7.171  37.797  1.00  0.00    -0.084 Cl
ENDBRANCH   2   3
BRANCH   1  15
HETATM   15  N1  UNK     1      24.022  -8.462  38.491  1.00  0.00    -0.200 N 
HETATM   16  H6  UNK     1      24.218  -9.421  38.804  1.00  0.00     0.202 HD
BRANCH  15  17
HETATM   17  S1  UNK     1      22.505  -7.745  38.774  1.00  0.00     0.277 S 
HETATM   18  O3  UNK     1      22.307  -6.654  37.838  1.00  0.00    -0.199 OA
HETATM   19  O4  UNK     1      22.344  -7.527  40.199  1.00  0.00    -0.199 OA
BRANCH  17  20
HETATM   20  C5  UNK     1      21.403  -9.041  38.292  1.00  0.00     0.081 A 
HETATM   21  C10 UNK     1      20.316  -9.335  39.095  1.00  0.00     0.025 A 
HETATM   22  C15 UNK     1      19.446 -10.358  38.715  1.00  0.00     0.002 A 
HETATM   23  C16 UNK     1      19.678 -11.069  37.538  1.00  0.00     0.000 A 
HETATM   24  C14 UNK     1      20.779 -10.757  36.740  1.00  0.00     0.002 A 
HETATM   25  C9  UNK     1      21.648  -9.734  37.120  1.00  0.00     0.025 A 
ENDBRANCH  17  20
ENDBRANCH  15  17
ENDBRANCH   1  15
TORSDOF 4
ENDMDL
MODEL 7
REMARK VINA RESULT:      -8.7      3.717      9.235
REMARK  4 active torsions:
REMARK  status: ('A' for Active; 'I' for Inactive)
REMARK    1  A    between atoms: C5_13  and  S1_2 
REMARK    2  A    between atoms: N1_7  and  S1_2 
REMARK    3  A    between atoms: N1_7  and  N2_8 
REMARK    4  A    between atoms: C13_21  and  C4_12 
ROOT
HETATM    1  N2  UNK     1      18.074   4.282  32.307  1.00  0.00    -0.176 NA
HETATM    2  C13 UNK     1      17.640   3.637  31.276  1.00  0.00     0.156 C 
ENDROOT
BRANCH   2   3
HETATM    3  C4  UNK     1      18.322   2.458  30.739  1.00  0.00     0.056 A 
HETATM    4  C3  UNK     1      18.721   1.297  31.564  1.00  0.00     0.198 A 
HETATM    5  C1  UNK     1      19.402   0.201  30.849  1.00  0.00     0.050 A 
HETATM    6  O2  UNK     1      18.501   1.246  32.766  1.00  0.00    -0.286 OA
HETATM    7  C2  UNK     1      19.622   0.321  29.475  1.00  0.00     0.089 A 
HETATM    8  C6  UNK     1      19.823  -0.942  31.532  1.00  0.00     0.042 A 
HETATM    9  O1  UNK     1      19.230   1.421  28.753  1.00  0.00    -0.321 OA
HETATM   10  C7  UNK     1      20.265  -0.704  28.780  1.00  0.00     0.040 A 
HETATM   11  C8  UNK     1      18.598   2.436  29.431  1.00  0.00     0.159 A 
HETATM   12  C12 UNK     1      20.686  -1.846  29.461  1.00  0.00     0.026 A 
HETATM   13  C11 UNK     1      20.465  -1.964  30.833  1.00  0.00     0.035 A 
HETATM   14 Cl1  UNK     1      20.989  -3.377  31.668  1.00  0.00    -0.084 Cl
ENDBRANCH   2   3
BRANCH   1  15
HETATM   15  N1  UNK     1      17.236   5.414  32.664  1.00  0.00    -0.200 N 
HETATM   16  H6  UNK     1      16.586   5.312  33.453  1.00  0.00     0.202 HD
BRANCH  15  17
HETATM   17  S1  UNK     1      17.795   6.948  32.187  1.00  0.00     0.277 S 
HETATM   18  O3  UNK     1      17.479   7.161  30.787  1.00  0.00    -0.199 OA
HETATM   19  O4  UNK     1      19.153   7.126  32.667  1.00  0.00    -0.199 OA
BRANCH  17  20
HETATM   20  C5  UNK     1      16.742   8.018  33.119  1.00  0.00     0.081 A 
HETATM   21  C10 UNK     1      15.412   7.676  33.289  1.00  0.00     0.025 A 
HETATM   22  C15 UNK     1      14.580   8.520  34.026  1.00  0.00     0.002 A 
HETATM   23  C16 UNK     1      15.093   9.694  34.580  1.00  0.00     0.000 A 
HETATM   24  C14 UNK     1      16.436  10.022  34.399  1.00  0.00     0.002 A 
HETATM   25  C9  UNK     1      17.267   9.177  33.663  1.00  0.00     0.025 A 
ENDBRANCH  17  20
ENDBRANCH  15  17
ENDBRANCH   1  15
TORSDOF 4
ENDMDL
MODEL 8
REMARK VINA RESULT:      -8.7      8.294     12.229
REMARK  4 active torsions:
REMARK  status: ('A' for Active; 'I' for Inactive)
REMARK    1  A    between atoms: C5_13  and  S1_2 
REMARK    2  A    between atoms: N1_7  and  S1_2 
REMARK    3  A    between atoms: N1_7  and  N2_8 
REMARK    4  A    between atoms: C13_21  and  C4_12 
ROOT
HETATM    1  N2  UNK     1      19.406  -2.509  35.003  1.00  0.00    -0.176 NA
HETATM    2  C13 UNK     1      20.253  -2.948  35.875  1.00  0.00     0.156 C 
ENDROOT
BRANCH   2   3
HETATM    3  C4  UNK     1      20.071  -4.217  36.581  1.00  0.00     0.056 A 
HETATM    4  C3  UNK     1      21.111  -4.838  37.430  1.00  0.00     0.198 A 
HETATM    5  C1  UNK     1      20.748  -6.120  38.061  1.00  0.00     0.050 A 
HETATM    6  O2  UNK     1      22.207  -4.321  37.599  1.00  0.00    -0.286 OA
HETATM    7  C2  UNK     1      19.480  -6.656  37.827  1.00  0.00     0.089 A 
HETATM    8  C6  UNK     1      21.657  -6.793  38.880  1.00  0.00     0.042 A 
HETATM    9  O1  UNK     1      18.547  -6.039  37.031  1.00  0.00    -0.321 OA
HETATM   10  C7  UNK     1      19.116  -7.869  38.415  1.00  0.00     0.040 A 
HETATM   11  C8  UNK     1      18.898  -4.845  36.447  1.00  0.00     0.159 A 
HETATM   12  C12 UNK     1      20.023  -8.542  39.234  1.00  0.00     0.026 A 
HETATM   13  C11 UNK     1      21.289  -8.006  39.465  1.00  0.00     0.035 A 
HETATM   14 Cl1  UNK     1      22.404  -8.843  40.476  1.00  0.00    -0.084 Cl
ENDBRANCH   2   3
BRANCH   1  15
HETATM   15  N1  UNK     1      19.792  -1.234  34.426  1.00  0.00    -0.200 N 
HETATM   16  H6  UNK     1      20.793  -1.015  34.345  1.00  0.00     0.202 HD
BRANCH  15  17
HETATM   17  S1  UNK     1      18.652  -0.489  33.405  1.00  0.00     0.277 S 
HETATM   18  O3  UNK     1      18.634   0.938  33.665  1.00  0.00    -0.199 OA
HETATM   19  O4  UNK     1      17.421  -1.256  33.436  1.00  0.00    -0.199 OA
BRANCH  17  20
HETATM   20  C5  UNK     1      19.396  -0.713  31.817  1.00  0.00     0.081 A 
HETATM   21  C10 UNK     1      19.418   0.346  30.928  1.00  0.00     0.025 A 
HETATM   22  C15 UNK     1      20.005   0.170  29.674  1.00  0.00     0.002 A 
HETATM   23  C16 UNK     1      20.560  -1.064  29.331  1.00  0.00     0.000 A 
HETATM   24  C14 UNK     1      20.529  -2.120  30.242  1.00  0.00     0.002 A 
HETATM   25  C9  UNK     1      19.942  -1.942  31.495  1.00  0.00     0.025 A 
ENDBRANCH  17  20
ENDBRANCH  15  17
ENDBRANCH   1  15
TORSDOF 4
ENDMDL
MODEL 9
REMARK VINA RESULT:      -8.7      8.454     10.358
REMARK  4 active torsions:
REMARK  status: ('A' for Active; 'I' for Inactive)
REMARK    1  A    between atoms: C5_13  and  S1_2 
REMARK    2  A    between atoms: N1_7  and  S1_2 
REMARK    3  A    between atoms: N1_7  and  N2_8 
REMARK    4  A    between atoms: C13_21  and  C4_12 
ROOT
HETATM    1  N2  UNK     1      19.346  -4.955  36.785  1.00  0.00    -0.176 NA
HETATM    2  C13 UNK     1      20.007  -3.875  36.525  1.00  0.00     0.156 C 
ENDROOT
BRANCH   2   3
HETATM    3  C4  UNK     1      19.408  -2.543  36.625  1.00  0.00     0.056 A 
HETATM    4  C3  UNK     1      19.452  -1.542  35.537  1.00  0.00     0.198 A 
HETATM    5  C1  UNK     1      18.797  -0.252  35.820  1.00  0.00     0.050 A 
HETATM    6  O2  UNK     1      20.000  -1.768  34.466  1.00  0.00    -0.286 OA
HETATM    7  C2  UNK     1      18.189  -0.057  37.062  1.00  0.00     0.089 A 
HETATM    8  C6  UNK     1      18.782   0.765  34.862  1.00  0.00     0.042 A 
HETATM    9  O1  UNK     1      18.173  -1.021  38.041  1.00  0.00    -0.321 OA
HETATM   10  C7  UNK     1      17.563   1.156  37.350  1.00  0.00     0.040 A 
HETATM   11  C8  UNK     1      18.789  -2.218  37.765  1.00  0.00     0.159 A 
HETATM   12  C12 UNK     1      17.547   2.172  36.395  1.00  0.00     0.026 A 
HETATM   13  C11 UNK     1      18.155   1.977  35.155  1.00  0.00     0.035 A 
HETATM   14 Cl1  UNK     1      18.133   3.237  33.980  1.00  0.00    -0.084 Cl
ENDBRANCH   2   3
BRANCH   1  15
HETATM   15  N1  UNK     1      20.142  -6.160  36.624  1.00  0.00    -0.200 N 
HETATM   16  H6  UNK     1      20.528  -6.607  37.465  1.00  0.00     0.202 HD
BRANCH  15  17
HETATM   17  S1  UNK     1      19.878  -7.056  35.202  1.00  0.00     0.277 S 
HETATM   18  O3  UNK     1      20.731  -6.544  34.146  1.00  0.00    -0.199 OA
HETATM   19  O4  UNK     1      18.449  -7.192  34.989  1.00  0.00    -0.199 OA
BRANCH  17  20
HETATM   20  C5  UNK     1      20.516  -8.641  35.655  1.00  0.00     0.081 A 
HETATM   21  C10 UNK     1      19.962  -9.309  36.732  1.00  0.00     0.025 A 
HETATM   22  C15 UNK     1      20.466 -10.560  37.090  1.00  0.00     0.002 A 
HETATM   23  C16 UNK     1      21.516 -11.123  36.364  1.00  0.00     0.000 A 
HETATM   24  C14 UNK     1      22.061 -10.435  35.279  1.00  0.00     0.002 A 
HETATM   25  C9  UNK     1      21.557  -9.184  34.923  1.00  0.00     0.025 A 
ENDBRANCH  17  20
ENDBRANCH  15  17
ENDBRANCH   1  15
TORSDOF 4
ENDMDL
MODEL 10
REMARK VINA RESULT:      -8.5      8.591     12.590
REMARK  4 active torsions:
REMARK  status: ('A' for Active; 'I' for Inactive)
REMARK    1  A    between atoms: C5_13  and  S1_2 
REMARK    2  A    between atoms: N1_7  and  S1_2 
REMARK    3  A    between atoms: N1_7  and  N2_8 
REMARK    4  A    between atoms: C13_21  and  C4_12 
ROOT
HETATM    1  N2  UNK     1      19.466  -2.298  35.121  1.00  0.00    -0.176 NA
HETATM    2  C13 UNK     1      20.246  -3.328  35.100  1.00  0.00     0.156 C 
ENDROOT
BRANCH   2   3
HETATM    3  C4  UNK     1      20.175  -4.390  36.106  1.00  0.00     0.056 A 
HETATM    4  C3  UNK     1      19.959  -5.816  35.777  1.00  0.00     0.198 A 
HETATM    5  C1  UNK     1      19.914  -6.743  36.923  1.00  0.00     0.050 A 
HETATM    6  O2  UNK     1      19.824  -6.205  34.625  1.00  0.00    -0.286 OA
HETATM    7  C2  UNK     1      20.075  -6.234  38.213  1.00  0.00     0.089 A 
HETATM    8  C6  UNK     1      19.712  -8.110  36.725  1.00  0.00     0.042 A 
HETATM    9  O1  UNK     1      20.276  -4.900  38.467  1.00  0.00    -0.321 OA
HETATM   10  C7  UNK     1      20.036  -7.094  39.312  1.00  0.00     0.040 A 
HETATM   11  C8  UNK     1      20.314  -4.046  37.390  1.00  0.00     0.159 A 
HETATM   12  C12 UNK     1      19.835  -8.461  39.116  1.00  0.00     0.026 A 
HETATM   13  C11 UNK     1      19.673  -8.967  37.826  1.00  0.00     0.035 A 
HETATM   14 Cl1  UNK     1      19.424 -10.655  37.592  1.00  0.00    -0.084 Cl
ENDBRANCH   2   3
BRANCH   1  15
HETATM   15  N1  UNK     1      19.711  -1.377  34.025  1.00  0.00    -0.200 N 
HETATM   16  H6  UNK     1      20.502  -1.563  33.397  1.00  0.00     0.202 HD
BRANCH  15  17
HETATM   17  S1  UNK     1      18.380  -0.454  33.502  1.00  0.00     0.277 S 
HETATM   18  O3  UNK     1      17.322  -1.343  33.061  1.00  0.00    -0.199 OA
HETATM   19  O4  UNK     1      18.855   0.608  32.635  1.00  0.00    -0.199 OA
BRANCH  17  20
HETATM   20  C5  UNK     1      17.838   0.279  35.016  1.00  0.00     0.081 A 
HETATM   21  C10 UNK     1      18.682   1.145  35.688  1.00  0.00     0.025 A 
HETATM   22  C15 UNK     1      18.253   1.723  36.883  1.00  0.00     0.002 A 
HETATM   23  C16 UNK     1      16.987   1.426  37.387  1.00  0.00     0.000 A 
HETATM   24  C14 UNK     1      16.149   0.552  36.695  1.00  0.00     0.002 A 
HETATM   25  C9  UNK     1      16.578  -0.026  35.500  1.00  0.00     0.025 A 
ENDBRANCH  17  20
ENDBRANCH  15  17
ENDBRANCH   1  15
TORSDOF 4
ENDMDL
