MODEL 1
REMARK VINA RESULT:      -7.5      0.000      0.000
REMARK  6 active torsions:
REMARK  status: ('A' for Active; 'I' for Inactive)
REMARK    1  A    between atoms: C1_3  and  N1_2 
REMARK    2  A    between atoms: C2_4  and  N1_2 
REMARK       I    between atoms: C3_5  and  N1_2 
REMARK    3  A    between atoms: C1_3  and  C4_6 
REMARK    4  A    between atoms: C3_5  and  C5_7 
REMARK    5  A    between atoms: C5_7  and  C6_8 
REMARK    6  A    between atoms: C11_13  and  C8_10 
ROOT
HETATM    1  C5  UNK     1      13.678   8.457   8.941  1.00  0.00     0.043 C 
HETATM    2  C8  UNK     1      12.651   8.785   9.753  1.00  0.00     0.029 C 
ENDROOT
BRANCH   1   3
HETATM    3  C3  UNK     1      13.493   7.320   7.985  1.00  0.00     0.255 C 
HETATM    4  O1  UNK     1      13.636   7.535   6.780  1.00  0.00    -0.267 OA
HETATM    5  N1  UNK     1      13.141   6.088   8.540  1.00  0.00    -0.344 N 
BRANCH   5   6
HETATM    6  C1  UNK     1      12.312   5.123   7.829  1.00  0.00     0.164 C 
BRANCH   6   7
HETATM    7  C4  UNK     1      10.932   5.653   7.568  1.00  0.00    -0.040 A 
HETATM    8  C10 UNK     1      10.539   5.934   6.266  1.00  0.00     0.009 A 
HETATM    9  C15 UNK     1       9.256   6.425   6.024  1.00  0.00     0.001 A 
HETATM   10  C16 UNK     1       8.376   6.632   7.086  1.00  0.00     0.000 A 
HETATM   11  C14 UNK     1       8.778   6.348   8.390  1.00  0.00     0.001 A 
HETATM   12  C9  UNK     1      10.061   5.856   8.633  1.00  0.00     0.009 A 
ENDBRANCH   6   7
ENDBRANCH   5   6
BRANCH   5  13
HETATM   13  C2  UNK     1      13.578   5.679   9.873  1.00  0.00     0.122 C 
HETATM   14  C7  UNK     1      14.907   4.952   9.822  1.00  0.00     0.026 C 
ENDBRANCH   5  13
ENDBRANCH   1   3
BRANCH   1  15
HETATM   15  C6  UNK     1      14.997   9.125   9.056  1.00  0.00    -0.021 A 
HETATM   16  C12 UNK     1      15.981   8.535   9.824  1.00  0.00     0.012 A 
HETATM   17  C17 UNK     1      17.223   9.163   9.931  1.00  0.00     0.001 A 
HETATM   18  C21 UNK     1      17.454  10.367   9.267  1.00  0.00     0.000 A 
HETATM   19  C18 UNK     1      16.446  10.945   8.497  1.00  0.00     0.001 A 
HETATM   20  C13 UNK     1      15.204  10.317   8.390  1.00  0.00     0.012 A 
ENDBRANCH   1  15
BRANCH   2  21
HETATM   21  C11 UNK     1      12.674   9.797  10.818  1.00  0.00    -0.035 A 
HETATM   22  C19 UNK     1      12.218  11.079  10.550  1.00  0.00     0.011 A 
HETATM   23  C22 UNK     1      12.240  12.040  11.561  1.00  0.00     0.001 A 
HETATM   24  C24 UNK     1      12.716  11.707  12.829  1.00  0.00     0.000 A 
HETATM   25  C23 UNK     1      13.170  10.414  13.086  1.00  0.00     0.001 A 
HETATM   26  C20 UNK     1      13.150   9.453  12.074  1.00  0.00     0.011 A 
ENDBRANCH   2  21
TORSDOF 6
ENDMDL
MODEL 2
REMARK VINA RESULT:      -7.2     33.273     35.933
REMARK  6 active torsions:
REMARK  status: ('A' for Active; 'I' for Inactive)
REMARK    1  A    between atoms: C1_3  and  N1_2 
REMARK    2  A    between atoms: C2_4  and  N1_2 
REMARK       I    between atoms: C3_5  and  N1_2 
REMARK    3  A    between atoms: C1_3  and  C4_6 
REMARK    4  A    between atoms: C3_5  and  C5_7 
REMARK    5  A    between atoms: C5_7  and  C6_8 
REMARK    6  A    between atoms: C11_13  and  C8_10 
ROOT
HETATM    1  C5  UNK     1      29.890  -7.933  36.056  1.00  0.00     0.043 C 
HETATM    2  C8  UNK     1      29.019  -8.931  36.309  1.00  0.00     0.029 C 
ENDROOT
BRANCH   1   3
HETATM    3  C3  UNK     1      30.745  -8.030  34.831  1.00  0.00     0.255 C 
HETATM    4  O1  UNK     1      31.559  -8.951  34.752  1.00  0.00    -0.267 OA
HETATM    5  N1  UNK     1      30.569  -7.036  33.865  1.00  0.00    -0.344 N 
BRANCH   5   6
HETATM    6  C1  UNK     1      31.659  -6.576  33.015  1.00  0.00     0.164 C 
BRANCH   6   7
HETATM    7  C4  UNK     1      32.735  -5.887  33.803  1.00  0.00    -0.040 A 
HETATM    8  C10 UNK     1      32.413  -4.788  34.590  1.00  0.00     0.009 A 
HETATM    9  C15 UNK     1      33.413  -4.148  35.323  1.00  0.00     0.001 A 
HETATM   10  C16 UNK     1      34.728  -4.612  35.263  1.00  0.00     0.000 A 
HETATM   11  C14 UNK     1      35.042  -5.715  34.470  1.00  0.00     0.001 A 
HETATM   12  C9  UNK     1      34.042  -6.355  33.738  1.00  0.00     0.009 A 
ENDBRANCH   6   7
ENDBRANCH   5   6
BRANCH   5  13
HETATM   13  C2  UNK     1      29.280  -6.385  33.641  1.00  0.00     0.122 C 
HETATM   14  C7  UNK     1      29.291  -5.556  32.373  1.00  0.00     0.026 C 
ENDBRANCH   5  13
ENDBRANCH   1   3
BRANCH   1  15
HETATM   15  C6  UNK     1      30.085  -6.816  37.012  1.00  0.00    -0.021 A 
HETATM   16  C12 UNK     1      31.300  -6.691  37.657  1.00  0.00     0.012 A 
HETATM   17  C17 UNK     1      31.484  -5.639  38.555  1.00  0.00     0.001 A 
HETATM   18  C21 UNK     1      30.449  -4.735  38.790  1.00  0.00     0.000 A 
HETATM   19  C18 UNK     1      29.230  -4.880  38.128  1.00  0.00     0.001 A 
HETATM   20  C13 UNK     1      29.046  -5.932  37.230  1.00  0.00     0.012 A 
ENDBRANCH   1  15
BRANCH   2  21
HETATM   21  C11 UNK     1      28.172  -9.064  37.503  1.00  0.00    -0.035 A 
HETATM   22  C19 UNK     1      28.710  -9.605  38.662  1.00  0.00     0.011 A 
HETATM   23  C22 UNK     1      27.907  -9.731  39.796  1.00  0.00     0.001 A 
HETATM   24  C24 UNK     1      26.576  -9.314  39.758  1.00  0.00     0.000 A 
HETATM   25  C23 UNK     1      26.049  -8.771  38.587  1.00  0.00     0.001 A 
HETATM   26  C20 UNK     1      26.852  -8.646  37.453  1.00  0.00     0.011 A 
ENDBRANCH   2  21
TORSDOF 6
ENDMDL
MODEL 3
REMARK VINA RESULT:      -7.0     30.162     32.526
REMARK  6 active torsions:
REMARK  status: ('A' for Active; 'I' for Inactive)
REMARK    1  A    between atoms: C1_3  and  N1_2 
REMARK    2  A    between atoms: C2_4  and  N1_2 
REMARK       I    between atoms: C3_5  and  N1_2 
REMARK    3  A    between atoms: C1_3  and  C4_6 
REMARK    4  A    between atoms: C3_5  and  C5_7 
REMARK    5  A    between atoms: C5_7  and  C6_8 
REMARK    6  A    between atoms: C11_13  and  C8_10 
ROOT
HETATM    1  C5  UNK     1      20.757  -4.977  37.480  1.00  0.00     0.043 C 
HETATM    2  C8  UNK     1      20.767  -3.628  37.435  1.00  0.00     0.029 C 
ENDROOT
BRANCH   1   3
HETATM    3  C3  UNK     1      21.821  -5.668  38.274  1.00  0.00     0.255 C 
HETATM    4  O1  UNK     1      22.988  -5.291  38.150  1.00  0.00    -0.267 OA
HETATM    5  N1  UNK     1      21.407  -6.724  39.089  1.00  0.00    -0.344 N 
BRANCH   5   6
HETATM    6  C1  UNK     1      22.262  -7.868  39.376  1.00  0.00     0.164 C 
BRANCH   6   7
HETATM    7  C4  UNK     1      22.456  -8.741  38.170  1.00  0.00    -0.040 A 
HETATM    8  C10 UNK     1      23.694  -8.781  37.542  1.00  0.00     0.009 A 
HETATM    9  C15 UNK     1      23.874  -9.593  36.422  1.00  0.00     0.001 A 
HETATM   10  C16 UNK     1      22.813 -10.359  35.938  1.00  0.00     0.000 A 
HETATM   11  C14 UNK     1      21.573 -10.313  36.574  1.00  0.00     0.001 A 
HETATM   12  C9  UNK     1      21.393  -9.501  37.694  1.00  0.00     0.009 A 
ENDBRANCH   6   7
ENDBRANCH   5   6
BRANCH   5  13
HETATM   13  C2  UNK     1      20.085  -6.756  39.711  1.00  0.00     0.122 C 
HETATM   14  C7  UNK     1      19.459  -8.133  39.611  1.00  0.00     0.026 C 
ENDBRANCH   5  13
ENDBRANCH   1   3
BRANCH   1  15
HETATM   15  C6  UNK     1      19.791  -5.770  36.682  1.00  0.00    -0.021 A 
HETATM   16  C12 UNK     1      20.255  -6.514  35.616  1.00  0.00     0.012 A 
HETATM   17  C17 UNK     1      19.346  -7.262  34.866  1.00  0.00     0.001 A 
HETATM   18  C21 UNK     1      17.992  -7.249  35.199  1.00  0.00     0.000 A 
HETATM   19  C18 UNK     1      17.545  -6.490  36.280  1.00  0.00     0.001 A 
HETATM   20  C13 UNK     1      18.454  -5.742  37.030  1.00  0.00     0.012 A 
ENDBRANCH   1  15
BRANCH   2  21
HETATM   21  C11 UNK     1      19.873  -2.779  36.635  1.00  0.00    -0.035 A 
HETATM   22  C19 UNK     1      18.739  -2.238  37.224  1.00  0.00     0.011 A 
HETATM   23  C22 UNK     1      17.891  -1.432  36.465  1.00  0.00     0.001 A 
HETATM   24  C24 UNK     1      18.186  -1.176  35.126  1.00  0.00     0.000 A 
HETATM   25  C23 UNK     1      19.330  -1.724  34.547  1.00  0.00     0.001 A 
HETATM   26  C20 UNK     1      20.178  -2.532  35.306  1.00  0.00     0.011 A 
ENDBRANCH   2  21
TORSDOF 6
ENDMDL
MODEL 4
REMARK VINA RESULT:      -6.9      1.074      3.296
REMARK  6 active torsions:
REMARK  status: ('A' for Active; 'I' for Inactive)
REMARK    1  A    between atoms: C1_3  and  N1_2 
REMARK    2  A    between atoms: C2_4  and  N1_2 
REMARK       I    between atoms: C3_5  and  N1_2 
REMARK    3  A    between atoms: C1_3  and  C4_6 
REMARK    4  A    between atoms: C3_5  and  C5_7 
REMARK    5  A    between atoms: C5_7  and  C6_8 
REMARK    6  A    between atoms: C11_13  and  C8_10 
ROOT
HETATM    1  C5  UNK     1      13.836   8.313   8.667  1.00  0.00     0.043 C 
HETATM    2  C8  UNK     1      15.054   8.878   8.531  1.00  0.00     0.029 C 
ENDROOT
BRANCH   1   3
HETATM    3  C3  UNK     1      13.523   7.097   7.852  1.00  0.00     0.255 C 
HETATM    4  O1  UNK     1      13.629   7.166   6.626  1.00  0.00    -0.267 OA
HETATM    5  N1  UNK     1      13.102   5.965   8.554  1.00  0.00    -0.344 N 
BRANCH   5   6
HETATM    6  C1  UNK     1      12.171   4.999   7.986  1.00  0.00     0.164 C 
BRANCH   6   7
HETATM    7  C4  UNK     1      10.814   5.598   7.750  1.00  0.00    -0.040 A 
HETATM    8  C10 UNK     1      10.407   5.889   6.454  1.00  0.00     0.009 A 
HETATM    9  C15 UNK     1       9.146   6.445   6.236  1.00  0.00     0.001 A 
HETATM   10  C16 UNK     1       8.302   6.706   7.316  1.00  0.00     0.000 A 
HETATM   11  C14 UNK     1       8.719   6.412   8.613  1.00  0.00     0.001 A 
HETATM   12  C9  UNK     1       9.979   5.856   8.832  1.00  0.00     0.009 A 
ENDBRANCH   6   7
ENDBRANCH   5   6
BRANCH   5  13
HETATM   13  C2  UNK     1      13.565   5.670   9.908  1.00  0.00     0.122 C 
HETATM   14  C7  UNK     1      14.920   4.993   9.895  1.00  0.00     0.026 C 
ENDBRANCH   5  13
ENDBRANCH   1   3
BRANCH   1  15
HETATM   15  C6  UNK     1      12.788   8.929   9.516  1.00  0.00    -0.021 A 
HETATM   16  C12 UNK     1      11.557   9.213   8.959  1.00  0.00     0.012 A 
HETATM   17  C17 UNK     1      10.570   9.792   9.757  1.00  0.00     0.001 A 
HETATM   18  C21 UNK     1      10.835  10.075  11.096  1.00  0.00     0.000 A 
HETATM   19  C18 UNK     1      12.086   9.781  11.638  1.00  0.00     0.001 A 
HETATM   20  C13 UNK     1      13.073   9.201  10.840  1.00  0.00     0.012 A 
ENDBRANCH   1  15
BRANCH   2  21
HETATM   21  C11 UNK     1      15.510  10.123   9.165  1.00  0.00    -0.035 A 
HETATM   22  C19 UNK     1      16.357  10.059  10.261  1.00  0.00     0.011 A 
HETATM   23  C22 UNK     1      16.791  11.241  10.863  1.00  0.00     0.001 A 
HETATM   24  C24 UNK     1      16.371  12.472  10.362  1.00  0.00     0.000 A 
HETATM   25  C23 UNK     1      15.520  12.523   9.258  1.00  0.00     0.001 A 
HETATM   26  C20 UNK     1      15.086  11.341   8.657  1.00  0.00     0.011 A 
ENDBRANCH   2  21
TORSDOF 6
ENDMDL
MODEL 5
REMARK VINA RESULT:      -6.8     30.975     33.645
REMARK  6 active torsions:
REMARK  status: ('A' for Active; 'I' for Inactive)
REMARK    1  A    between atoms: C1_3  and  N1_2 
REMARK    2  A    between atoms: C2_4  and  N1_2 
REMARK       I    between atoms: C3_5  and  N1_2 
REMARK    3  A    between atoms: C1_3  and  C4_6 
REMARK    4  A    between atoms: C3_5  and  C5_7 
REMARK    5  A    between atoms: C5_7  and  C6_8 
REMARK    6  A    between atoms: C11_13  and  C8_10 
ROOT
HETATM    1  C5  UNK     1      30.812  -6.556  33.416  1.00  0.00     0.043 C 
HETATM    2  C8  UNK     1      31.672  -5.982  34.283  1.00  0.00     0.029 C 
ENDROOT
BRANCH   1   3
HETATM    3  C3  UNK     1      30.623  -5.917  32.075  1.00  0.00     0.255 C 
HETATM    4  O1  UNK     1      29.950  -4.888  32.003  1.00  0.00    -0.267 OA
HETATM    5  N1  UNK     1      31.213  -6.563  30.986  1.00  0.00    -0.344 N 
BRANCH   5   6
HETATM    6  C1  UNK     1      30.635  -6.519  29.650  1.00  0.00     0.164 C 
BRANCH   6   7
HETATM    7  C4  UNK     1      29.702  -7.669  29.403  1.00  0.00    -0.040 A 
HETATM    8  C10 UNK     1      28.488  -7.727  30.077  1.00  0.00     0.009 A 
HETATM    9  C15 UNK     1      27.621  -8.795  29.847  1.00  0.00     0.001 A 
HETATM   10  C16 UNK     1      27.974  -9.799  28.944  1.00  0.00     0.000 A 
HETATM   11  C14 UNK     1      29.195  -9.734  28.272  1.00  0.00     0.001 A 
HETATM   12  C9  UNK     1      30.062  -8.666  28.502  1.00  0.00     0.009 A 
ENDBRANCH   6   7
ENDBRANCH   5   6
BRANCH   5  13
HETATM   13  C2  UNK     1      32.451  -7.329  31.111  1.00  0.00     0.122 C 
HETATM   14  C7  UNK     1      33.290  -7.234  29.853  1.00  0.00     0.026 C 
ENDBRANCH   5  13
ENDBRANCH   1   3
BRANCH   1  15
HETATM   15  C6  UNK     1      29.988  -7.726  33.805  1.00  0.00    -0.021 A 
HETATM   16  C12 UNK     1      30.349  -8.979  33.352  1.00  0.00     0.012 A 
HETATM   17  C17 UNK     1      29.574 -10.080  33.719  1.00  0.00     0.001 A 
HETATM   18  C21 UNK     1      28.454  -9.904  34.531  1.00  0.00     0.000 A 
HETATM   19  C18 UNK     1      28.108  -8.629  34.977  1.00  0.00     0.001 A 
HETATM   20  C13 UNK     1      28.883  -7.528  34.610  1.00  0.00     0.012 A 
ENDBRANCH   1  15
BRANCH   2  21
HETATM   21  C11 UNK     1      31.916  -6.400  35.671  1.00  0.00    -0.035 A 
HETATM   22  C19 UNK     1      32.749  -7.481  35.920  1.00  0.00     0.011 A 
HETATM   23  C22 UNK     1      32.981  -7.878  37.238  1.00  0.00     0.001 A 
HETATM   24  C24 UNK     1      32.376  -7.189  38.289  1.00  0.00     0.000 A 
HETATM   25  C23 UNK     1      31.542  -6.104  38.025  1.00  0.00     0.001 A 
HETATM   26  C20 UNK     1      31.309  -5.707  36.707  1.00  0.00     0.011 A 
ENDBRANCH   2  21
TORSDOF 6
ENDMDL
MODEL 6
REMARK VINA RESULT:      -6.8     32.224     34.997
REMARK  6 active torsions:
REMARK  status: ('A' for Active; 'I' for Inactive)
REMARK    1  A    between atoms: C1_3  and  N1_2 
REMARK    2  A    between atoms: C2_4  and  N1_2 
REMARK       I    between atoms: C3_5  and  N1_2 
REMARK    3  A    between atoms: C1_3  and  C4_6 
REMARK    4  A    between atoms: C3_5  and  C5_7 
REMARK    5  A    between atoms: C5_7  and  C6_8 
REMARK    6  A    between atoms: C11_13  and  C8_10 
ROOT
HETATM    1  C5  UNK     1      29.110  -7.853  34.532  1.00  0.00     0.043 C 
HETATM    2  C8  UNK     1      28.370  -8.293  33.494  1.00  0.00     0.029 C 
ENDROOT
BRANCH   1   3
HETATM    3  C3  UNK     1      28.519  -7.920  35.906  1.00  0.00     0.255 C 
HETATM    4  O1  UNK     1      27.407  -7.421  36.093  1.00  0.00    -0.267 OA
HETATM    5  N1  UNK     1      29.296  -8.530  36.892  1.00  0.00    -0.344 N 
BRANCH   5   6
HETATM    6  C1  UNK     1      29.236  -8.126  38.290  1.00  0.00     0.164 C 
BRANCH   6   7
HETATM    7  C4  UNK     1      29.607  -6.683  38.475  1.00  0.00    -0.040 A 
HETATM    8  C10 UNK     1      28.653  -5.781  38.927  1.00  0.00     0.009 A 
HETATM    9  C15 UNK     1      28.999  -4.440  39.099  1.00  0.00     0.001 A 
HETATM   10  C16 UNK     1      30.296  -4.012  38.817  1.00  0.00     0.000 A 
HETATM   11  C14 UNK     1      31.248  -4.924  38.363  1.00  0.00     0.001 A 
HETATM   12  C9  UNK     1      30.903  -6.265  38.191  1.00  0.00     0.009 A 
ENDBRANCH   6   7
ENDBRANCH   5   6
BRANCH   5  13
HETATM   13  C2  UNK     1      30.226  -9.617  36.591  1.00  0.00     0.122 C 
HETATM   14  C7  UNK     1      31.119  -9.926  37.776  1.00  0.00     0.026 C 
ENDBRANCH   5  13
ENDBRANCH   1   3
BRANCH   1  15
HETATM   15  C6  UNK     1      30.433  -7.216  34.323  1.00  0.00    -0.021 A 
HETATM   16  C12 UNK     1      30.571  -5.864  34.565  1.00  0.00     0.012 A 
HETATM   17  C17 UNK     1      31.817  -5.266  34.369  1.00  0.00     0.001 A 
HETATM   18  C21 UNK     1      32.898  -6.032  33.936  1.00  0.00     0.000 A 
HETATM   19  C18 UNK     1      32.735  -7.396  33.697  1.00  0.00     0.001 A 
HETATM   20  C13 UNK     1      31.490  -7.995  33.893  1.00  0.00     0.012 A 
ENDBRANCH   1  15
BRANCH   2  21
HETATM   21  C11 UNK     1      28.734  -8.218  32.072  1.00  0.00    -0.035 A 
HETATM   22  C19 UNK     1      29.197  -9.355  31.426  1.00  0.00     0.011 A 
HETATM   23  C22 UNK     1      29.543  -9.283  30.076  1.00  0.00     0.001 A 
HETATM   24  C24 UNK     1      29.422  -8.076  29.389  1.00  0.00     0.000 A 
HETATM   25  C23 UNK     1      28.954  -6.940  30.050  1.00  0.00     0.001 A 
HETATM   26  C20 UNK     1      28.609  -7.011  31.400  1.00  0.00     0.011 A 
ENDBRANCH   2  21
TORSDOF 6
ENDMDL
MODEL 7
REMARK VINA RESULT:      -6.8     30.999     33.580
REMARK  6 active torsions:
REMARK  status: ('A' for Active; 'I' for Inactive)
REMARK    1  A    between atoms: C1_3  and  N1_2 
REMARK    2  A    between atoms: C2_4  and  N1_2 
REMARK       I    between atoms: C3_5  and  N1_2 
REMARK    3  A    between atoms: C1_3  and  C4_6 
REMARK    4  A    between atoms: C3_5  and  C5_7 
REMARK    5  A    between atoms: C5_7  and  C6_8 
REMARK    6  A    between atoms: C11_13  and  C8_10 
ROOT
HETATM    1  C5  UNK     1      31.922  -7.200  32.884  1.00  0.00     0.043 C 
HETATM    2  C8  UNK     1      32.814  -6.819  33.821  1.00  0.00     0.029 C 
ENDROOT
BRANCH   1   3
HETATM    3  C3  UNK     1      32.415  -7.995  31.715  1.00  0.00     0.255 C 
HETATM    4  O1  UNK     1      33.102  -7.426  30.865  1.00  0.00    -0.267 OA
HETATM    5  N1  UNK     1      32.030  -9.336  31.663  1.00  0.00    -0.344 N 
BRANCH   5   6
HETATM    6  C1  UNK     1      31.824 -10.038  30.404  1.00  0.00     0.164 C 
BRANCH   6   7
HETATM    7  C4  UNK     1      30.431  -9.851  29.877  1.00  0.00    -0.040 A 
HETATM    8  C10 UNK     1      29.501  -9.142  30.628  1.00  0.00     0.009 A 
HETATM    9  C15 UNK     1      28.207  -8.968  30.137  1.00  0.00     0.001 A 
HETATM   10  C16 UNK     1      27.852  -9.504  28.899  1.00  0.00     0.000 A 
HETATM   11  C14 UNK     1      28.790 -10.215  28.152  1.00  0.00     0.001 A 
HETATM   12  C9  UNK     1      30.085 -10.389  28.642  1.00  0.00     0.009 A 
ENDBRANCH   6   7
ENDBRANCH   5   6
BRANCH   5  13
HETATM   13  C2  UNK     1      31.805 -10.130  32.869  1.00  0.00     0.122 C 
HETATM   14  C7  UNK     1      33.106 -10.662  33.433  1.00  0.00     0.026 C 
ENDBRANCH   5  13
ENDBRANCH   1   3
BRANCH   1  15
HETATM   15  C6  UNK     1      30.506  -6.761  32.940  1.00  0.00    -0.021 A 
HETATM   16  C12 UNK     1      30.084  -5.755  32.095  1.00  0.00     0.012 A 
HETATM   17  C17 UNK     1      28.751  -5.342  32.148  1.00  0.00     0.001 A 
HETATM   18  C21 UNK     1      27.870  -5.946  33.044  1.00  0.00     0.000 A 
HETATM   19  C18 UNK     1      28.319  -6.961  33.888  1.00  0.00     0.001 A 
HETATM   20  C13 UNK     1      29.651  -7.373  33.836  1.00  0.00     0.012 A 
ENDBRANCH   1  15
BRANCH   2  21
HETATM   21  C11 UNK     1      32.543  -5.956  34.980  1.00  0.00    -0.035 A 
HETATM   22  C19 UNK     1      32.249  -6.535  36.206  1.00  0.00     0.011 A 
HETATM   23  C22 UNK     1      31.992  -5.717  37.306  1.00  0.00     0.001 A 
HETATM   24  C24 UNK     1      32.031  -4.330  37.167  1.00  0.00     0.000 A 
HETATM   25  C23 UNK     1      32.329  -3.760  35.930  1.00  0.00     0.001 A 
HETATM   26  C20 UNK     1      32.586  -4.579  34.829  1.00  0.00     0.011 A 
ENDBRANCH   2  21
TORSDOF 6
ENDMDL
MODEL 8
REMARK VINA RESULT:      -6.8     33.044     35.564
REMARK  6 active torsions:
REMARK  status: ('A' for Active; 'I' for Inactive)
REMARK    1  A    between atoms: C1_3  and  N1_2 
REMARK    2  A    between atoms: C2_4  and  N1_2 
REMARK       I    between atoms: C3_5  and  N1_2 
REMARK    3  A    between atoms: C1_3  and  C4_6 
REMARK    4  A    between atoms: C3_5  and  C5_7 
REMARK    5  A    between atoms: C5_7  and  C6_8 
REMARK    6  A    between atoms: C11_13  and  C8_10 
ROOT
HETATM    1  C5  UNK     1      31.152  -6.788  36.043  1.00  0.00     0.043 C 
HETATM    2  C8  UNK     1      30.262  -7.133  35.089  1.00  0.00     0.029 C 
ENDROOT
BRANCH   1   3
HETATM    3  C3  UNK     1      30.821  -7.097  37.470  1.00  0.00     0.255 C 
HETATM    4  O1  UNK     1      31.423  -8.016  38.028  1.00  0.00    -0.267 OA
HETATM    5  N1  UNK     1      29.820  -6.323  38.060  1.00  0.00    -0.344 N 
BRANCH   5   6
HETATM    6  C1  UNK     1      28.938  -6.850  39.094  1.00  0.00     0.164 C 
BRANCH   6   7
HETATM    7  C4  UNK     1      28.095  -7.985  38.588  1.00  0.00    -0.040 A 
HETATM    8  C10 UNK     1      27.989  -9.150  39.338  1.00  0.00     0.009 A 
HETATM    9  C15 UNK     1      27.205 -10.204  38.869  1.00  0.00     0.001 A 
HETATM   10  C16 UNK     1      26.533 -10.085  37.652  1.00  0.00     0.000 A 
HETATM   11  C14 UNK     1      26.644  -8.913  36.905  1.00  0.00     0.001 A 
HETATM   12  C9  UNK     1      27.428  -7.859  37.374  1.00  0.00     0.009 A 
ENDBRANCH   6   7
ENDBRANCH   5   6
BRANCH   5  13
HETATM   13  C2  UNK     1      29.584  -4.932  37.683  1.00  0.00     0.122 C 
HETATM   14  C7  UNK     1      29.630  -4.015  38.889  1.00  0.00     0.026 C 
ENDBRANCH   5  13
ENDBRANCH   1   3
BRANCH   1  15
HETATM   15  C6  UNK     1      32.382  -6.026  35.714  1.00  0.00    -0.021 A 
HETATM   16  C12 UNK     1      32.310  -4.652  35.611  1.00  0.00     0.012 A 
HETATM   17  C17 UNK     1      33.467  -3.935  35.302  1.00  0.00     0.001 A 
HETATM   18  C21 UNK     1      34.671  -4.608  35.104  1.00  0.00     0.000 A 
HETATM   19  C18 UNK     1      34.721  -5.997  35.212  1.00  0.00     0.001 A 
HETATM   20  C13 UNK     1      33.564  -6.714  35.521  1.00  0.00     0.012 A 
ENDBRANCH   1  15
BRANCH   2  21
HETATM   21  C11 UNK     1      30.362  -6.826  33.656  1.00  0.00    -0.035 A 
HETATM   22  C19 UNK     1      29.660  -5.746  33.139  1.00  0.00     0.011 A 
HETATM   23  C22 UNK     1      29.755  -5.455  31.778  1.00  0.00     0.001 A 
HETATM   24  C24 UNK     1      30.551  -6.246  30.950  1.00  0.00     0.000 A 
HETATM   25  C23 UNK     1      31.253  -7.327  31.482  1.00  0.00     0.001 A 
HETATM   26  C20 UNK     1      31.157  -7.620  32.843  1.00  0.00     0.011 A 
ENDBRANCH   2  21
TORSDOF 6
ENDMDL
MODEL 9
REMARK VINA RESULT:      -6.8     30.669     33.321
REMARK  6 active torsions:
REMARK  status: ('A' for Active; 'I' for Inactive)
REMARK    1  A    between atoms: C1_3  and  N1_2 
REMARK    2  A    between atoms: C2_4  and  N1_2 
REMARK       I    between atoms: C3_5  and  N1_2 
REMARK    3  A    between atoms: C1_3  and  C4_6 
REMARK    4  A    between atoms: C3_5  and  C5_7 
REMARK    5  A    between atoms: C5_7  and  C6_8 
REMARK    6  A    between atoms: C11_13  and  C8_10 
ROOT
HETATM    1  C5  UNK     1      30.958  -6.712  33.071  1.00  0.00     0.043 C 
HETATM    2  C8  UNK     1      31.311  -5.930  34.112  1.00  0.00     0.029 C 
ENDROOT
BRANCH   1   3
HETATM    3  C3  UNK     1      29.556  -6.617  32.554  1.00  0.00     0.255 C 
HETATM    4  O1  UNK     1      28.645  -7.091  33.234  1.00  0.00    -0.267 OA
HETATM    5  N1  UNK     1      29.390  -6.011  31.307  1.00  0.00    -0.344 N 
BRANCH   5   6
HETATM    6  C1  UNK     1      28.325  -6.397  30.390  1.00  0.00     0.164 C 
BRANCH   6   7
HETATM    7  C4  UNK     1      28.654  -7.660  29.648  1.00  0.00    -0.040 A 
HETATM    8  C10 UNK     1      29.911  -7.815  29.077  1.00  0.00     0.009 A 
HETATM    9  C15 UNK     1      30.216  -8.989  28.388  1.00  0.00     0.001 A 
HETATM   10  C16 UNK     1      29.261 -10.000  28.274  1.00  0.00     0.000 A 
HETATM   11  C14 UNK     1      28.001  -9.836  28.850  1.00  0.00     0.001 A 
HETATM   12  C9  UNK     1      27.696  -8.663  29.539  1.00  0.00     0.009 A 
ENDBRANCH   6   7
ENDBRANCH   5   6
BRANCH   5  13
HETATM   13  C2  UNK     1      30.272  -4.947  30.832  1.00  0.00     0.122 C 
HETATM   14  C7  UNK     1      29.890  -3.606  31.424  1.00  0.00     0.026 C 
ENDBRANCH   5  13
ENDBRANCH   1   3
BRANCH   1  15
HETATM   15  C6  UNK     1      31.890  -7.722  32.512  1.00  0.00    -0.021 A 
HETATM   16  C12 UNK     1      32.829  -7.324  31.583  1.00  0.00     0.012 A 
HETATM   17  C17 UNK     1      33.706  -8.274  31.058  1.00  0.00     0.001 A 
HETATM   18  C21 UNK     1      33.625  -9.602  31.474  1.00  0.00     0.000 A 
HETATM   19  C18 UNK     1      32.668  -9.982  32.414  1.00  0.00     0.001 A 
HETATM   20  C13 UNK     1      31.791  -9.032  32.939  1.00  0.00     0.012 A 
ENDBRANCH   1  15
BRANCH   2  21
HETATM   21  C11 UNK     1      32.599  -5.952  34.818  1.00  0.00    -0.035 A 
HETATM   22  C19 UNK     1      32.824  -6.910  35.797  1.00  0.00     0.011 A 
HETATM   23  C22 UNK     1      34.047  -6.931  36.467  1.00  0.00     0.001 A 
HETATM   24  C24 UNK     1      35.032  -5.995  36.151  1.00  0.00     0.000 A 
HETATM   25  C23 UNK     1      34.794  -5.039  35.164  1.00  0.00     0.001 A 
HETATM   26  C20 UNK     1      33.570  -5.017  34.494  1.00  0.00     0.011 A 
ENDBRANCH   2  21
TORSDOF 6
ENDMDL
MODEL 10
REMARK VINA RESULT:      -6.7     31.581     34.488
REMARK  6 active torsions:
REMARK  status: ('A' for Active; 'I' for Inactive)
REMARK    1  A    between atoms: C1_3  and  N1_2 
REMARK    2  A    between atoms: C2_4  and  N1_2 
REMARK       I    between atoms: C3_5  and  N1_2 
REMARK    3  A    between atoms: C1_3  and  C4_6 
REMARK    4  A    between atoms: C3_5  and  C5_7 
REMARK    5  A    between atoms: C5_7  and  C6_8 
REMARK    6  A    between atoms: C11_13  and  C8_10 
ROOT
HETATM    1  C5  UNK     1      29.262  -9.111  33.485  1.00  0.00     0.043 C 
HETATM    2  C8  UNK     1      29.242 -10.116  32.585  1.00  0.00     0.029 C 
ENDROOT
BRANCH   1   3
HETATM    3  C3  UNK     1      29.034  -9.444  34.927  1.00  0.00     0.255 C 
HETATM    4  O1  UNK     1      27.880  -9.651  35.308  1.00  0.00    -0.267 OA
HETATM    5  N1  UNK     1      30.163  -9.471  35.749  1.00  0.00    -0.344 N 
BRANCH   5   6
HETATM    6  C1  UNK     1      30.106  -9.115  37.161  1.00  0.00     0.164 C 
BRANCH   6   7
HETATM    7  C4  UNK     1      29.962  -7.634  37.362  1.00  0.00    -0.040 A 
HETATM    8  C10 UNK     1      30.546  -6.758  36.456  1.00  0.00     0.009 A 
HETATM    9  C15 UNK     1      30.412  -5.382  36.643  1.00  0.00     0.001 A 
HETATM   10  C16 UNK     1      29.694  -4.893  37.734  1.00  0.00     0.000 A 
HETATM   11  C14 UNK     1      29.111  -5.779  38.639  1.00  0.00     0.001 A 
HETATM   12  C9  UNK     1      29.245  -7.155  38.452  1.00  0.00     0.009 A 
ENDBRANCH   6   7
ENDBRANCH   5   6
BRANCH   5  13
HETATM   13  C2  UNK     1      31.482  -9.857  35.251  1.00  0.00     0.122 C 
HETATM   14  C7  UNK     1      31.628 -11.363  35.177  1.00  0.00     0.026 C 
ENDBRANCH   5  13
ENDBRANCH   1   3
BRANCH   1  15
HETATM   15  C6  UNK     1      29.399  -7.696  33.062  1.00  0.00    -0.021 A 
HETATM   16  C12 UNK     1      28.265  -6.915  32.963  1.00  0.00     0.012 A 
HETATM   17  C17 UNK     1      28.393  -5.583  32.566  1.00  0.00     0.001 A 
HETATM   18  C21 UNK     1      29.653  -5.061  32.277  1.00  0.00     0.000 A 
HETATM   19  C18 UNK     1      30.785  -5.869  32.383  1.00  0.00     0.001 A 
HETATM   20  C13 UNK     1      30.657  -7.200  32.780  1.00  0.00     0.012 A 
ENDBRANCH   1  15
BRANCH   2  21
HETATM   21  C11 UNK     1      29.345  -9.977  31.126  1.00  0.00    -0.035 A 
HETATM   22  C19 UNK     1      30.475 -10.448  30.474  1.00  0.00     0.011 A 
HETATM   23  C22 UNK     1      30.573 -10.317  29.089  1.00  0.00     0.001 A 
HETATM   24  C24 UNK     1      29.539  -9.716  28.371  1.00  0.00     0.000 A 
HETATM   25  C23 UNK     1      28.407  -9.247  29.038  1.00  0.00     0.001 A 
HETATM   26  C20 UNK     1      28.310  -9.378  30.423  1.00  0.00     0.011 A 
ENDBRANCH   2  21
TORSDOF 6
ENDMDL
