MODEL 1
REMARK VINA RESULT:      -7.1      0.000      0.000
REMARK  2 active torsions:
REMARK  status: ('A' for Active; 'I' for Inactive)
REMARK    1  A    between atoms: C10_15  and  O3_4 
REMARK    2  A    between atoms: C10_15  and  C4_9 
ROOT
HETATM    1  F1  UNK     1       7.652   5.874   7.918  1.00  0.00    -0.206 F 
HETATM    2  O1  UNK     1      12.930   6.631   6.570  1.00  0.00    -0.321 OA
HETATM    3  O2  UNK     1      12.078   5.428  10.377  1.00  0.00    -0.286 OA
HETATM    4  C1  UNK     1      11.271   6.017   8.238  1.00  0.00     0.052 A 
HETATM    5  C2  UNK     1      11.627   6.430   6.952  1.00  0.00     0.089 A 
HETATM    6  C3  UNK     1      12.332   5.787   9.235  1.00  0.00     0.203 A 
HETATM    7  C4  UNK     1      13.718   6.015   8.772  1.00  0.00     0.110 A 
HETATM    8  C5  UNK     1       9.928   5.828   8.570  1.00  0.00     0.060 A 
HETATM    9  C6  UNK     1      10.640   6.654   5.993  1.00  0.00     0.041 A 
HETATM   10  C7  UNK     1      13.910   6.411   7.509  1.00  0.00     0.165 A 
HETATM   11  C8  UNK     1       8.942   6.055   7.607  1.00  0.00     0.117 A 
HETATM   12  C9  UNK     1       9.298   6.467   6.322  1.00  0.00     0.045 A 
ENDROOT
BRANCH   7  13
HETATM   13  C10 UNK     1      14.896   5.834   9.621  1.00  0.00     0.182 C 
HETATM   14  O4  UNK     1      15.865   5.158   9.323  1.00  0.00    -0.646 OA
BRANCH  13  15
HETATM   15  O3  UNK     1      14.739   6.526  10.769  1.00  0.00    -0.772 OA
HETATM   16  H5  UNK     1      13.798   6.585  11.039  1.00  0.00     0.167 HD
ENDBRANCH  13  15
ENDBRANCH   7  13
TORSDOF 2
ENDMDL
MODEL 2
REMARK VINA RESULT:      -7.0     22.786     24.998
REMARK  2 active torsions:
REMARK  status: ('A' for Active; 'I' for Inactive)
REMARK    1  A    between atoms: C10_15  and  O3_4 
REMARK    2  A    between atoms: C10_15  and  C4_9 
ROOT
HETATM    1  F1  UNK     1      20.383  -3.042  34.101  1.00  0.00    -0.206 F 
HETATM    2  O1  UNK     1      20.263  -1.088  28.961  1.00  0.00    -0.321 OA
HETATM    3  O2  UNK     1      18.632   1.203  31.921  1.00  0.00    -0.286 OA
HETATM    4  C1  UNK     1      19.730  -0.798  31.315  1.00  0.00     0.052 A 
HETATM    5  C2  UNK     1      20.270  -1.535  30.259  1.00  0.00     0.089 A 
HETATM    6  C3  UNK     1      19.123   0.516  31.035  1.00  0.00     0.203 A 
HETATM    7  C4  UNK     1      19.144   0.952  29.622  1.00  0.00     0.110 A 
HETATM    8  C5  UNK     1      19.765  -1.304  32.617  1.00  0.00     0.060 A 
HETATM    9  C6  UNK     1      20.849  -2.781  30.501  1.00  0.00     0.041 A 
HETATM   10  C7  UNK     1      19.697   0.140  28.713  1.00  0.00     0.165 A 
HETATM   11  C8  UNK     1      20.344  -2.552  32.855  1.00  0.00     0.117 A 
HETATM   12  C9  UNK     1      20.884  -3.288  31.800  1.00  0.00     0.045 A 
ENDROOT
BRANCH   7  13
HETATM   13  C10 UNK     1      18.591   2.224  29.159  1.00  0.00     0.182 C 
HETATM   14  O4  UNK     1      17.859   2.350  28.192  1.00  0.00    -0.646 OA
BRANCH  13  15
HETATM   15  O3  UNK     1      19.015   3.223  29.961  1.00  0.00    -0.772 OA
HETATM   16  H5  UNK     1      19.619   3.840  29.494  1.00  0.00     0.167 HD
ENDBRANCH  13  15
ENDBRANCH   7  13
TORSDOF 2
ENDMDL
MODEL 3
REMARK VINA RESULT:      -7.0     23.726     25.855
REMARK  2 active torsions:
REMARK  status: ('A' for Active; 'I' for Inactive)
REMARK    1  A    between atoms: C10_15  and  O3_4 
REMARK    2  A    between atoms: C10_15  and  C4_9 
ROOT
HETATM    1  F1  UNK     1      22.320   5.629  31.306  1.00  0.00    -0.206 F 
HETATM    2  O1  UNK     1      16.989   6.960  31.569  1.00  0.00    -0.321 OA
HETATM    3  O2  UNK     1      19.309   7.683  34.850  1.00  0.00    -0.286 OA
HETATM    4  C1  UNK     1      19.171   6.868  32.638  1.00  0.00     0.052 A 
HETATM    5  C2  UNK     1      18.325   6.644  31.550  1.00  0.00     0.089 A 
HETATM    6  C3  UNK     1      18.616   7.467  33.865  1.00  0.00     0.203 A 
HETATM    7  C4  UNK     1      17.173   7.791  33.833  1.00  0.00     0.110 A 
HETATM    8  C5  UNK     1      20.523   6.526  32.561  1.00  0.00     0.060 A 
HETATM    9  C6  UNK     1      18.829   6.077  30.379  1.00  0.00     0.041 A 
HETATM   10  C7  UNK     1      16.484   7.521  32.718  1.00  0.00     0.165 A 
HETATM   11  C8  UNK     1      21.024   5.958  31.388  1.00  0.00     0.117 A 
HETATM   12  C9  UNK     1      20.179   5.734  30.300  1.00  0.00     0.045 A 
ENDROOT
BRANCH   7  13
HETATM   13  C10 UNK     1      16.453   8.392  34.955  1.00  0.00     0.182 C 
HETATM   14  O4  UNK     1      15.742   9.379  34.872  1.00  0.00    -0.646 OA
BRANCH  13  15
HETATM   15  O3  UNK     1      16.697   7.689  36.081  1.00  0.00    -0.772 OA
HETATM   16  H5  UNK     1      16.952   6.761  35.888  1.00  0.00     0.167 HD
ENDBRANCH  13  15
ENDBRANCH   7  13
TORSDOF 2
ENDMDL
MODEL 4
REMARK VINA RESULT:      -6.9     23.731     25.566
REMARK  2 active torsions:
REMARK  status: ('A' for Active; 'I' for Inactive)
REMARK    1  A    between atoms: C10_15  and  O3_4 
REMARK    2  A    between atoms: C10_15  and  C4_9 
ROOT
HETATM    1  F1  UNK     1      20.110   5.813  29.743  1.00  0.00    -0.206 F 
HETATM    2  O1  UNK     1      17.998   7.260  34.611  1.00  0.00    -0.321 OA
HETATM    3  O2  UNK     1      15.579   7.484  31.330  1.00  0.00    -0.286 OA
HETATM    4  C1  UNK     1      17.705   6.963  32.216  1.00  0.00     0.052 A 
HETATM    5  C2  UNK     1      18.482   6.909  33.375  1.00  0.00     0.089 A 
HETATM    6  C3  UNK     1      16.304   7.414  32.313  1.00  0.00     0.203 A 
HETATM    7  C4  UNK     1      15.832   7.778  33.667  1.00  0.00     0.110 A 
HETATM    8  C5  UNK     1      18.251   6.593  30.984  1.00  0.00     0.060 A 
HETATM    9  C6  UNK     1      19.809   6.485  33.307  1.00  0.00     0.041 A 
HETATM   10  C7  UNK     1      16.690   7.677  34.688  1.00  0.00     0.165 A 
HETATM   11  C8  UNK     1      19.580   6.170  30.920  1.00  0.00     0.117 A 
HETATM   12  C9  UNK     1      20.356   6.117  32.078  1.00  0.00     0.045 A 
ENDROOT
BRANCH   7  13
HETATM   13  C10 UNK     1      14.476   8.243  33.953  1.00  0.00     0.182 C 
HETATM   14  O4  UNK     1      14.209   9.296  34.507  1.00  0.00    -0.646 OA
BRANCH  13  15
HETATM   15  O3  UNK     1      13.580   7.335  33.513  1.00  0.00    -0.772 OA
HETATM   16  H5  UNK     1      12.822   7.756  33.055  1.00  0.00     0.167 HD
ENDBRANCH  13  15
ENDBRANCH   7  13
TORSDOF 2
ENDMDL
MODEL 5
REMARK VINA RESULT:      -6.8     22.464     24.767
REMARK  2 active torsions:
REMARK  status: ('A' for Active; 'I' for Inactive)
REMARK    1  A    between atoms: C10_15  and  O3_4 
REMARK    2  A    between atoms: C10_15  and  C4_9 
ROOT
HETATM    1  F1  UNK     1      21.444  -4.042  30.550  1.00  0.00    -0.206 F 
HETATM    2  O1  UNK     1      18.978   0.565  32.269  1.00  0.00    -0.321 OA
HETATM    3  O2  UNK     1      19.811   0.207  28.288  1.00  0.00    -0.286 OA
HETATM    4  C1  UNK     1      19.903  -0.750  30.444  1.00  0.00     0.052 A 
HETATM    5  C2  UNK     1      19.593  -0.567  31.794  1.00  0.00     0.089 A 
HETATM    6  C3  UNK     1      19.561   0.312  29.481  1.00  0.00     0.203 A 
HETATM    7  C4  UNK     1      18.897   1.509  30.043  1.00  0.00     0.110 A 
HETATM    8  C5  UNK     1      20.530  -1.923  30.018  1.00  0.00     0.060 A 
HETATM    9  C6  UNK     1      19.909  -1.559  32.723  1.00  0.00     0.041 A 
HETATM   10  C7  UNK     1      18.662   1.547  31.359  1.00  0.00     0.165 A 
HETATM   11  C8  UNK     1      20.845  -2.913  30.951  1.00  0.00     0.117 A 
HETATM   12  C9  UNK     1      20.535  -2.731  32.300  1.00  0.00     0.045 A 
ENDROOT
BRANCH   7  13
HETATM   13  C10 UNK     1      18.484   2.658  29.239  1.00  0.00     0.182 C 
HETATM   14  O4  UNK     1      18.686   3.822  29.541  1.00  0.00    -0.646 OA
BRANCH  13  15
HETATM   15  O3  UNK     1      17.851   2.231  28.126  1.00  0.00    -0.772 OA
HETATM   16  H5  UNK     1      17.363   2.955  27.678  1.00  0.00     0.167 HD
ENDBRANCH  13  15
ENDBRANCH   7  13
TORSDOF 2
ENDMDL
MODEL 6
REMARK VINA RESULT:      -6.7     22.467     24.516
REMARK  2 active torsions:
REMARK  status: ('A' for Active; 'I' for Inactive)
REMARK    1  A    between atoms: C10_15  and  O3_4 
REMARK    2  A    between atoms: C10_15  and  C4_9 
ROOT
HETATM    1  F1  UNK     1      18.771   8.496  33.022  1.00  0.00    -0.206 F 
HETATM    2  O1  UNK     1      18.060   3.050  32.720  1.00  0.00    -0.321 OA
HETATM    3  O2  UNK     1      19.033   5.050  29.295  1.00  0.00    -0.286 OA
HETATM    4  C1  UNK     1      18.582   5.150  31.611  1.00  0.00     0.052 A 
HETATM    5  C2  UNK     1      18.247   4.410  32.746  1.00  0.00     0.089 A 
HETATM    6  C3  UNK     1      18.743   4.452  30.322  1.00  0.00     0.203 A 
HETATM    7  C4  UNK     1      18.533   2.988  30.348  1.00  0.00     0.110 A 
HETATM    8  C5  UNK     1      18.760   6.533  31.698  1.00  0.00     0.060 A 
HETATM    9  C6  UNK     1      18.089   5.051  33.975  1.00  0.00     0.041 A 
HETATM   10  C7  UNK     1      18.215   2.411  31.512  1.00  0.00     0.165 A 
HETATM   11  C8  UNK     1      18.600   7.171  32.930  1.00  0.00     0.117 A 
HETATM   12  C9  UNK     1      18.265   6.432  34.065  1.00  0.00     0.045 A 
ENDROOT
BRANCH   7  13
HETATM   13  C10 UNK     1      18.653   2.132  29.168  1.00  0.00     0.182 C 
HETATM   14  O4  UNK     1      17.914   2.181  28.200  1.00  0.00    -0.646 OA
BRANCH  13  15
HETATM   15  O3  UNK     1      19.698   1.291  29.320  1.00  0.00    -0.772 OA
HETATM   16  H5  UNK     1      20.401   1.451  28.655  1.00  0.00     0.167 HD
ENDBRANCH  13  15
ENDBRANCH   7  13
TORSDOF 2
ENDMDL
MODEL 7
REMARK VINA RESULT:      -6.7     22.900     24.404
REMARK  2 active torsions:
REMARK  status: ('A' for Active; 'I' for Inactive)
REMARK    1  A    between atoms: C10_15  and  O3_4 
REMARK    2  A    between atoms: C10_15  and  C4_9 
ROOT
HETATM    1  F1  UNK     1      17.571   6.720  34.881  1.00  0.00    -0.206 F 
HETATM    2  O1  UNK     1      18.936   5.126  29.797  1.00  0.00    -0.321 OA
HETATM    3  O2  UNK     1      17.902   2.243  32.497  1.00  0.00    -0.286 OA
HETATM    4  C1  UNK     1      18.223   4.538  32.046  1.00  0.00     0.052 A 
HETATM    5  C2  UNK     1      18.588   5.476  31.078  1.00  0.00     0.089 A 
HETATM    6  C3  UNK     1      18.210   3.108  31.689  1.00  0.00     0.203 A 
HETATM    7  C4  UNK     1      18.590   2.784  30.296  1.00  0.00     0.110 A 
HETATM    8  C5  UNK     1      17.879   4.954  33.335  1.00  0.00     0.060 A 
HETATM    9  C6  UNK     1      18.608   6.835  31.395  1.00  0.00     0.041 A 
HETATM   10  C7  UNK     1      18.916   3.789  29.476  1.00  0.00     0.165 A 
HETATM   11  C8  UNK     1      17.902   6.314  33.648  1.00  0.00     0.117 A 
HETATM   12  C9  UNK     1      18.265   7.252  32.681  1.00  0.00     0.045 A 
ENDROOT
BRANCH   7  13
HETATM   13  C10 UNK     1      18.630   1.423  29.764  1.00  0.00     0.182 C 
HETATM   14  O4  UNK     1      19.573   0.660  29.885  1.00  0.00    -0.646 OA
BRANCH  13  15
HETATM   15  O3  UNK     1      17.473   1.149  29.126  1.00  0.00    -0.772 OA
HETATM   16  H5  UNK     1      16.744   1.741  29.414  1.00  0.00     0.167 HD
ENDBRANCH  13  15
ENDBRANCH   7  13
TORSDOF 2
ENDMDL
MODEL 8
REMARK VINA RESULT:      -6.7      1.136      2.336
REMARK  2 active torsions:
REMARK  status: ('A' for Active; 'I' for Inactive)
REMARK    1  A    between atoms: C10_15  and  O3_4 
REMARK    2  A    between atoms: C10_15  and  C4_9 
ROOT
HETATM    1  F1  UNK     1       8.910   6.842   4.913  1.00  0.00    -0.206 F 
HETATM    2  O1  UNK     1      11.343   5.535   9.669  1.00  0.00    -0.321 OA
HETATM    3  O2  UNK     1      13.707   6.812   6.594  1.00  0.00    -0.286 OA
HETATM    4  C1  UNK     1      11.534   6.317   7.375  1.00  0.00     0.052 A 
HETATM    5  C2  UNK     1      10.780   5.872   8.463  1.00  0.00     0.089 A 
HETATM    6  C3  UNK     1      12.997   6.432   7.515  1.00  0.00     0.203 A 
HETATM    7  C4  UNK     1      13.553   6.059   8.835  1.00  0.00     0.110 A 
HETATM    8  C5  UNK     1      10.906   6.646   6.171  1.00  0.00     0.060 A 
HETATM    9  C6  UNK     1       9.395   5.756   8.352  1.00  0.00     0.041 A 
HETATM   10  C7  UNK     1      12.708   5.649   9.788  1.00  0.00     0.165 A 
HETATM   11  C8  UNK     1       9.519   6.527   6.063  1.00  0.00     0.117 A 
HETATM   12  C9  UNK     1       8.766   6.083   7.151  1.00  0.00     0.045 A 
ENDROOT
BRANCH   7  13
HETATM   13  C10 UNK     1      14.978   6.113   9.158  1.00  0.00     0.182 C 
HETATM   14  O4  UNK     1      15.707   5.138   9.236  1.00  0.00    -0.646 OA
BRANCH  13  15
HETATM   15  O3  UNK     1      15.353   7.395   9.351  1.00  0.00    -0.772 OA
HETATM   16  H5  UNK     1      15.217   7.944   8.549  1.00  0.00     0.167 HD
ENDBRANCH  13  15
ENDBRANCH   7  13
TORSDOF 2
ENDMDL
MODEL 9
REMARK VINA RESULT:      -6.6     23.307     24.787
REMARK  2 active torsions:
REMARK  status: ('A' for Active; 'I' for Inactive)
REMARK    1  A    between atoms: C10_15  and  O3_4 
REMARK    2  A    between atoms: C10_15  and  C4_9 
ROOT
HETATM    1  F1  UNK     1      20.712  -3.229  31.003  1.00  0.00    -0.206 F 
HETATM    2  O1  UNK     1      19.150   1.742  29.245  1.00  0.00    -0.321 OA
HETATM    3  O2  UNK     1      18.764   0.908  33.223  1.00  0.00    -0.286 OA
HETATM    4  C1  UNK     1      19.421   0.169  31.078  1.00  0.00     0.052 A 
HETATM    5  C2  UNK     1      19.526   0.515  29.729  1.00  0.00     0.089 A 
HETATM    6  C3  UNK     1      18.882   1.157  32.031  1.00  0.00     0.203 A 
HETATM    7  C4  UNK     1      18.494   2.465  31.458  1.00  0.00     0.110 A 
HETATM    8  C5  UNK     1      19.820  -1.097  31.515  1.00  0.00     0.060 A 
HETATM    9  C6  UNK     1      20.033  -0.405  28.811  1.00  0.00     0.041 A 
HETATM   10  C7  UNK     1      18.651   2.656  30.143  1.00  0.00     0.165 A 
HETATM   11  C8  UNK     1      20.326  -2.015  30.592  1.00  0.00     0.117 A 
HETATM   12  C9  UNK     1      20.432  -1.670  29.244  1.00  0.00     0.045 A 
ENDROOT
BRANCH   7  13
HETATM   13  C10 UNK     1      17.944   3.564  32.250  1.00  0.00     0.182 C 
HETATM   14  O4  UNK     1      17.507   4.602  31.783  1.00  0.00    -0.646 OA
BRANCH  13  15
HETATM   15  O3  UNK     1      17.998   3.251  33.562  1.00  0.00    -0.772 OA
HETATM   16  H5  UNK     1      17.789   4.021  34.134  1.00  0.00     0.167 HD
ENDBRANCH  13  15
ENDBRANCH   7  13
TORSDOF 2
ENDMDL
MODEL 10
REMARK VINA RESULT:      -6.6     24.828     26.921
REMARK  2 active torsions:
REMARK  status: ('A' for Active; 'I' for Inactive)
REMARK    1  A    between atoms: C10_15  and  O3_4 
REMARK    2  A    between atoms: C10_15  and  C4_9 
ROOT
HETATM    1  F1  UNK     1      21.028  -0.800  28.372  1.00  0.00    -0.206 F 
HETATM    2  O1  UNK     1      18.776  -0.192  33.354  1.00  0.00    -0.321 OA
HETATM    3  O2  UNK     1      21.278  -3.363  32.755  1.00  0.00    -0.286 OA
HETATM    4  C1  UNK     1      20.226  -1.447  31.860  1.00  0.00     0.052 A 
HETATM    5  C2  UNK     1      19.361  -0.384  32.127  1.00  0.00     0.089 A 
HETATM    6  C3  UNK     1      20.530  -2.411  32.933  1.00  0.00     0.203 A 
HETATM    7  C4  UNK     1      19.877  -2.157  34.236  1.00  0.00     0.110 A 
HETATM    8  C5  UNK     1      20.793  -1.593  30.591  1.00  0.00     0.060 A 
HETATM    9  C6  UNK     1      19.060   0.539  31.125  1.00  0.00     0.041 A 
HETATM   10  C7  UNK     1      19.069  -1.096  34.347  1.00  0.00     0.165 A 
HETATM   11  C8  UNK     1      20.488  -0.668  29.591  1.00  0.00     0.117 A 
HETATM   12  C9  UNK     1      19.623   0.395  29.857  1.00  0.00     0.045 A 
ENDROOT
BRANCH   7  13
HETATM   13  C10 UNK     1      20.062  -3.004  35.414  1.00  0.00     0.182 C 
HETATM   14  O4  UNK     1      20.222  -2.586  36.548  1.00  0.00    -0.646 OA
BRANCH  13  15
HETATM   15  O3  UNK     1      20.029  -4.303  35.050  1.00  0.00    -0.772 OA
HETATM   16  H5  UNK     1      20.814  -4.558  34.519  1.00  0.00     0.167 HD
ENDBRANCH  13  15
ENDBRANCH   7  13
TORSDOF 2
ENDMDL
