MODEL 1
REMARK VINA RESULT:      -8.6      0.000      0.000
REMARK  4 active torsions:
REMARK  status: ('A' for Active; 'I' for Inactive)
REMARK    1  A    between atoms: C7_12  and  O2_2 
REMARK    2  A    between atoms: C9_14  and  O4_4 
REMARK    3  A    between atoms: C13_18  and  O5_5 
REMARK    4  A    between atoms: C3_8  and  C4_9 
ROOT
HETATM    1  O1  UNK     1      19.102  -0.915  17.639  1.00  0.00    -0.306 OA
HETATM    2  O3  UNK     1      19.319   2.439  15.336  1.00  0.00    -0.287 OA
HETATM    3  C1  UNK     1      19.191   1.509  17.505  1.00  0.00     0.051 A 
HETATM    4  C2  UNK     1      19.119   0.322  18.232  1.00  0.00     0.126 A 
HETATM    5  C3  UNK     1      19.150  -0.984  16.255  1.00  0.00     0.090 A 
HETATM    6  C5  UNK     1      19.252   1.439  16.036  1.00  0.00     0.187 A 
HETATM    7  C6  UNK     1      19.227   0.084  15.447  1.00  0.00     0.093 A 
HETATM    8  C7  UNK     1      19.062   0.361  19.626  1.00  0.00     0.134 A 
HETATM    9  C8  UNK     1      19.206   2.742  18.162  1.00  0.00     0.021 A 
HETATM   10  C9  UNK     1      19.077   1.590  20.286  1.00  0.00     0.101 A 
HETATM   11  C10 UNK     1      19.148   2.778  19.555  1.00  0.00     0.040 A 
ENDROOT
BRANCH   5  12
HETATM   12  C4  UNK     1      19.132  -2.361  15.723  1.00  0.00     0.001 A 
HETATM   13  C11 UNK     1      20.326  -3.071  15.569  1.00  0.00     0.050 A 
HETATM   14  C13 UNK     1      20.308  -4.371  15.065  1.00  0.00     0.066 A 
HETATM   15  C15 UNK     1      19.097  -4.967  14.715  1.00  0.00     0.036 A 
HETATM   16  C14 UNK     1      17.903  -4.262  14.866  1.00  0.00     0.004 A 
HETATM   17  C12 UNK     1      17.921  -2.962  15.370  1.00  0.00     0.014 A 
BRANCH  14  18
HETATM   18  O5  UNK     1      21.473  -5.059  14.914  1.00  0.00    -0.361 OA
HETATM   19  H10 UNK     1      21.768  -5.377  15.786  1.00  0.00     0.217 HD
ENDBRANCH  14  18
ENDBRANCH   5  12
BRANCH   8  20
HETATM   20  O2  UNK     1      18.991  -0.794  20.345  1.00  0.00    -0.356 OA
HETATM   21  H8  UNK     1      19.868  -1.216  20.337  1.00  0.00     0.218 HD
ENDBRANCH   8  20
BRANCH  10  22
HETATM   22  O4  UNK     1      19.021   1.646  21.646  1.00  0.00    -0.358 OA
HETATM   23  H9  UNK     1      19.411   2.485  21.945  1.00  0.00     0.217 HD
ENDBRANCH  10  22
TORSDOF 4
ENDMDL
MODEL 2
REMARK VINA RESULT:      -8.6     13.707     17.019
REMARK  4 active torsions:
REMARK  status: ('A' for Active; 'I' for Inactive)
REMARK    1  A    between atoms: C7_12  and  O2_2 
REMARK    2  A    between atoms: C9_14  and  O4_4 
REMARK    3  A    between atoms: C13_18  and  O5_5 
REMARK    4  A    between atoms: C3_8  and  C4_9 
ROOT
HETATM    1  O1  UNK     1      18.852  -0.627  33.712  1.00  0.00    -0.306 OA
HETATM    2  O3  UNK     1      20.599  -3.755  35.652  1.00  0.00    -0.287 OA
HETATM    3  C1  UNK     1      19.181  -1.869  35.774  1.00  0.00     0.051 A 
HETATM    4  C2  UNK     1      18.616  -0.821  35.049  1.00  0.00     0.126 A 
HETATM    5  C3  UNK     1      19.699  -1.508  33.057  1.00  0.00     0.090 A 
HETATM    6  C5  UNK     1      20.071  -2.812  35.080  1.00  0.00     0.187 A 
HETATM    7  C6  UNK     1      20.297  -2.558  33.642  1.00  0.00     0.093 A 
HETATM    8  C7  UNK     1      17.766   0.087  35.683  1.00  0.00     0.134 A 
HETATM    9  C8  UNK     1      18.903  -2.018  37.134  1.00  0.00     0.021 A 
HETATM   10  C9  UNK     1      17.486  -0.059  37.042  1.00  0.00     0.101 A 
HETATM   11  C10 UNK     1      18.054  -1.109  37.766  1.00  0.00     0.040 A 
ENDROOT
BRANCH   5  12
HETATM   12  C4  UNK     1      19.880  -1.212  31.622  1.00  0.00     0.001 A 
HETATM   13  C11 UNK     1      19.605   0.066  31.128  1.00  0.00     0.050 A 
HETATM   14  C13 UNK     1      19.776   0.346  29.773  1.00  0.00     0.066 A 
HETATM   15  C15 UNK     1      20.223  -0.651  28.906  1.00  0.00     0.036 A 
HETATM   16  C14 UNK     1      20.498  -1.929  29.394  1.00  0.00     0.004 A 
HETATM   17  C12 UNK     1      20.327  -2.208  30.750  1.00  0.00     0.014 A 
BRANCH  14  18
HETATM   18  O5  UNK     1      19.505   1.591  29.294  1.00  0.00    -0.361 OA
HETATM   19  H10 UNK     1      19.069   1.508  28.427  1.00  0.00     0.217 HD
ENDBRANCH  14  18
ENDBRANCH   5  12
BRANCH   8  20
HETATM   20  O2  UNK     1      17.209   1.114  34.982  1.00  0.00    -0.356 OA
HETATM   21  H8  UNK     1      17.011   0.802  34.082  1.00  0.00     0.218 HD
ENDBRANCH   8  20
BRANCH  10  22
HETATM   22  O4  UNK     1      16.660   0.819  37.676  1.00  0.00    -0.358 OA
HETATM   23  H9  UNK     1      17.129   1.205  38.435  1.00  0.00     0.217 HD
ENDBRANCH  10  22
TORSDOF 4
ENDMDL
MODEL 3
REMARK VINA RESULT:      -8.5     13.459     16.665
REMARK  4 active torsions:
REMARK  status: ('A' for Active; 'I' for Inactive)
REMARK    1  A    between atoms: C7_12  and  O2_2 
REMARK    2  A    between atoms: C9_14  and  O4_4 
REMARK    3  A    between atoms: C13_18  and  O5_5 
REMARK    4  A    between atoms: C3_8  and  C4_9 
ROOT
HETATM    1  O1  UNK     1      18.887  -0.552  33.723  1.00  0.00    -0.306 OA
HETATM    2  O3  UNK     1      17.872   3.322  34.476  1.00  0.00    -0.287 OA
HETATM    3  C1  UNK     1      18.124   1.124  35.308  1.00  0.00     0.051 A 
HETATM    4  C2  UNK     1      18.485  -0.183  34.981  1.00  0.00     0.126 A 
HETATM    5  C3  UNK     1      18.924   0.416  32.731  1.00  0.00     0.090 A 
HETATM    6  C5  UNK     1      18.173   2.156  34.260  1.00  0.00     0.187 A 
HETATM    7  C6  UNK     1      18.608   1.706  32.922  1.00  0.00     0.093 A 
HETATM    8  C7  UNK     1      18.449  -1.180  35.957  1.00  0.00     0.134 A 
HETATM    9  C8  UNK     1      17.724   1.443  36.608  1.00  0.00     0.021 A 
HETATM   10  C9  UNK     1      18.050  -0.865  37.256  1.00  0.00     0.101 A 
HETATM   11  C10 UNK     1      17.688   0.444  37.580  1.00  0.00     0.040 A 
ENDROOT
BRANCH   5  12
HETATM   12  C4  UNK     1      19.374  -0.087  31.418  1.00  0.00     0.001 A 
HETATM   13  C11 UNK     1      19.910  -1.373  31.305  1.00  0.00     0.050 A 
HETATM   14  C13 UNK     1      20.335  -1.848  30.064  1.00  0.00     0.066 A 
HETATM   15  C15 UNK     1      20.227  -1.040  28.933  1.00  0.00     0.036 A 
HETATM   16  C14 UNK     1      19.694   0.245  29.042  1.00  0.00     0.004 A 
HETATM   17  C12 UNK     1      19.268   0.719  30.283  1.00  0.00     0.014 A 
BRANCH  14  18
HETATM   18  O5  UNK     1      20.858  -3.101  29.957  1.00  0.00    -0.361 OA
HETATM   19  H10 UNK     1      21.816  -3.058  30.127  1.00  0.00     0.217 HD
ENDBRANCH  14  18
ENDBRANCH   5  12
BRANCH   8  20
HETATM   20  O2  UNK     1      18.800  -2.460  35.646  1.00  0.00    -0.356 OA
HETATM   21  H8  UNK     1      17.988  -2.977  35.508  1.00  0.00     0.218 HD
ENDBRANCH   8  20
BRANCH  10  22
HETATM   22  O4  UNK     1      18.009  -1.827  38.220  1.00  0.00    -0.358 OA
HETATM   23  H9  UNK     1      17.236  -2.396  38.066  1.00  0.00     0.217 HD
ENDBRANCH  10  22
TORSDOF 4
ENDMDL
MODEL 4
REMARK VINA RESULT:      -8.5     13.191     17.273
REMARK  4 active torsions:
REMARK  status: ('A' for Active; 'I' for Inactive)
REMARK    1  A    between atoms: C7_12  and  O2_2 
REMARK    2  A    between atoms: C9_14  and  O4_4 
REMARK    3  A    between atoms: C13_18  and  O5_5 
REMARK    4  A    between atoms: C3_8  and  C4_9 
ROOT
HETATM    1  O1  UNK     1      18.543  -0.083  32.729  1.00  0.00    -0.306 OA
HETATM    2  O3  UNK     1      20.946  -3.322  33.307  1.00  0.00    -0.287 OA
HETATM    3  C1  UNK     1      20.062  -1.734  31.797  1.00  0.00     0.051 A 
HETATM    4  C2  UNK     1      19.224  -0.627  31.670  1.00  0.00     0.126 A 
HETATM    5  C3  UNK     1      18.688  -0.667  33.978  1.00  0.00     0.090 A 
HETATM    6  C5  UNK     1      20.226  -2.350  33.123  1.00  0.00     0.187 A 
HETATM    7  C6  UNK     1      19.468  -1.730  34.229  1.00  0.00     0.093 A 
HETATM    8  C7  UNK     1      19.053  -0.022  30.424  1.00  0.00     0.134 A 
HETATM    9  C8  UNK     1      20.733  -2.245  30.683  1.00  0.00     0.021 A 
HETATM   10  C9  UNK     1      19.721  -0.530  29.309  1.00  0.00     0.101 A 
HETATM   11  C10 UNK     1      20.559  -1.639  29.439  1.00  0.00     0.040 A 
ENDROOT
BRANCH   5  12
HETATM   12  C4  UNK     1      17.916  -0.001  35.045  1.00  0.00     0.001 A 
HETATM   13  C11 UNK     1      18.570   0.786  35.998  1.00  0.00     0.050 A 
HETATM   14  C13 UNK     1      17.840   1.415  37.007  1.00  0.00     0.066 A 
HETATM   15  C15 UNK     1      16.456   1.259  37.067  1.00  0.00     0.036 A 
HETATM   16  C14 UNK     1      15.800   0.474  36.118  1.00  0.00     0.004 A 
HETATM   17  C12 UNK     1      16.529  -0.154  35.109  1.00  0.00     0.014 A 
BRANCH  14  18
HETATM   18  O5  UNK     1      18.479   2.179  37.935  1.00  0.00    -0.361 OA
HETATM   19  H10 UNK     1      19.136   1.629  38.398  1.00  0.00     0.217 HD
ENDBRANCH  14  18
ENDBRANCH   5  12
BRANCH   8  20
HETATM   20  O2  UNK     1      18.236   1.061  30.291  1.00  0.00    -0.356 OA
HETATM   21  H8  UNK     1      18.073   1.435  31.174  1.00  0.00     0.218 HD
ENDBRANCH   8  20
BRANCH  10  22
HETATM   22  O4  UNK     1      19.564   0.048  28.086  1.00  0.00    -0.358 OA
HETATM   23  H9  UNK     1      20.122   0.843  28.036  1.00  0.00     0.217 HD
ENDBRANCH  10  22
TORSDOF 4
ENDMDL
MODEL 5
REMARK VINA RESULT:      -8.4     12.737     16.801
REMARK  4 active torsions:
REMARK  status: ('A' for Active; 'I' for Inactive)
REMARK    1  A    between atoms: C7_12  and  O2_2 
REMARK    2  A    between atoms: C9_14  and  O4_4 
REMARK    3  A    between atoms: C13_18  and  O5_5 
REMARK    4  A    between atoms: C3_8  and  C4_9 
ROOT
HETATM    1  O1  UNK     1      18.826  -0.163  32.822  1.00  0.00    -0.306 OA
HETATM    2  O3  UNK     1      18.743   2.975  30.225  1.00  0.00    -0.287 OA
HETATM    3  C1  UNK     1      19.366   0.732  30.629  1.00  0.00     0.051 A 
HETATM    4  C2  UNK     1      19.360  -0.300  31.566  1.00  0.00     0.126 A 
HETATM    5  C3  UNK     1      18.277   1.060  33.176  1.00  0.00     0.090 A 
HETATM    6  C5  UNK     1      18.774   2.028  30.997  1.00  0.00     0.187 A 
HETATM    7  C6  UNK     1      18.217   2.125  32.362  1.00  0.00     0.093 A 
HETATM    8  C7  UNK     1      19.912  -1.540  31.241  1.00  0.00     0.134 A 
HETATM    9  C8  UNK     1      19.922   0.534  29.363  1.00  0.00     0.021 A 
HETATM   10  C9  UNK     1      20.470  -1.740  29.978  1.00  0.00     0.101 A 
HETATM   11  C10 UNK     1      20.475  -0.705  29.041  1.00  0.00     0.040 A 
ENDROOT
BRANCH   5  12
HETATM   12  C4  UNK     1      17.727   1.097  34.546  1.00  0.00     0.001 A 
HETATM   13  C11 UNK     1      18.444   1.717  35.573  1.00  0.00     0.050 A 
HETATM   14  C13 UNK     1      17.924   1.752  36.867  1.00  0.00     0.066 A 
HETATM   15  C15 UNK     1      16.687   1.167  37.138  1.00  0.00     0.036 A 
HETATM   16  C14 UNK     1      15.970   0.546  36.115  1.00  0.00     0.004 A 
HETATM   17  C12 UNK     1      16.489   0.513  34.822  1.00  0.00     0.014 A 
BRANCH  14  18
HETATM   18  O5  UNK     1      18.625   2.354  37.867  1.00  0.00    -0.361 OA
HETATM   19  H10 UNK     1      19.450   2.716  37.500  1.00  0.00     0.217 HD
ENDBRANCH  14  18
ENDBRANCH   5  12
BRANCH   8  20
HETATM   20  O2  UNK     1      19.912  -2.554  32.151  1.00  0.00    -0.356 OA
HETATM   21  H8  UNK     1      20.381  -3.314  31.766  1.00  0.00     0.218 HD
ENDBRANCH   8  20
BRANCH  10  22
HETATM   22  O4  UNK     1      21.014  -2.944  29.645  1.00  0.00    -0.358 OA
HETATM   23  H9  UNK     1      21.488  -2.856  28.801  1.00  0.00     0.217 HD
ENDBRANCH  10  22
TORSDOF 4
ENDMDL
MODEL 6
REMARK VINA RESULT:      -8.4     13.110     16.984
REMARK  4 active torsions:
REMARK  status: ('A' for Active; 'I' for Inactive)
REMARK    1  A    between atoms: C7_12  and  O2_2 
REMARK    2  A    between atoms: C9_14  and  O4_4 
REMARK    3  A    between atoms: C13_18  and  O5_5 
REMARK    4  A    between atoms: C3_8  and  C4_9 
ROOT
HETATM    1  O1  UNK     1      18.698   0.195  32.974  1.00  0.00    -0.306 OA
HETATM    2  O3  UNK     1      17.827   4.141  32.454  1.00  0.00    -0.287 OA
HETATM    3  C1  UNK     1      18.550   2.110  31.487  1.00  0.00     0.051 A 
HETATM    4  C2  UNK     1      18.830   0.767  31.734  1.00  0.00     0.126 A 
HETATM    5  C3  UNK     1      18.278   0.992  34.028  1.00  0.00     0.090 A 
HETATM    6  C5  UNK     1      18.093   2.956  32.600  1.00  0.00     0.187 A 
HETATM    7  C6  UNK     1      17.972   2.294  33.915  1.00  0.00     0.093 A 
HETATM    8  C7  UNK     1      19.263  -0.058  30.696  1.00  0.00     0.134 A 
HETATM    9  C8  UNK     1      18.701   2.638  30.202  1.00  0.00     0.021 A 
HETATM   10  C9  UNK     1      19.415   0.466  29.412  1.00  0.00     0.101 A 
HETATM   11  C10 UNK     1      19.135   1.812  29.166  1.00  0.00     0.040 A 
ENDROOT
BRANCH   5  12
HETATM   12  C4  UNK     1      18.165   0.277  35.314  1.00  0.00     0.001 A 
HETATM   13  C11 UNK     1      18.319  -1.112  35.361  1.00  0.00     0.050 A 
HETATM   14  C13 UNK     1      18.212  -1.788  36.577  1.00  0.00     0.066 A 
HETATM   15  C15 UNK     1      17.952  -1.078  37.749  1.00  0.00     0.036 A 
HETATM   16  C14 UNK     1      17.798   0.308  37.706  1.00  0.00     0.004 A 
HETATM   17  C12 UNK     1      17.905   0.983  36.490  1.00  0.00     0.014 A 
BRANCH  14  18
HETATM   18  O5  UNK     1      18.360  -3.140  36.620  1.00  0.00    -0.361 OA
HETATM   19  H10 UNK     1      19.249  -3.350  36.955  1.00  0.00     0.217 HD
ENDBRANCH  14  18
ENDBRANCH   5  12
BRANCH   8  20
HETATM   20  O2  UNK     1      19.540  -1.372  30.929  1.00  0.00    -0.356 OA
HETATM   21  H8  UNK     1      19.875  -1.459  31.838  1.00  0.00     0.218 HD
ENDBRANCH   8  20
BRANCH  10  22
HETATM   22  O4  UNK     1      19.838  -0.325  28.386  1.00  0.00    -0.358 OA
HETATM   23  H9  UNK     1      20.557  -0.897  28.703  1.00  0.00     0.217 HD
ENDBRANCH  10  22
TORSDOF 4
ENDMDL
MODEL 7
REMARK VINA RESULT:      -8.2     12.138     14.615
REMARK  4 active torsions:
REMARK  status: ('A' for Active; 'I' for Inactive)
REMARK    1  A    between atoms: C7_12  and  O2_2 
REMARK    2  A    between atoms: C9_14  and  O4_4 
REMARK    3  A    between atoms: C13_18  and  O5_5 
REMARK    4  A    between atoms: C3_8  and  C4_9 
ROOT
HETATM    1  O1  UNK     1      11.361   7.606   9.390  1.00  0.00    -0.306 OA
HETATM    2  O3  UNK     1      11.983   6.120   5.648  1.00  0.00    -0.287 OA
HETATM    3  C1  UNK     1      10.432   6.804   7.294  1.00  0.00     0.051 A 
HETATM    4  C2  UNK     1      10.291   7.315   8.583  1.00  0.00     0.126 A 
HETATM    5  C3  UNK     1      12.638   7.371   8.904  1.00  0.00     0.090 A 
HETATM    6  C5  UNK     1      11.785   6.564   6.770  1.00  0.00     0.187 A 
HETATM    7  C6  UNK     1      12.903   6.890   7.679  1.00  0.00     0.093 A 
HETATM    8  C7  UNK     1       9.018   7.554   9.103  1.00  0.00     0.134 A 
HETATM    9  C8  UNK     1       9.305   6.528   6.516  1.00  0.00     0.021 A 
HETATM   10  C9  UNK     1       7.890   7.278   8.329  1.00  0.00     0.101 A 
HETATM   11  C10 UNK     1       8.034   6.766   7.038  1.00  0.00     0.040 A 
ENDROOT
BRANCH   5  12
HETATM   12  C4  UNK     1      13.715   7.723   9.850  1.00  0.00     0.001 A 
HETATM   13  C11 UNK     1      14.968   7.113   9.746  1.00  0.00     0.050 A 
HETATM   14  C13 UNK     1      15.986   7.446  10.641  1.00  0.00     0.066 A 
HETATM   15  C15 UNK     1      15.753   8.388  11.642  1.00  0.00     0.036 A 
HETATM   16  C14 UNK     1      14.503   8.998  11.750  1.00  0.00     0.004 A 
HETATM   17  C12 UNK     1      13.487   8.666  10.855  1.00  0.00     0.014 A 
BRANCH  14  18
HETATM   18  O5  UNK     1      17.205   6.849  10.539  1.00  0.00    -0.361 OA
HETATM   19  H10 UNK     1      17.652   6.894  11.403  1.00  0.00     0.217 HD
ENDBRANCH  14  18
ENDBRANCH   5  12
BRANCH   8  20
HETATM   20  O2  UNK     1       8.871   8.052  10.363  1.00  0.00    -0.356 OA
HETATM   21  H8  UNK     1       9.534   7.633  10.939  1.00  0.00     0.218 HD
ENDBRANCH   8  20
BRANCH  10  22
HETATM   22  O4  UNK     1       6.640   7.505   8.822  1.00  0.00    -0.358 OA
HETATM   23  H9  UNK     1       6.654   8.312   9.363  1.00  0.00     0.217 HD
ENDBRANCH  10  22
TORSDOF 4
ENDMDL
MODEL 8
REMARK VINA RESULT:      -8.2     13.556     16.889
REMARK  4 active torsions:
REMARK  status: ('A' for Active; 'I' for Inactive)
REMARK    1  A    between atoms: C7_12  and  O2_2 
REMARK    2  A    between atoms: C9_14  and  O4_4 
REMARK    3  A    between atoms: C13_18  and  O5_5 
REMARK    4  A    between atoms: C3_8  and  C4_9 
ROOT
HETATM    1  O1  UNK     1      19.406  -1.360  33.629  1.00  0.00    -0.306 OA
HETATM    2  O3  UNK     1      17.485   1.730  35.463  1.00  0.00    -0.287 OA
HETATM    3  C1  UNK     1      18.474  -0.408  35.660  1.00  0.00     0.051 A 
HETATM    4  C2  UNK     1      19.128  -1.427  34.970  1.00  0.00     0.126 A 
HETATM    5  C3  UNK     1      19.009  -0.231  32.928  1.00  0.00     0.090 A 
HETATM    6  C5  UNK     1      18.060   0.796  34.922  1.00  0.00     0.187 A 
HETATM    7  C6  UNK     1      18.379   0.818  33.479  1.00  0.00     0.093 A 
HETATM    8  C7  UNK     1      19.532  -2.578  35.648  1.00  0.00     0.134 A 
HETATM    9  C8  UNK     1      18.218  -0.530  37.028  1.00  0.00     0.021 A 
HETATM   10  C9  UNK     1      19.278  -2.704  37.014  1.00  0.00     0.101 A 
HETATM   11  C10 UNK     1      18.622  -1.682  37.702  1.00  0.00     0.040 A 
ENDROOT
BRANCH   5  12
HETATM   12  C4  UNK     1      19.362  -0.260  31.495  1.00  0.00     0.001 A 
HETATM   13  C11 UNK     1      18.890   0.736  30.635  1.00  0.00     0.050 A 
HETATM   14  C13 UNK     1      19.223   0.708  29.281  1.00  0.00     0.066 A 
HETATM   15  C15 UNK     1      20.028  -0.315  28.782  1.00  0.00     0.036 A 
HETATM   16  C14 UNK     1      20.500  -1.312  29.636  1.00  0.00     0.004 A 
HETATM   17  C12 UNK     1      20.168  -1.283  30.990  1.00  0.00     0.014 A 
BRANCH  14  18
HETATM   18  O5  UNK     1      18.761   1.679  28.446  1.00  0.00    -0.361 OA
HETATM   19  H10 UNK     1      19.113   1.520  27.552  1.00  0.00     0.217 HD
ENDBRANCH  14  18
ENDBRANCH   5  12
BRANCH   8  20
HETATM   20  O2  UNK     1      20.172  -3.580  34.981  1.00  0.00    -0.356 OA
HETATM   21  H8  UNK     1      21.098  -3.315  34.841  1.00  0.00     0.218 HD
ENDBRANCH   8  20
BRANCH  10  22
HETATM   22  O4  UNK     1      19.666  -3.822  37.690  1.00  0.00    -0.358 OA
HETATM   23  H9  UNK     1      19.052  -3.975  38.427  1.00  0.00     0.217 HD
ENDBRANCH  10  22
TORSDOF 4
ENDMDL
MODEL 9
REMARK VINA RESULT:      -8.2     13.934     16.978
REMARK  4 active torsions:
REMARK  status: ('A' for Active; 'I' for Inactive)
REMARK    1  A    between atoms: C7_12  and  O2_2 
REMARK    2  A    between atoms: C9_14  and  O4_4 
REMARK    3  A    between atoms: C13_18  and  O5_5 
REMARK    4  A    between atoms: C3_8  and  C4_9 
ROOT
HETATM    1  O1  UNK     1      18.013   2.972  33.136  1.00  0.00    -0.306 OA
HETATM    2  O3  UNK     1      19.297   1.685  29.490  1.00  0.00    -0.287 OA
HETATM    3  C1  UNK     1      18.764   1.141  31.727  1.00  0.00     0.051 A 
HETATM    4  C2  UNK     1      18.319   1.648  32.947  1.00  0.00     0.126 A 
HETATM    5  C3  UNK     1      18.163   3.844  32.069  1.00  0.00     0.090 A 
HETATM    6  C5  UNK     1      18.914   2.061  30.589  1.00  0.00     0.187 A 
HETATM    7  C6  UNK     1      18.576   3.476  30.846  1.00  0.00     0.093 A 
HETATM    8  C7  UNK     1      18.166   0.796  34.042  1.00  0.00     0.134 A 
HETATM    9  C8  UNK     1      19.059  -0.217  31.591  1.00  0.00     0.021 A 
HETATM   10  C9  UNK     1      18.460  -0.561  33.910  1.00  0.00     0.101 A 
HETATM   11  C10 UNK     1      18.907  -1.067  32.687  1.00  0.00     0.040 A 
ENDROOT
BRANCH   5  12
HETATM   12  C4  UNK     1      17.802   5.241  32.380  1.00  0.00     0.001 A 
HETATM   13  C11 UNK     1      17.383   6.101  31.361  1.00  0.00     0.050 A 
HETATM   14  C13 UNK     1      17.042   7.422  31.655  1.00  0.00     0.066 A 
HETATM   15  C15 UNK     1      17.120   7.886  32.968  1.00  0.00     0.036 A 
HETATM   16  C14 UNK     1      17.540   7.031  33.987  1.00  0.00     0.004 A 
HETATM   17  C12 UNK     1      17.879   5.711  33.693  1.00  0.00     0.014 A 
BRANCH  14  18
HETATM   18  O5  UNK     1      16.636   8.258  30.661  1.00  0.00    -0.361 OA
HETATM   19  H10 UNK     1      15.830   8.722  30.949  1.00  0.00     0.217 HD
ENDBRANCH  14  18
ENDBRANCH   5  12
BRANCH   8  20
HETATM   20  O2  UNK     1      17.732   1.284  35.238  1.00  0.00    -0.356 OA
HETATM   21  H8  UNK     1      16.759   1.284  35.236  1.00  0.00     0.218 HD
ENDBRANCH   8  20
BRANCH  10  22
HETATM   22  O4  UNK     1      18.317  -1.406  34.969  1.00  0.00    -0.358 OA
HETATM   23  H9  UNK     1      19.172  -1.830  35.154  1.00  0.00     0.217 HD
ENDBRANCH  10  22
TORSDOF 4
ENDMDL
MODEL 10
REMARK VINA RESULT:      -8.2     13.261     17.214
REMARK  4 active torsions:
REMARK  status: ('A' for Active; 'I' for Inactive)
REMARK    1  A    between atoms: C7_12  and  O2_2 
REMARK    2  A    between atoms: C9_14  and  O4_4 
REMARK    3  A    between atoms: C13_18  and  O5_5 
REMARK    4  A    between atoms: C3_8  and  C4_9 
ROOT
HETATM    1  O1  UNK     1      18.383   1.090  33.097  1.00  0.00    -0.306 OA
HETATM    2  O3  UNK     1      18.169   5.158  33.202  1.00  0.00    -0.287 OA
HETATM    3  C1  UNK     1      18.431   3.203  31.899  1.00  0.00     0.051 A 
HETATM    4  C2  UNK     1      18.494   1.811  31.935  1.00  0.00     0.126 A 
HETATM    5  C3  UNK     1      18.210   1.779  34.287  1.00  0.00     0.090 A 
HETATM    6  C5  UNK     1      18.237   3.937  33.160  1.00  0.00     0.187 A 
HETATM    7  C6  UNK     1      18.126   3.115  34.382  1.00  0.00     0.093 A 
HETATM    8  C7  UNK     1      18.676   1.091  30.754  1.00  0.00     0.134 A 
HETATM    9  C8  UNK     1      18.549   3.885  30.686  1.00  0.00     0.021 A 
HETATM   10  C9  UNK     1      18.795   1.769  29.540  1.00  0.00     0.101 A 
HETATM   11  C10 UNK     1      18.732   3.163  29.507  1.00  0.00     0.040 A 
ENDROOT
BRANCH   5  12
HETATM   12  C4  UNK     1      18.096   0.907  35.474  1.00  0.00     0.001 A 
HETATM   13  C11 UNK     1      18.289  -0.472  35.353  1.00  0.00     0.050 A 
HETATM   14  C13 UNK     1      18.181  -1.295  36.474  1.00  0.00     0.066 A 
HETATM   15  C15 UNK     1      17.882  -0.742  37.719  1.00  0.00     0.036 A 
HETATM   16  C14 UNK     1      17.688   0.634  37.844  1.00  0.00     0.004 A 
HETATM   17  C12 UNK     1      17.796   1.457  36.722  1.00  0.00     0.014 A 
BRANCH  14  18
HETATM   18  O5  UNK     1      18.367  -2.638  36.354  1.00  0.00    -0.361 OA
HETATM   19  H10 UNK     1      19.275  -2.805  36.045  1.00  0.00     0.217 HD
ENDBRANCH  14  18
ENDBRANCH   5  12
BRANCH   8  20
HETATM   20  O2  UNK     1      18.739  -0.270  30.780  1.00  0.00    -0.356 OA
HETATM   21  H8  UNK     1      18.988  -0.584  29.893  1.00  0.00     0.218 HD
ENDBRANCH   8  20
BRANCH  10  22
HETATM   22  O4  UNK     1      18.974   1.081  28.378  1.00  0.00    -0.358 OA
HETATM   23  H9  UNK     1      19.925   1.022  28.187  1.00  0.00     0.217 HD
ENDBRANCH  10  22
TORSDOF 4
ENDMDL
