MODEL 1
REMARK VINA RESULT:     -10.2      0.000      0.000
REMARK  5 active torsions:
REMARK  status: ('A' for Active; 'I' for Inactive)
REMARK       I    between atoms: C4_10  and  N1_5 
REMARK    1  A    between atoms: C5_11  and  N1_5 
REMARK    2  A    between atoms: C11_17  and  N2_6 
REMARK    3  A    between atoms: C1_7  and  C2_8 
REMARK    4  A    between atoms: C1_7  and  C4_10 
REMARK    5  A    between atoms: C3_9  and  C6_12 
ROOT
HETATM    1  C1  UNK     1      18.550   2.942  31.323  1.00  0.00     0.043 C 
HETATM    2  C3  UNK     1      18.648   4.274  31.071  1.00  0.00     0.029 C 
ENDROOT
BRANCH   1   3
HETATM    3  C2  UNK     1      18.724   1.929  30.263  1.00  0.00    -0.021 A 
HETATM    4  C7  UNK     1      19.737   0.993  30.384  1.00  0.00     0.012 A 
HETATM    5  C14 UNK     1      19.902   0.036  29.382  1.00  0.00     0.001 A 
HETATM    6  C18 UNK     1      19.051   0.030  28.277  1.00  0.00     0.000 A 
HETATM    7  C15 UNK     1      18.036   0.981  28.172  1.00  0.00     0.001 A 
HETATM    8  C8  UNK     1      17.872   1.938  29.173  1.00  0.00     0.012 A 
ENDBRANCH   1   3
BRANCH   1   9
HETATM    9  C4  UNK     1      18.287   2.549  32.759  1.00  0.00     0.257 C 
HETATM   10  O1  UNK     1      17.879   3.380  33.565  1.00  0.00    -0.267 OA
HETATM   11  N1  UNK     1      18.546   1.207  33.010  1.00  0.00    -0.321 N 
HETATM   12  H2  UNK     1      18.878   0.637  32.234  1.00  0.00     0.169 HD
BRANCH  11  13
HETATM   13  C5  UNK     1      18.405   0.518  34.240  1.00  0.00     0.059 A 
HETATM   14  C10 UNK     1      18.752  -0.820  34.346  1.00  0.00     0.060 A 
HETATM   15 Cl1  UNK     1      19.370  -1.720  33.007  1.00  0.00    -0.082 Cl
HETATM   16  C16 UNK     1      18.601  -1.470  35.571  1.00  0.00     0.028 A 
HETATM   17  C17 UNK     1      18.103  -0.774  36.673  1.00  0.00     0.038 A 
HETATM   18  C11 UNK     1      17.759   0.571  36.550  1.00  0.00     0.105 A 
HETATM   19  C9  UNK     1      17.910   1.222  35.325  1.00  0.00     0.067 A 
BRANCH  18  20
HETATM   20  N2  UNK     1      17.254   1.279  37.672  1.00  0.00    -0.116 N 
HETATM   21  O2  UNK     1      16.177   1.914  37.557  1.00  0.00    -0.532 OA
HETATM   22  O3  UNK     1      17.896   1.250  38.750  1.00  0.00    -0.532 OA
ENDBRANCH  18  20
ENDBRANCH  11  13
ENDBRANCH   1   9
BRANCH   2  23
HETATM   23  C6  UNK     1      18.495   5.353  32.035  1.00  0.00    -0.035 A 
HETATM   24  C12 UNK     1      17.229   5.872  32.306  1.00  0.00     0.011 A 
HETATM   25  C19 UNK     1      17.082   6.906  33.230  1.00  0.00     0.001 A 
HETATM   26  C21 UNK     1      18.201   7.422  33.882  1.00  0.00     0.000 A 
HETATM   27  C20 UNK     1      19.468   6.903  33.612  1.00  0.00     0.001 A 
HETATM   28  C13 UNK     1      19.615   5.869  32.687  1.00  0.00     0.011 A 
ENDBRANCH   2  23
TORSDOF 5
ENDMDL
MODEL 2
REMARK VINA RESULT:      -9.9     13.177     14.975
REMARK  5 active torsions:
REMARK  status: ('A' for Active; 'I' for Inactive)
REMARK       I    between atoms: C4_10  and  N1_5 
REMARK    1  A    between atoms: C5_11  and  N1_5 
REMARK    2  A    between atoms: C11_17  and  N2_6 
REMARK    3  A    between atoms: C1_7  and  C2_8 
REMARK    4  A    between atoms: C1_7  and  C4_10 
REMARK    5  A    between atoms: C3_9  and  C6_12 
ROOT
HETATM    1  C1  UNK     1      30.059  -6.773  33.365  1.00  0.00     0.043 C 
HETATM    2  C3  UNK     1      31.186  -6.090  33.030  1.00  0.00     0.029 C 
ENDROOT
BRANCH   1   3
HETATM    3  C2  UNK     1      29.028  -7.121  32.367  1.00  0.00    -0.021 A 
HETATM    4  C7  UNK     1      29.061  -8.370  31.770  1.00  0.00     0.012 A 
HETATM    5  C14 UNK     1      28.087  -8.699  30.827  1.00  0.00     0.001 A 
HETATM    6  C18 UNK     1      27.097  -7.775  30.496  1.00  0.00     0.000 A 
HETATM    7  C15 UNK     1      27.079  -6.521  31.108  1.00  0.00     0.001 A 
HETATM    8  C8  UNK     1      28.054  -6.192  32.050  1.00  0.00     0.012 A 
ENDBRANCH   1   3
BRANCH   1   9
HETATM    9  C4  UNK     1      29.932  -7.189  34.813  1.00  0.00     0.257 C 
HETATM   10  O1  UNK     1      30.584  -8.134  35.246  1.00  0.00    -0.267 OA
HETATM   11  N1  UNK     1      29.043  -6.396  35.528  1.00  0.00    -0.321 N 
HETATM   12  H2  UNK     1      28.577  -5.641  35.029  1.00  0.00     0.169 HD
BRANCH  11  13
HETATM   13  C5  UNK     1      28.694  -6.513  36.896  1.00  0.00     0.059 A 
HETATM   14  C10 UNK     1      29.199  -5.626  37.835  1.00  0.00     0.060 A 
HETATM   15 Cl1  UNK     1      30.270  -4.342  37.404  1.00  0.00    -0.082 Cl
HETATM   16  C16 UNK     1      28.836  -5.768  39.174  1.00  0.00     0.028 A 
HETATM   17  C17 UNK     1      27.974  -6.796  39.557  1.00  0.00     0.038 A 
HETATM   18  C11 UNK     1      27.473  -7.679  38.602  1.00  0.00     0.105 A 
HETATM   19  C9  UNK     1      27.836  -7.538  37.262  1.00  0.00     0.067 A 
BRANCH  18  20
HETATM   20  N2  UNK     1      26.595  -8.724  38.993  1.00  0.00    -0.116 N 
HETATM   21  O2  UNK     1      27.057  -9.880  39.150  1.00  0.00    -0.532 OA
HETATM   22  O3  UNK     1      25.380  -8.463  39.172  1.00  0.00    -0.532 OA
ENDBRANCH  18  20
ENDBRANCH  11  13
ENDBRANCH   1   9
BRANCH   2  23
HETATM   23  C6  UNK     1      32.261  -5.697  33.927  1.00  0.00    -0.035 A 
HETATM   24  C12 UNK     1      33.337  -6.559  34.147  1.00  0.00     0.011 A 
HETATM   25  C19 UNK     1      34.367  -6.182  35.007  1.00  0.00     0.001 A 
HETATM   26  C21 UNK     1      34.323  -4.945  35.649  1.00  0.00     0.000 A 
HETATM   27  C20 UNK     1      33.247  -4.083  35.430  1.00  0.00     0.001 A 
HETATM   28  C13 UNK     1      32.216  -4.460  34.569  1.00  0.00     0.011 A 
ENDBRANCH   2  23
TORSDOF 5
ENDMDL
MODEL 3
REMARK VINA RESULT:      -9.8     14.153     15.434
REMARK  5 active torsions:
REMARK  status: ('A' for Active; 'I' for Inactive)
REMARK       I    between atoms: C4_10  and  N1_5 
REMARK    1  A    between atoms: C5_11  and  N1_5 
REMARK    2  A    between atoms: C11_17  and  N2_6 
REMARK    3  A    between atoms: C1_7  and  C2_8 
REMARK    4  A    between atoms: C1_7  and  C4_10 
REMARK    5  A    between atoms: C3_9  and  C6_12 
ROOT
HETATM    1  C1  UNK     1      28.845  -8.584  33.780  1.00  0.00     0.043 C 
HETATM    2  C3  UNK     1      28.542  -9.650  34.568  1.00  0.00     0.029 C 
ENDROOT
BRANCH   1   3
HETATM    3  C2  UNK     1      29.102  -8.727  32.334  1.00  0.00    -0.021 A 
HETATM    4  C7  UNK     1      28.055  -8.564  31.442  1.00  0.00     0.012 A 
HETATM    5  C14 UNK     1      28.298  -8.700  30.076  1.00  0.00     0.001 A 
HETATM    6  C18 UNK     1      29.583  -8.996  29.621  1.00  0.00     0.000 A 
HETATM    7  C15 UNK     1      30.626  -9.156  30.534  1.00  0.00     0.001 A 
HETATM    8  C8  UNK     1      30.383  -9.022  31.901  1.00  0.00     0.012 A 
ENDBRANCH   1   3
BRANCH   1   9
HETATM    9  C4  UNK     1      28.872  -7.234  34.460  1.00  0.00     0.257 C 
HETATM   10  O1  UNK     1      27.944  -6.445  34.309  1.00  0.00    -0.267 OA
HETATM   11  N1  UNK     1      30.012  -7.037  35.229  1.00  0.00    -0.321 N 
HETATM   12  H2  UNK     1      30.697  -7.790  35.261  1.00  0.00     0.169 HD
BRANCH  11  13
HETATM   13  C5  UNK     1      30.350  -5.891  35.991  1.00  0.00     0.059 A 
HETATM   14  C10 UNK     1      31.443  -5.109  35.650  1.00  0.00     0.060 A 
HETATM   15 Cl1  UNK     1      32.449  -5.476  34.294  1.00  0.00    -0.082 Cl
HETATM   16  C16 UNK     1      31.749  -3.988  36.420  1.00  0.00     0.028 A 
HETATM   17  C17 UNK     1      30.957  -3.663  37.523  1.00  0.00     0.038 A 
HETATM   18  C11 UNK     1      29.861  -4.458  37.853  1.00  0.00     0.105 A 
HETATM   19  C9  UNK     1      29.555  -5.580  37.083  1.00  0.00     0.067 A 
BRANCH  18  20
HETATM   20  N2  UNK     1      29.056  -4.126  38.975  1.00  0.00    -0.116 N 
HETATM   21  O2  UNK     1      27.820  -4.336  38.921  1.00  0.00    -0.532 OA
HETATM   22  O3  UNK     1      29.603  -3.633  39.991  1.00  0.00    -0.532 OA
ENDBRANCH  18  20
ENDBRANCH  11  13
ENDBRANCH   1   9
BRANCH   2  23
HETATM   23  C6  UNK     1      28.272  -9.623  35.997  1.00  0.00    -0.035 A 
HETATM   24  C12 UNK     1      26.957  -9.695  36.460  1.00  0.00     0.011 A 
HETATM   25  C19 UNK     1      26.697  -9.669  37.829  1.00  0.00     0.001 A 
HETATM   26  C21 UNK     1      27.752  -9.570  38.737  1.00  0.00     0.000 A 
HETATM   27  C20 UNK     1      29.066  -9.498  38.275  1.00  0.00     0.001 A 
HETATM   28  C13 UNK     1      29.326  -9.524  36.905  1.00  0.00     0.011 A 
ENDBRANCH   2  23
TORSDOF 5
ENDMDL
MODEL 4
REMARK VINA RESULT:      -9.8     14.411     17.084
REMARK  5 active torsions:
REMARK  status: ('A' for Active; 'I' for Inactive)
REMARK       I    between atoms: C4_10  and  N1_5 
REMARK    1  A    between atoms: C5_11  and  N1_5 
REMARK    2  A    between atoms: C11_17  and  N2_6 
REMARK    3  A    between atoms: C1_7  and  C2_8 
REMARK    4  A    between atoms: C1_7  and  C4_10 
REMARK    5  A    between atoms: C3_9  and  C6_12 
ROOT
HETATM    1  C1  UNK     1      29.639  -6.320  34.653  1.00  0.00     0.043 C 
HETATM    2  C3  UNK     1      28.482  -6.880  34.211  1.00  0.00     0.029 C 
ENDROOT
BRANCH   1   3
HETATM    3  C2  UNK     1      29.837  -5.941  36.066  1.00  0.00    -0.021 A 
HETATM    4  C7  UNK     1      30.919  -5.146  36.407  1.00  0.00     0.012 A 
HETATM    5  C14 UNK     1      31.106  -4.788  37.742  1.00  0.00     0.001 A 
HETATM    6  C18 UNK     1      30.210  -5.230  38.715  1.00  0.00     0.000 A 
HETATM    7  C15 UNK     1      29.126  -6.031  38.353  1.00  0.00     0.001 A 
HETATM    8  C8  UNK     1      28.939  -6.389  37.018  1.00  0.00     0.012 A 
ENDBRANCH   1   3
BRANCH   1   9
HETATM    9  C4  UNK     1      30.731  -6.136  33.623  1.00  0.00     0.257 C 
HETATM   10  O1  UNK     1      30.737  -5.147  32.896  1.00  0.00    -0.267 OA
HETATM   11  N1  UNK     1      31.660  -7.168  33.628  1.00  0.00    -0.321 N 
HETATM   12  H2  UNK     1      31.524  -7.923  34.297  1.00  0.00     0.169 HD
BRANCH  11  13
HETATM   13  C5  UNK     1      32.800  -7.305  32.798  1.00  0.00     0.059 A 
HETATM   14  C10 UNK     1      34.036  -6.827  33.205  1.00  0.00     0.060 A 
HETATM   15 Cl1  UNK     1      34.264  -6.045  34.728  1.00  0.00    -0.082 Cl
HETATM   16  C16 UNK     1      35.138  -6.977  32.364  1.00  0.00     0.028 A 
HETATM   17  C17 UNK     1      34.990  -7.603  31.126  1.00  0.00     0.038 A 
HETATM   18  C11 UNK     1      33.741  -8.079  30.730  1.00  0.00     0.105 A 
HETATM   19  C9  UNK     1      32.638  -7.929  31.571  1.00  0.00     0.067 A 
BRANCH  18  20
HETATM   20  N2  UNK     1      33.591  -8.716  29.470  1.00  0.00    -0.116 N 
HETATM   21  O2  UNK     1      33.011  -9.828  29.416  1.00  0.00    -0.532 OA
HETATM   22  O3  UNK     1      34.042  -8.150  28.444  1.00  0.00    -0.532 OA
ENDBRANCH  18  20
ENDBRANCH  11  13
ENDBRANCH   1   9
BRANCH   2  23
HETATM   23  C6  UNK     1      28.181  -7.289  32.849  1.00  0.00    -0.035 A 
HETATM   24  C12 UNK     1      27.469  -6.435  32.005  1.00  0.00     0.011 A 
HETATM   25  C19 UNK     1      27.181  -6.827  30.698  1.00  0.00     0.001 A 
HETATM   26  C21 UNK     1      27.603  -8.073  30.235  1.00  0.00     0.000 A 
HETATM   27  C20 UNK     1      28.315  -8.927  31.078  1.00  0.00     0.001 A 
HETATM   28  C13 UNK     1      28.603  -8.535  32.385  1.00  0.00     0.011 A 
ENDBRANCH   2  23
TORSDOF 5
ENDMDL
MODEL 5
REMARK VINA RESULT:      -9.8      2.500      5.603
REMARK  5 active torsions:
REMARK  status: ('A' for Active; 'I' for Inactive)
REMARK       I    between atoms: C4_10  and  N1_5 
REMARK    1  A    between atoms: C5_11  and  N1_5 
REMARK    2  A    between atoms: C11_17  and  N2_6 
REMARK    3  A    between atoms: C1_7  and  C2_8 
REMARK    4  A    between atoms: C1_7  and  C4_10 
REMARK    5  A    between atoms: C3_9  and  C6_12 
ROOT
HETATM    1  C1  UNK     1      18.603   0.327  32.999  1.00  0.00     0.043 C 
HETATM    2  C3  UNK     1      17.941  -0.449  33.897  1.00  0.00     0.029 C 
ENDROOT
BRANCH   1   3
HETATM    3  C2  UNK     1      19.219  -0.235  31.780  1.00  0.00    -0.021 A 
HETATM    4  C7  UNK     1      19.568  -1.574  31.756  1.00  0.00     0.012 A 
HETATM    5  C14 UNK     1      20.150  -2.105  30.605  1.00  0.00     0.001 A 
HETATM    6  C18 UNK     1      20.373  -1.289  29.497  1.00  0.00     0.000 A 
HETATM    7  C15 UNK     1      20.015   0.058  29.539  1.00  0.00     0.001 A 
HETATM    8  C8  UNK     1      19.433   0.589  30.690  1.00  0.00     0.012 A 
ENDBRANCH   1   3
BRANCH   1   9
HETATM    9  C4  UNK     1      18.647   1.809  33.297  1.00  0.00     0.257 C 
HETATM   10  O1  UNK     1      18.997   2.208  34.404  1.00  0.00    -0.267 OA
HETATM   11  N1  UNK     1      18.270   2.591  32.213  1.00  0.00    -0.321 N 
HETATM   12  H2  UNK     1      18.008   2.113  31.354  1.00  0.00     0.169 HD
BRANCH  11  13
HETATM   13  C5  UNK     1      18.201   4.006  32.154  1.00  0.00     0.059 A 
HETATM   14  C10 UNK     1      18.461   4.679  30.971  1.00  0.00     0.060 A 
HETATM   15 Cl1  UNK     1      18.879   3.852  29.514  1.00  0.00    -0.082 Cl
HETATM   16  C16 UNK     1      18.385   6.072  30.946  1.00  0.00     0.028 A 
HETATM   17  C17 UNK     1      18.051   6.772  32.106  1.00  0.00     0.038 A 
HETATM   18  C11 UNK     1      17.792   6.081  33.288  1.00  0.00     0.105 A 
HETATM   19  C9  UNK     1      17.867   4.688  33.313  1.00  0.00     0.067 A 
BRANCH  18  20
HETATM   20  N2  UNK     1      17.451   6.795  34.467  1.00  0.00    -0.116 N 
HETATM   21  O2  UNK     1      16.317   6.623  34.976  1.00  0.00    -0.532 OA
HETATM   22  O3  UNK     1      18.294   7.577  34.970  1.00  0.00    -0.532 OA
ENDBRANCH  18  20
ENDBRANCH  11  13
ENDBRANCH   1   9
BRANCH   2  23
HETATM   23  C6  UNK     1      17.300  -0.003  35.124  1.00  0.00    -0.035 A 
HETATM   24  C12 UNK     1      18.033   0.062  36.309  1.00  0.00     0.011 A 
HETATM   25  C19 UNK     1      17.420   0.490  37.486  1.00  0.00     0.001 A 
HETATM   26  C21 UNK     1      16.073   0.853  37.478  1.00  0.00     0.000 A 
HETATM   27  C20 UNK     1      15.340   0.788  36.293  1.00  0.00     0.001 A 
HETATM   28  C13 UNK     1      15.954   0.360  35.115  1.00  0.00     0.011 A 
ENDBRANCH   2  23
TORSDOF 5
ENDMDL
MODEL 6
REMARK VINA RESULT:      -9.7      2.784      6.415
REMARK  5 active torsions:
REMARK  status: ('A' for Active; 'I' for Inactive)
REMARK       I    between atoms: C4_10  and  N1_5 
REMARK    1  A    between atoms: C5_11  and  N1_5 
REMARK    2  A    between atoms: C11_17  and  N2_6 
REMARK    3  A    between atoms: C1_7  and  C2_8 
REMARK    4  A    between atoms: C1_7  and  C4_10 
REMARK    5  A    between atoms: C3_9  and  C6_12 
ROOT
HETATM    1  C1  UNK     1      18.289   3.201  33.948  1.00  0.00     0.043 C 
HETATM    2  C3  UNK     1      18.277   2.914  35.277  1.00  0.00     0.029 C 
ENDROOT
BRANCH   1   3
HETATM    3  C2  UNK     1      18.436   4.581  33.445  1.00  0.00    -0.021 A 
HETATM    4  C7  UNK     1      17.611   5.019  32.423  1.00  0.00     0.012 A 
HETATM    5  C14 UNK     1      17.750   6.323  31.948  1.00  0.00     0.001 A 
HETATM    6  C18 UNK     1      18.710   7.168  32.502  1.00  0.00     0.000 A 
HETATM    7  C15 UNK     1      19.533   6.710  33.532  1.00  0.00     0.001 A 
HETATM    8  C8  UNK     1      19.394   5.406  34.006  1.00  0.00     0.012 A 
ENDBRANCH   1   3
BRANCH   1   9
HETATM    9  C4  UNK     1      18.177   2.023  33.007  1.00  0.00     0.257 C 
HETATM   10  O1  UNK     1      17.221   1.257  33.082  1.00  0.00    -0.267 OA
HETATM   11  N1  UNK     1      19.232   1.947  32.106  1.00  0.00    -0.321 N 
HETATM   12  H2  UNK     1      19.954   2.662  32.163  1.00  0.00     0.169 HD
BRANCH  11  13
HETATM   13  C5  UNK     1      19.433   0.974  31.095  1.00  0.00     0.059 A 
HETATM   14  C10 UNK     1      19.095   1.240  29.778  1.00  0.00     0.060 A 
HETATM   15 Cl1  UNK     1      18.417   2.752  29.289  1.00  0.00    -0.082 Cl
HETATM   16  C16 UNK     1      19.306   0.261  28.807  1.00  0.00     0.028 A 
HETATM   17  C17 UNK     1      19.852  -0.972  29.167  1.00  0.00     0.038 A 
HETATM   18  C11 UNK     1      20.187  -1.224  30.496  1.00  0.00     0.105 A 
HETATM   19  C9  UNK     1      19.976  -0.245  31.468  1.00  0.00     0.067 A 
BRANCH  18  20
HETATM   20  N2  UNK     1      20.742  -2.479  30.862  1.00  0.00    -0.116 N 
HETATM   21  O2  UNK     1      20.876  -2.754  32.079  1.00  0.00    -0.532 OA
HETATM   22  O3  UNK     1      21.084  -3.280  29.958  1.00  0.00    -0.532 OA
ENDBRANCH  18  20
ENDBRANCH  11  13
ENDBRANCH   1   9
BRANCH   2  23
HETATM   23  C6  UNK     1      18.138   1.597  35.879  1.00  0.00    -0.035 A 
HETATM   24  C12 UNK     1      17.015   1.298  36.651  1.00  0.00     0.011 A 
HETATM   25  C19 UNK     1      16.882   0.036  37.228  1.00  0.00     0.001 A 
HETATM   26  C21 UNK     1      17.871  -0.928  37.034  1.00  0.00     0.000 A 
HETATM   27  C20 UNK     1      18.994  -0.629  36.262  1.00  0.00     0.001 A 
HETATM   28  C13 UNK     1      19.128   0.634  35.685  1.00  0.00     0.011 A 
ENDBRANCH   2  23
TORSDOF 5
ENDMDL
MODEL 7
REMARK VINA RESULT:      -9.7     15.114     17.512
REMARK  5 active torsions:
REMARK  status: ('A' for Active; 'I' for Inactive)
REMARK       I    between atoms: C4_10  and  N1_5 
REMARK    1  A    between atoms: C5_11  and  N1_5 
REMARK    2  A    between atoms: C11_17  and  N2_6 
REMARK    3  A    between atoms: C1_7  and  C2_8 
REMARK    4  A    between atoms: C1_7  and  C4_10 
REMARK    5  A    between atoms: C3_9  and  C6_12 
ROOT
HETATM    1  C1  UNK     1      30.233  -5.910  35.196  1.00  0.00     0.043 C 
HETATM    2  C3  UNK     1      29.386  -6.201  34.174  1.00  0.00     0.029 C 
ENDROOT
BRANCH   1   3
HETATM    3  C2  UNK     1      29.784  -5.879  36.602  1.00  0.00    -0.021 A 
HETATM    4  C7  UNK     1      30.137  -4.803  37.399  1.00  0.00     0.012 A 
HETATM    5  C14 UNK     1      29.713  -4.773  38.728  1.00  0.00     0.001 A 
HETATM    6  C18 UNK     1      28.943  -5.818  39.238  1.00  0.00     0.000 A 
HETATM    7  C15 UNK     1      28.597  -6.894  38.419  1.00  0.00     0.001 A 
HETATM    8  C8  UNK     1      29.022  -6.924  37.091  1.00  0.00     0.012 A 
ENDBRANCH   1   3
BRANCH   1   9
HETATM    9  C4  UNK     1      31.675  -5.653  34.819  1.00  0.00     0.257 C 
HETATM   10  O1  UNK     1      32.032  -4.535  34.461  1.00  0.00    -0.267 OA
HETATM   11  N1  UNK     1      32.476  -6.782  34.938  1.00  0.00    -0.321 N 
HETATM   12  H2  UNK     1      32.035  -7.643  35.254  1.00  0.00     0.169 HD
BRANCH  11  13
HETATM   13  C5  UNK     1      33.863  -6.887  34.667  1.00  0.00     0.059 A 
HETATM   14  C10 UNK     1      34.801  -6.585  35.642  1.00  0.00     0.060 A 
HETATM   15 Cl1  UNK     1      34.347  -6.071  37.227  1.00  0.00    -0.082 Cl
HETATM   16  C16 UNK     1      36.158  -6.698  35.343  1.00  0.00     0.028 A 
HETATM   17  C17 UNK     1      36.560  -7.110  34.072  1.00  0.00     0.038 A 
HETATM   18  C11 UNK     1      35.605  -7.410  33.102  1.00  0.00     0.105 A 
HETATM   19  C9  UNK     1      34.247  -7.298  33.400  1.00  0.00     0.067 A 
BRANCH  18  20
HETATM   20  N2  UNK     1      36.015  -7.830  31.809  1.00  0.00    -0.116 N 
HETATM   21  O2  UNK     1      35.625  -7.182  30.807  1.00  0.00    -0.532 OA
HETATM   22  O3  UNK     1      36.757  -8.837  31.702  1.00  0.00    -0.532 OA
ENDBRANCH  18  20
ENDBRANCH  11  13
ENDBRANCH   1   9
BRANCH   2  23
HETATM   23  C6  UNK     1      29.720  -6.260  32.760  1.00  0.00    -0.035 A 
HETATM   24  C12 UNK     1      29.535  -5.136  31.952  1.00  0.00     0.011 A 
HETATM   25  C19 UNK     1      29.856  -5.192  30.596  1.00  0.00     0.001 A 
HETATM   26  C21 UNK     1      30.360  -6.371  30.047  1.00  0.00     0.000 A 
HETATM   27  C20 UNK     1      30.545  -7.494  30.853  1.00  0.00     0.001 A 
HETATM   28  C13 UNK     1      30.224  -7.438  32.210  1.00  0.00     0.011 A 
ENDBRANCH   2  23
TORSDOF 5
ENDMDL
MODEL 8
REMARK VINA RESULT:      -9.7     14.930     17.367
REMARK  5 active torsions:
REMARK  status: ('A' for Active; 'I' for Inactive)
REMARK       I    between atoms: C4_10  and  N1_5 
REMARK    1  A    between atoms: C5_11  and  N1_5 
REMARK    2  A    between atoms: C11_17  and  N2_6 
REMARK    3  A    between atoms: C1_7  and  C2_8 
REMARK    4  A    between atoms: C1_7  and  C4_10 
REMARK    5  A    between atoms: C3_9  and  C6_12 
ROOT
HETATM    1  C1  UNK     1      29.993  -6.033  35.275  1.00  0.00     0.043 C 
HETATM    2  C3  UNK     1      29.220  -6.316  34.194  1.00  0.00     0.029 C 
ENDROOT
BRANCH   1   3
HETATM    3  C2  UNK     1      29.467  -6.097  36.654  1.00  0.00    -0.021 A 
HETATM    4  C7  UNK     1      28.408  -6.944  36.933  1.00  0.00     0.012 A 
HETATM    5  C14 UNK     1      27.911  -7.004  38.235  1.00  0.00     0.001 A 
HETATM    6  C18 UNK     1      28.480  -6.218  39.236  1.00  0.00     0.000 A 
HETATM    7  C15 UNK     1      29.547  -5.370  38.936  1.00  0.00     0.001 A 
HETATM    8  C8  UNK     1      30.044  -5.310  37.634  1.00  0.00     0.012 A 
ENDBRANCH   1   3
BRANCH   1   9
HETATM    9  C4  UNK     1      31.436  -5.681  34.994  1.00  0.00     0.257 C 
HETATM   10  O1  UNK     1      31.757  -4.519  34.761  1.00  0.00    -0.267 OA
HETATM   11  N1  UNK     1      32.282  -6.781  35.044  1.00  0.00    -0.321 N 
HETATM   12  H2  UNK     1      31.868  -7.687  35.255  1.00  0.00     0.169 HD
BRANCH  11  13
HETATM   13  C5  UNK     1      33.683  -6.801  34.830  1.00  0.00     0.059 A 
HETATM   14  C10 UNK     1      34.564  -6.614  35.885  1.00  0.00     0.060 A 
HETATM   15 Cl1  UNK     1      34.019  -6.348  37.502  1.00  0.00    -0.082 Cl
HETATM   16  C16 UNK     1      35.937  -6.639  35.641  1.00  0.00     0.028 A 
HETATM   17  C17 UNK     1      36.411  -6.850  34.346  1.00  0.00     0.038 A 
HETATM   18  C11 UNK     1      35.513  -7.038  33.296  1.00  0.00     0.105 A 
HETATM   19  C9  UNK     1      34.140  -7.013  33.539  1.00  0.00     0.067 A 
BRANCH  18  20
HETATM   20  N2  UNK     1      35.997  -7.253  31.979  1.00  0.00    -0.116 N 
HETATM   21  O2  UNK     1      35.908  -6.325  31.139  1.00  0.00    -0.532 OA
HETATM   22  O3  UNK     1      36.502  -8.365  31.690  1.00  0.00    -0.532 OA
ENDBRANCH  18  20
ENDBRANCH  11  13
ENDBRANCH   1   9
BRANCH   2  23
HETATM   23  C6  UNK     1      29.633  -6.284  32.800  1.00  0.00    -0.035 A 
HETATM   24  C12 UNK     1      30.211  -7.414  32.218  1.00  0.00     0.011 A 
HETATM   25  C19 UNK     1      30.607  -7.384  30.882  1.00  0.00     0.001 A 
HETATM   26  C21 UNK     1      30.427  -6.225  30.127  1.00  0.00     0.000 A 
HETATM   27  C20 UNK     1      29.849  -5.096  30.708  1.00  0.00     0.001 A 
HETATM   28  C13 UNK     1      29.453  -5.125  32.045  1.00  0.00     0.011 A 
ENDBRANCH   2  23
TORSDOF 5
ENDMDL
MODEL 9
REMARK VINA RESULT:      -9.6     14.895     16.821
REMARK  5 active torsions:
REMARK  status: ('A' for Active; 'I' for Inactive)
REMARK       I    between atoms: C4_10  and  N1_5 
REMARK    1  A    between atoms: C5_11  and  N1_5 
REMARK    2  A    between atoms: C11_17  and  N2_6 
REMARK    3  A    between atoms: C1_7  and  C2_8 
REMARK    4  A    between atoms: C1_7  and  C4_10 
REMARK    5  A    between atoms: C3_9  and  C6_12 
ROOT
HETATM    1  C1  UNK     1      30.682  -7.289  37.279  1.00  0.00     0.043 C 
HETATM    2  C3  UNK     1      31.552  -6.334  37.703  1.00  0.00     0.029 C 
ENDROOT
BRANCH   1   3
HETATM    3  C2  UNK     1      29.618  -7.823  38.152  1.00  0.00    -0.021 A 
HETATM    4  C7  UNK     1      28.781  -6.940  38.814  1.00  0.00     0.012 A 
HETATM    5  C14 UNK     1      27.776  -7.444  39.639  1.00  0.00     0.001 A 
HETATM    6  C18 UNK     1      27.623  -8.822  39.790  1.00  0.00     0.000 A 
HETATM    7  C15 UNK     1      28.475  -9.697  39.115  1.00  0.00     0.001 A 
HETATM    8  C8  UNK     1      29.481  -9.192  38.290  1.00  0.00     0.012 A 
ENDBRANCH   1   3
BRANCH   1   9
HETATM    9  C4  UNK     1      30.840  -7.753  35.849  1.00  0.00     0.257 C 
HETATM   10  O1  UNK     1      31.780  -8.477  35.532  1.00  0.00    -0.267 OA
HETATM   11  N1  UNK     1      29.836  -7.282  35.012  1.00  0.00    -0.321 N 
HETATM   12  H2  UNK     1      29.117  -6.691  35.423  1.00  0.00     0.169 HD
BRANCH  11  13
HETATM   13  C5  UNK     1      29.686  -7.527  33.625  1.00  0.00     0.059 A 
HETATM   14  C10 UNK     1      29.142  -8.718  33.170  1.00  0.00     0.060 A 
HETATM   15 Cl1  UNK     1      28.618  -9.962  34.248  1.00  0.00    -0.082 Cl
HETATM   16  C16 UNK     1      29.008  -8.928  31.798  1.00  0.00     0.028 A 
HETATM   17  C17 UNK     1      29.421  -7.945  30.898  1.00  0.00     0.038 A 
HETATM   18  C11 UNK     1      29.966  -6.752  31.371  1.00  0.00     0.105 A 
HETATM   19  C9  UNK     1      30.100  -6.541  32.743  1.00  0.00     0.067 A 
BRANCH  18  20
HETATM   20  N2  UNK     1      30.386  -5.752  30.455  1.00  0.00    -0.116 N 
HETATM   21  O2  UNK     1      29.996  -4.571  30.622  1.00  0.00    -0.532 OA
HETATM   22  O3  UNK     1      31.137  -6.075  29.502  1.00  0.00    -0.532 OA
ENDBRANCH  18  20
ENDBRANCH  11  13
ENDBRANCH   1   9
BRANCH   2  23
HETATM   23  C6  UNK     1      32.632  -5.741  36.931  1.00  0.00    -0.035 A 
HETATM   24  C12 UNK     1      33.943  -6.186  37.109  1.00  0.00     0.011 A 
HETATM   25  C19 UNK     1      34.979  -5.618  36.369  1.00  0.00     0.001 A 
HETATM   26  C21 UNK     1      34.705  -4.603  35.452  1.00  0.00     0.000 A 
HETATM   27  C20 UNK     1      33.395  -4.158  35.274  1.00  0.00     0.001 A 
HETATM   28  C13 UNK     1      32.359  -4.727  36.014  1.00  0.00     0.011 A 
ENDBRANCH   2  23
TORSDOF 5
ENDMDL
MODEL 10
REMARK VINA RESULT:      -9.6      4.740      6.707
REMARK  5 active torsions:
REMARK  status: ('A' for Active; 'I' for Inactive)
REMARK       I    between atoms: C4_10  and  N1_5 
REMARK    1  A    between atoms: C5_11  and  N1_5 
REMARK    2  A    between atoms: C11_17  and  N2_6 
REMARK    3  A    between atoms: C1_7  and  C2_8 
REMARK    4  A    between atoms: C1_7  and  C4_10 
REMARK    5  A    between atoms: C3_9  and  C6_12 
ROOT
HETATM    1  C1  UNK     1      19.573  -1.431  33.419  1.00  0.00     0.043 C 
HETATM    2  C3  UNK     1      18.631  -0.580  33.906  1.00  0.00     0.029 C 
ENDROOT
BRANCH   1   3
HETATM    3  C2  UNK     1      19.914  -1.484  31.984  1.00  0.00    -0.021 A 
HETATM    4  C7  UNK     1      19.698  -0.366  31.197  1.00  0.00     0.012 A 
HETATM    5  C14 UNK     1      20.020  -0.416  29.841  1.00  0.00     0.001 A 
HETATM    6  C18 UNK     1      20.554  -1.582  29.293  1.00  0.00     0.000 A 
HETATM    7  C15 UNK     1      20.766  -2.699  30.102  1.00  0.00     0.001 A 
HETATM    8  C8  UNK     1      20.443  -2.649  31.458  1.00  0.00     0.012 A 
ENDBRANCH   1   3
BRANCH   1   9
HETATM    9  C4  UNK     1      20.279  -2.302  34.434  1.00  0.00     0.257 C 
HETATM   10  O1  UNK     1      21.347  -1.944  34.922  1.00  0.00    -0.267 OA
HETATM   11  N1  UNK     1      19.587  -3.472  34.719  1.00  0.00    -0.321 N 
HETATM   12  H2  UNK     1      18.705  -3.630  34.235  1.00  0.00     0.169 HD
BRANCH  11  13
HETATM   13  C5  UNK     1      19.966  -4.500  35.618  1.00  0.00     0.059 A 
HETATM   14  C10 UNK     1      20.172  -4.227  36.961  1.00  0.00     0.060 A 
HETATM   15 Cl1  UNK     1      19.983  -2.640  37.616  1.00  0.00    -0.082 Cl
HETATM   16  C16 UNK     1      20.545  -5.260  37.820  1.00  0.00     0.028 A 
HETATM   17  C17 UNK     1      20.707  -6.554  37.323  1.00  0.00     0.038 A 
HETATM   18  C11 UNK     1      20.496  -6.814  35.970  1.00  0.00     0.105 A 
HETATM   19  C9  UNK     1      20.123  -5.780  35.111  1.00  0.00     0.067 A 
BRANCH  18  20
HETATM   20  N2  UNK     1      20.661  -8.131  35.466  1.00  0.00    -0.116 N 
HETATM   21  O2  UNK     1      21.257  -8.295  34.374  1.00  0.00    -0.532 OA
HETATM   22  O3  UNK     1      20.207  -9.097  36.127  1.00  0.00    -0.532 OA
ENDBRANCH  18  20
ENDBRANCH  11  13
ENDBRANCH   1   9
BRANCH   2  23
HETATM   23  C6  UNK     1      18.218  -0.445  35.294  1.00  0.00    -0.035 A 
HETATM   24  C12 UNK     1      17.355  -1.385  35.859  1.00  0.00     0.011 A 
HETATM   25  C19 UNK     1      16.958  -1.257  37.189  1.00  0.00     0.001 A 
HETATM   26  C21 UNK     1      17.424  -0.188  37.955  1.00  0.00     0.000 A 
HETATM   27  C20 UNK     1      18.287   0.752  37.392  1.00  0.00     0.001 A 
HETATM   28  C13 UNK     1      18.684   0.623  36.060  1.00  0.00     0.011 A 
ENDBRANCH   2  23
TORSDOF 5
ENDMDL
