MODEL 1
REMARK VINA RESULT:      -7.1      0.000      0.000
REMARK  5 active torsions:
REMARK  status: ('A' for Active; 'I' for Inactive)
REMARK    1  A    between atoms: C4_7  and  O1_1 
REMARK    2  A    between atoms: C2_5  and  O2_2 
REMARK    3  A    between atoms: C1_4  and  C5_8 
REMARK    4  A    between atoms: C5_8  and  C9_12 
REMARK    5  A    between atoms: C10_13  and  C8_11 
ROOT
HETATM    1  C1  UNK     1      18.783   4.993  32.052  1.00  0.00     0.047 A 
HETATM    2  C2  UNK     1      18.251   3.704  32.078  1.00  0.00     0.082 A 
HETATM    3  C3  UNK     1      19.183   5.559  30.841  1.00  0.00     0.021 A 
HETATM    4  C4  UNK     1      18.518   3.546  29.682  1.00  0.00     0.070 A 
HETATM    5  C6  UNK     1      18.119   2.981  30.892  1.00  0.00     0.074 A 
HETATM    6  C7  UNK     1      19.051   4.836  29.656  1.00  0.00     0.038 A 
ENDROOT
BRANCH   1   7
HETATM    7  C5  UNK     1      18.933   5.780  33.300  1.00  0.00     0.184 C 
HETATM    8  O3  UNK     1      18.764   5.235  34.386  1.00  0.00    -0.287 OA
BRANCH   7   9
HETATM    9  C9  UNK     1      19.256   7.228  33.170  1.00  0.00     0.056 C 
HETATM   10  C10 UNK     1      18.267   8.140  33.044  1.00  0.00     0.015 C 
BRANCH  10  11
HETATM   11  C8  UNK     1      16.844   7.836  33.022  1.00  0.00    -0.036 A 
HETATM   12  C11 UNK     1      16.119   7.805  34.213  1.00  0.00     0.011 A 
HETATM   13  C13 UNK     1      14.756   7.513  34.192  1.00  0.00     0.001 A 
HETATM   14  C15 UNK     1      14.117   7.252  32.979  1.00  0.00     0.000 A 
HETATM   15  C14 UNK     1      14.842   7.283  31.788  1.00  0.00     0.001 A 
HETATM   16  C12 UNK     1      16.205   7.575  31.810  1.00  0.00     0.011 A 
ENDBRANCH  10  11
ENDBRANCH   7   9
ENDBRANCH   1   7
BRANCH   2  17
HETATM   17  O2  UNK     1      17.856   3.134  33.251  1.00  0.00    -0.360 OA
HETATM   18  H11 UNK     1      17.086   2.560  33.110  1.00  0.00     0.217 HD
ENDBRANCH   2  17
BRANCH   4  19
HETATM   19  O1  UNK     1      18.390   2.839  28.526  1.00  0.00    -0.356 OA
HETATM   20  C16 UNK     1      17.980   1.477  28.640  1.00  0.00     0.210 C 
ENDBRANCH   4  19
TORSDOF 5
ENDMDL
MODEL 2
REMARK VINA RESULT:      -7.1      2.582      4.486
REMARK  5 active torsions:
REMARK  status: ('A' for Active; 'I' for Inactive)
REMARK    1  A    between atoms: C4_7  and  O1_1 
REMARK    2  A    between atoms: C2_5  and  O2_2 
REMARK    3  A    between atoms: C1_4  and  C5_8 
REMARK    4  A    between atoms: C5_8  and  C9_12 
REMARK    5  A    between atoms: C10_13  and  C8_11 
ROOT
HETATM    1  C1  UNK     1      18.976   1.685  30.542  1.00  0.00     0.047 A 
HETATM    2  C2  UNK     1      19.032   0.824  31.639  1.00  0.00     0.082 A 
HETATM    3  C3  UNK     1      19.426   1.255  29.294  1.00  0.00     0.021 A 
HETATM    4  C4  UNK     1      19.987  -0.897  30.237  1.00  0.00     0.070 A 
HETATM    5  C6  UNK     1      19.538  -0.467  31.485  1.00  0.00     0.074 A 
HETATM    6  C7  UNK     1      19.932  -0.036  29.141  1.00  0.00     0.038 A 
ENDROOT
BRANCH   1   7
HETATM    7  C5  UNK     1      18.443   3.062  30.682  1.00  0.00     0.184 C 
HETATM    8  O3  UNK     1      17.876   3.392  31.718  1.00  0.00    -0.287 OA
BRANCH   7   9
HETATM    9  C9  UNK     1      18.598   3.984  29.523  1.00  0.00     0.056 C 
HETATM   10  C10 UNK     1      18.995   5.261  29.715  1.00  0.00     0.015 C 
BRANCH  10  11
HETATM   11  C8  UNK     1      19.304   5.859  31.005  1.00  0.00    -0.036 A 
HETATM   12  C11 UNK     1      18.311   6.533  31.716  1.00  0.00     0.011 A 
HETATM   13  C13 UNK     1      18.607   7.106  32.953  1.00  0.00     0.001 A 
HETATM   14  C15 UNK     1      19.895   7.005  33.478  1.00  0.00     0.000 A 
HETATM   15  C14 UNK     1      20.889   6.331  32.766  1.00  0.00     0.001 A 
HETATM   16  C12 UNK     1      20.592   5.758  31.530  1.00  0.00     0.011 A 
ENDBRANCH  10  11
ENDBRANCH   7   9
ENDBRANCH   1   7
BRANCH   2  17
HETATM   17  O2  UNK     1      18.598   1.226  32.866  1.00  0.00    -0.360 OA
HETATM   18  H11 UNK     1      19.033   0.715  33.567  1.00  0.00     0.217 HD
ENDBRANCH   2  17
BRANCH   4  19
HETATM   19  O1  UNK     1      20.482  -2.156  30.089  1.00  0.00    -0.356 OA
HETATM   20  C16 UNK     1      20.778  -2.882  31.282  1.00  0.00     0.210 C 
ENDBRANCH   4  19
TORSDOF 5
ENDMDL
MODEL 3
REMARK VINA RESULT:      -7.0     22.153     24.145
REMARK  5 active torsions:
REMARK  status: ('A' for Active; 'I' for Inactive)
REMARK    1  A    between atoms: C4_7  and  O1_1 
REMARK    2  A    between atoms: C2_5  and  O2_2 
REMARK    3  A    between atoms: C1_4  and  C5_8 
REMARK    4  A    between atoms: C5_8  and  C9_12 
REMARK    5  A    between atoms: C10_13  and  C8_11 
ROOT
HETATM    1  C1  UNK     1      14.790   7.588   9.716  1.00  0.00     0.047 A 
HETATM    2  C2  UNK     1      14.612   8.814   9.073  1.00  0.00     0.082 A 
HETATM    3  C3  UNK     1      16.040   7.245  10.231  1.00  0.00     0.021 A 
HETATM    4  C4  UNK     1      16.935   9.353   9.463  1.00  0.00     0.070 A 
HETATM    5  C6  UNK     1      15.686   9.696   8.948  1.00  0.00     0.074 A 
HETATM    6  C7  UNK     1      17.113   8.127  10.105  1.00  0.00     0.038 A 
ENDROOT
BRANCH   1   7
HETATM    7  C5  UNK     1      13.663   6.635   9.860  1.00  0.00     0.184 C 
HETATM    8  O3  UNK     1      12.631   6.993  10.418  1.00  0.00    -0.287 OA
BRANCH   7   9
HETATM    9  C9  UNK     1      13.856   5.253   9.339  1.00  0.00     0.056 C 
HETATM   10  C10 UNK     1      13.019   4.752   8.404  1.00  0.00     0.015 C 
BRANCH  10  11
HETATM   11  C8  UNK     1      11.889   5.462   7.824  1.00  0.00    -0.036 A 
HETATM   12  C11 UNK     1      12.056   6.198   6.652  1.00  0.00     0.011 A 
HETATM   13  C13 UNK     1      10.973   6.878   6.095  1.00  0.00     0.001 A 
HETATM   14  C15 UNK     1       9.723   6.823   6.712  1.00  0.00     0.000 A 
HETATM   15  C14 UNK     1       9.556   6.087   7.885  1.00  0.00     0.001 A 
HETATM   16  C12 UNK     1      10.639   5.406   8.441  1.00  0.00     0.011 A 
ENDBRANCH  10  11
ENDBRANCH   7   9
ENDBRANCH   1   7
BRANCH   2  17
HETATM   17  O2  UNK     1      13.400   9.167   8.563  1.00  0.00    -0.360 OA
HETATM   18  H11 UNK     1      13.159   8.592   7.821  1.00  0.00     0.217 HD
ENDBRANCH   2  17
BRANCH   4  19
HETATM   19  O1  UNK     1      17.983  10.214   9.339  1.00  0.00    -0.356 OA
HETATM   20  C16 UNK     1      17.850  11.262   8.380  1.00  0.00     0.210 C 
ENDBRANCH   4  19
TORSDOF 5
ENDMDL
MODEL 4
REMARK VINA RESULT:      -7.0     22.158     24.135
REMARK  5 active torsions:
REMARK  status: ('A' for Active; 'I' for Inactive)
REMARK    1  A    between atoms: C4_7  and  O1_1 
REMARK    2  A    between atoms: C2_5  and  O2_2 
REMARK    3  A    between atoms: C1_4  and  C5_8 
REMARK    4  A    between atoms: C5_8  and  C9_12 
REMARK    5  A    between atoms: C10_13  and  C8_11 
ROOT
HETATM    1  C1  UNK     1      14.783   7.579   9.706  1.00  0.00     0.047 A 
HETATM    2  C2  UNK     1      14.600   8.803   9.062  1.00  0.00     0.082 A 
HETATM    3  C3  UNK     1      16.033   7.243  10.225  1.00  0.00     0.021 A 
HETATM    4  C4  UNK     1      16.919   9.356   9.458  1.00  0.00     0.070 A 
HETATM    5  C6  UNK     1      15.669   9.692   8.939  1.00  0.00     0.074 A 
HETATM    6  C7  UNK     1      17.102   8.131  10.101  1.00  0.00     0.038 A 
ENDROOT
BRANCH   1   7
HETATM    7  C5  UNK     1      13.662   6.619   9.848  1.00  0.00     0.184 C 
HETATM    8  O3  UNK     1      12.631   6.968  10.413  1.00  0.00    -0.287 OA
BRANCH   7   9
HETATM    9  C9  UNK     1      13.858   5.242   9.315  1.00  0.00     0.056 C 
HETATM   10  C10 UNK     1      13.019   4.746   8.379  1.00  0.00     0.015 C 
BRANCH  10  11
HETATM   11  C8  UNK     1      11.885   5.456   7.809  1.00  0.00    -0.036 A 
HETATM   12  C11 UNK     1      10.637   5.388   8.427  1.00  0.00     0.011 A 
HETATM   13  C13 UNK     1       9.549   6.068   7.881  1.00  0.00     0.001 A 
HETATM   14  C15 UNK     1       9.709   6.817   6.715  1.00  0.00     0.000 A 
HETATM   15  C14 UNK     1      10.958   6.886   6.095  1.00  0.00     0.001 A 
HETATM   16  C12 UNK     1      12.045   6.205   6.643  1.00  0.00     0.011 A 
ENDBRANCH  10  11
ENDBRANCH   7   9
ENDBRANCH   1   7
BRANCH   2  17
HETATM   17  O2  UNK     1      13.387   9.149   8.548  1.00  0.00    -0.360 OA
HETATM   18  H11 UNK     1      12.955   9.814   9.107  1.00  0.00     0.217 HD
ENDBRANCH   2  17
BRANCH   4  19
HETATM   19  O1  UNK     1      17.962  10.223   9.336  1.00  0.00    -0.356 OA
HETATM   20  C16 UNK     1      17.795  11.315   8.433  1.00  0.00     0.210 C 
ENDBRANCH   4  19
TORSDOF 5
ENDMDL
MODEL 5
REMARK VINA RESULT:      -7.0      2.168      4.090
REMARK  5 active torsions:
REMARK  status: ('A' for Active; 'I' for Inactive)
REMARK    1  A    between atoms: C4_7  and  O1_1 
REMARK    2  A    between atoms: C2_5  and  O2_2 
REMARK    3  A    between atoms: C1_4  and  C5_8 
REMARK    4  A    between atoms: C5_8  and  C9_12 
REMARK    5  A    between atoms: C10_13  and  C8_11 
ROOT
HETATM    1  C1  UNK     1      18.858   2.250  30.187  1.00  0.00     0.047 A 
HETATM    2  C2  UNK     1      18.568   1.696  28.939  1.00  0.00     0.082 A 
HETATM    3  C3  UNK     1      19.568   1.509  31.131  1.00  0.00     0.021 A 
HETATM    4  C4  UNK     1      19.702  -0.339  29.580  1.00  0.00     0.070 A 
HETATM    5  C6  UNK     1      18.991   0.402  28.636  1.00  0.00     0.074 A 
HETATM    6  C7  UNK     1      19.991   0.215  30.828  1.00  0.00     0.038 A 
ENDROOT
BRANCH   1   7
HETATM    7  C5  UNK     1      18.418   3.624  30.530  1.00  0.00     0.184 C 
HETATM    8  O3  UNK     1      17.641   3.798  31.463  1.00  0.00    -0.287 OA
BRANCH   7   9
HETATM    9  C9  UNK     1      18.925   4.743  29.688  1.00  0.00     0.056 C 
HETATM   10  C10 UNK     1      19.140   5.962  30.231  1.00  0.00     0.015 C 
BRANCH  10  11
HETATM   11  C8  UNK     1      18.916   6.311  31.625  1.00  0.00    -0.036 A 
HETATM   12  C11 UNK     1      17.705   6.881  32.015  1.00  0.00     0.011 A 
HETATM   13  C13 UNK     1      17.489   7.216  33.351  1.00  0.00     0.001 A 
HETATM   14  C15 UNK     1      18.486   6.981  34.298  1.00  0.00     0.000 A 
HETATM   15  C14 UNK     1      19.698   6.410  33.909  1.00  0.00     0.001 A 
HETATM   16  C12 UNK     1      19.913   6.075  32.572  1.00  0.00     0.011 A 
ENDBRANCH  10  11
ENDBRANCH   7   9
ENDBRANCH   1   7
BRANCH   2  17
HETATM   17  O2  UNK     1      17.875   2.404  28.004  1.00  0.00    -0.360 OA
HETATM   18  H11 UNK     1      18.213   2.219  27.114  1.00  0.00     0.217 HD
ENDBRANCH   2  17
BRANCH   4  19
HETATM   19  O1  UNK     1      20.113  -1.603  29.285  1.00  0.00    -0.356 OA
HETATM   20  C16 UNK     1      20.491  -2.435  30.381  1.00  0.00     0.210 C 
ENDBRANCH   4  19
TORSDOF 5
ENDMDL
MODEL 6
REMARK VINA RESULT:      -7.0     22.391     24.429
REMARK  5 active torsions:
REMARK  status: ('A' for Active; 'I' for Inactive)
REMARK    1  A    between atoms: C4_7  and  O1_1 
REMARK    2  A    between atoms: C2_5  and  O2_2 
REMARK    3  A    between atoms: C1_4  and  C5_8 
REMARK    4  A    between atoms: C5_8  and  C9_12 
REMARK    5  A    between atoms: C10_13  and  C8_11 
ROOT
HETATM    1  C1  UNK     1      11.889   6.124   7.785  1.00  0.00     0.047 A 
HETATM    2  C2  UNK     1      11.255   6.223   6.546  1.00  0.00     0.082 A 
HETATM    3  C3  UNK     1      11.148   6.245   8.960  1.00  0.00     0.021 A 
HETATM    4  C4  UNK     1       9.137   6.561   7.659  1.00  0.00     0.070 A 
HETATM    5  C6  UNK     1       9.878   6.441   6.484  1.00  0.00     0.074 A 
HETATM    6  C7  UNK     1       9.772   6.463   8.897  1.00  0.00     0.038 A 
ENDROOT
BRANCH   1   7
HETATM    7  C5  UNK     1      13.351   5.893   7.874  1.00  0.00     0.184 C 
HETATM    8  O3  UNK     1      14.113   6.535   7.159  1.00  0.00    -0.287 OA
BRANCH   7   9
HETATM    9  C9  UNK     1      13.829   4.849   8.823  1.00  0.00     0.056 C 
HETATM   10  C10 UNK     1      14.676   5.172   9.825  1.00  0.00     0.015 C 
BRANCH  10  11
HETATM   11  C8  UNK     1      15.197   6.506  10.085  1.00  0.00    -0.036 A 
HETATM   12  C11 UNK     1      14.343   7.512  10.535  1.00  0.00     0.011 A 
HETATM   13  C13 UNK     1      14.841   8.790  10.784  1.00  0.00     0.001 A 
HETATM   14  C15 UNK     1      16.195   9.063  10.583  1.00  0.00     0.000 A 
HETATM   15  C14 UNK     1      17.049   8.056  10.132  1.00  0.00     0.001 A 
HETATM   16  C12 UNK     1      16.550   6.778   9.884  1.00  0.00     0.011 A 
ENDBRANCH  10  11
ENDBRANCH   7   9
ENDBRANCH   1   7
BRANCH   2  17
HETATM   17  O2  UNK     1      11.962   6.108   5.387  1.00  0.00    -0.360 OA
HETATM   18  H11 UNK     1      11.617   5.380   4.846  1.00  0.00     0.217 HD
ENDBRANCH   2  17
BRANCH   4  19
HETATM   19  O1  UNK     1       7.794   6.776   7.597  1.00  0.00    -0.356 OA
HETATM   20  C16 UNK     1       7.174   7.340   8.752  1.00  0.00     0.210 C 
ENDBRANCH   4  19
TORSDOF 5
ENDMDL
MODEL 7
REMARK VINA RESULT:      -7.0      4.813      7.457
REMARK  5 active torsions:
REMARK  status: ('A' for Active; 'I' for Inactive)
REMARK    1  A    between atoms: C4_7  and  O1_1 
REMARK    2  A    between atoms: C2_5  and  O2_2 
REMARK    3  A    between atoms: C1_4  and  C5_8 
REMARK    4  A    between atoms: C5_8  and  C9_12 
REMARK    5  A    between atoms: C10_13  and  C8_11 
ROOT
HETATM    1  C1  UNK     1      18.707  -0.336  33.774  1.00  0.00     0.047 A 
HETATM    2  C2  UNK     1      18.935  -0.985  34.988  1.00  0.00     0.082 A 
HETATM    3  C3  UNK     1      18.378   1.019  33.757  1.00  0.00     0.021 A 
HETATM    4  C4  UNK     1      18.506   1.079  36.169  1.00  0.00     0.070 A 
HETATM    5  C6  UNK     1      18.834  -0.276  36.186  1.00  0.00     0.074 A 
HETATM    6  C7  UNK     1      18.277   1.727  34.955  1.00  0.00     0.038 A 
ENDROOT
BRANCH   1   7
HETATM    7  C5  UNK     1      18.808  -1.070  32.489  1.00  0.00     0.184 C 
HETATM    8  O3  UNK     1      17.804  -1.570  31.994  1.00  0.00    -0.287 OA
BRANCH   7   9
HETATM    9  C9  UNK     1      20.156  -1.194  31.868  1.00  0.00     0.056 C 
HETATM   10  C10 UNK     1      20.476  -0.460  30.779  1.00  0.00     0.015 C 
BRANCH  10  11
HETATM   11  C8  UNK     1      19.593   0.487  30.117  1.00  0.00    -0.036 A 
HETATM   12  C11 UNK     1      19.307   1.712  30.719  1.00  0.00     0.011 A 
HETATM   13  C13 UNK     1      18.460   2.620  30.084  1.00  0.00     0.001 A 
HETATM   14  C15 UNK     1      17.899   2.304  28.847  1.00  0.00     0.000 A 
HETATM   15  C14 UNK     1      18.185   1.078  28.244  1.00  0.00     0.001 A 
HETATM   16  C12 UNK     1      19.032   0.170  28.879  1.00  0.00     0.011 A 
ENDBRANCH  10  11
ENDBRANCH   7   9
ENDBRANCH   1   7
BRANCH   2  17
HETATM   17  O2  UNK     1      19.257  -2.308  35.025  1.00  0.00    -0.360 OA
HETATM   18  H11 UNK     1      18.610  -2.832  34.528  1.00  0.00     0.217 HD
ENDBRANCH   2  17
BRANCH   4  19
HETATM   19  O1  UNK     1      18.406   1.769  37.338  1.00  0.00    -0.356 OA
HETATM   20  C16 UNK     1      17.494   1.265  38.313  1.00  0.00     0.210 C 
ENDBRANCH   4  19
TORSDOF 5
ENDMDL
MODEL 8
REMARK VINA RESULT:      -6.9      3.175      7.013
REMARK  5 active torsions:
REMARK  status: ('A' for Active; 'I' for Inactive)
REMARK    1  A    between atoms: C4_7  and  O1_1 
REMARK    2  A    between atoms: C2_5  and  O2_2 
REMARK    3  A    between atoms: C1_4  and  C5_8 
REMARK    4  A    between atoms: C5_8  and  C9_12 
REMARK    5  A    between atoms: C10_13  and  C8_11 
ROOT
HETATM    1  C1  UNK     1      15.634   9.159  33.047  1.00  0.00     0.047 A 
HETATM    2  C2  UNK     1      16.702   9.867  33.600  1.00  0.00     0.082 A 
HETATM    3  C3  UNK     1      14.345   9.335  33.550  1.00  0.00     0.021 A 
HETATM    4  C4  UNK     1      15.190  10.926  35.159  1.00  0.00     0.070 A 
HETATM    5  C6  UNK     1      16.478  10.751  34.656  1.00  0.00     0.074 A 
HETATM    6  C7  UNK     1      14.122  10.218  34.606  1.00  0.00     0.038 A 
ENDROOT
BRANCH   1   7
HETATM    7  C5  UNK     1      15.848   8.215  31.924  1.00  0.00     0.184 C 
HETATM    8  O3  UNK     1      16.314   8.623  30.866  1.00  0.00    -0.287 OA
BRANCH   7   9
HETATM    9  C9  UNK     1      15.448   6.795  32.130  1.00  0.00     0.056 C 
HETATM   10  C10 UNK     1      16.375   5.863  32.444  1.00  0.00     0.015 C 
BRANCH  10  11
HETATM   11  C8  UNK     1      17.798   6.118  32.611  1.00  0.00    -0.036 A 
HETATM   12  C11 UNK     1      18.302   6.458  33.866  1.00  0.00     0.011 A 
HETATM   13  C13 UNK     1      19.666   6.702  34.026  1.00  0.00     0.001 A 
HETATM   14  C15 UNK     1      20.525   6.608  32.931  1.00  0.00     0.000 A 
HETATM   15  C14 UNK     1      20.020   6.269  31.676  1.00  0.00     0.001 A 
HETATM   16  C12 UNK     1      18.657   6.024  31.516  1.00  0.00     0.011 A 
ENDBRANCH  10  11
ENDBRANCH   7   9
ENDBRANCH   1   7
BRANCH   2  17
HETATM   17  O2  UNK     1      17.968   9.709  33.123  1.00  0.00    -0.360 OA
HETATM   18  H11 UNK     1      18.278   8.801  33.266  1.00  0.00     0.217 HD
ENDBRANCH   2  17
BRANCH   4  19
HETATM   19  O1  UNK     1      14.973  11.787  36.191  1.00  0.00    -0.356 OA
HETATM   20  C16 UNK     1      13.811  11.564  36.989  1.00  0.00     0.210 C 
ENDBRANCH   4  19
TORSDOF 5
ENDMDL
MODEL 9
REMARK VINA RESULT:      -6.9      1.739      2.359
REMARK  5 active torsions:
REMARK  status: ('A' for Active; 'I' for Inactive)
REMARK    1  A    between atoms: C4_7  and  O1_1 
REMARK    2  A    between atoms: C2_5  and  O2_2 
REMARK    3  A    between atoms: C1_4  and  C5_8 
REMARK    4  A    between atoms: C5_8  and  C9_12 
REMARK    5  A    between atoms: C10_13  and  C8_11 
ROOT
HETATM    1  C1  UNK     1      18.539   5.304  31.634  1.00  0.00     0.047 A 
HETATM    2  C2  UNK     1      18.901   4.946  30.335  1.00  0.00     0.082 A 
HETATM    3  C3  UNK     1      18.150   4.324  32.546  1.00  0.00     0.021 A 
HETATM    4  C4  UNK     1      18.486   2.625  30.862  1.00  0.00     0.070 A 
HETATM    5  C6  UNK     1      18.875   3.605  29.950  1.00  0.00     0.074 A 
HETATM    6  C7  UNK     1      18.123   2.984  32.160  1.00  0.00     0.038 A 
ENDROOT
BRANCH   1   7
HETATM    7  C5  UNK     1      18.560   6.723  32.065  1.00  0.00     0.184 C 
HETATM    8  O3  UNK     1      18.063   7.584  31.346  1.00  0.00    -0.287 OA
BRANCH   7   9
HETATM    9  C9  UNK     1      19.224   7.043  33.359  1.00  0.00     0.056 C 
HETATM   10  C10 UNK     1      18.542   7.678  34.338  1.00  0.00     0.015 C 
BRANCH  10  11
HETATM   11  C8  UNK     1      17.153   8.102  34.253  1.00  0.00    -0.036 A 
HETATM   12  C11 UNK     1      16.131   7.154  34.280  1.00  0.00     0.011 A 
HETATM   13  C13 UNK     1      14.799   7.561  34.198  1.00  0.00     0.001 A 
HETATM   14  C15 UNK     1      14.490   8.917  34.089  1.00  0.00     0.000 A 
HETATM   15  C14 UNK     1      15.512   9.866  34.062  1.00  0.00     0.001 A 
HETATM   16  C12 UNK     1      16.843   9.458  34.144  1.00  0.00     0.011 A 
ENDBRANCH  10  11
ENDBRANCH   7   9
ENDBRANCH   1   7
BRANCH   2  17
HETATM   17  O2  UNK     1      19.284   5.889  29.430  1.00  0.00    -0.360 OA
HETATM   18  H11 UNK     1      18.887   6.749  29.642  1.00  0.00     0.217 HD
ENDBRANCH   2  17
BRANCH   4  19
HETATM   19  O1  UNK     1      18.459   1.317  30.484  1.00  0.00    -0.356 OA
HETATM   20  C16 UNK     1      19.170   0.970  29.297  1.00  0.00     0.210 C 
ENDBRANCH   4  19
TORSDOF 5
ENDMDL
MODEL 10
REMARK VINA RESULT:      -6.9      3.414      7.076
REMARK  5 active torsions:
REMARK  status: ('A' for Active; 'I' for Inactive)
REMARK    1  A    between atoms: C4_7  and  O1_1 
REMARK    2  A    between atoms: C2_5  and  O2_2 
REMARK    3  A    between atoms: C1_4  and  C5_8 
REMARK    4  A    between atoms: C5_8  and  C9_12 
REMARK    5  A    between atoms: C10_13  and  C8_11 
ROOT
HETATM    1  C1  UNK     1      15.928   9.184  32.916  1.00  0.00     0.047 A 
HETATM    2  C2  UNK     1      14.697   9.702  33.321  1.00  0.00     0.082 A 
HETATM    3  C3  UNK     1      17.106   9.642  33.505  1.00  0.00     0.021 A 
HETATM    4  C4  UNK     1      15.824  11.134  34.908  1.00  0.00     0.070 A 
HETATM    5  C6  UNK     1      14.646  10.676  34.318  1.00  0.00     0.074 A 
HETATM    6  C7  UNK     1      17.054  10.617  34.501  1.00  0.00     0.038 A 
ENDROOT
BRANCH   1   7
HETATM    7  C5  UNK     1      16.006   8.148  31.858  1.00  0.00     0.184 C 
HETATM    8  O3  UNK     1      16.363   8.459  30.727  1.00  0.00    -0.287 OA
BRANCH   7   9
HETATM    9  C9  UNK     1      15.607   6.759  32.220  1.00  0.00     0.056 C 
HETATM   10  C10 UNK     1      16.548   5.822  32.468  1.00  0.00     0.015 C 
BRANCH  10  11
HETATM   11  C8  UNK     1      17.985   6.041  32.416  1.00  0.00    -0.036 A 
HETATM   12  C11 UNK     1      18.683   5.811  31.231  1.00  0.00     0.011 A 
HETATM   13  C13 UNK     1      20.060   6.021  31.180  1.00  0.00     0.001 A 
HETATM   14  C15 UNK     1      20.741   6.462  32.316  1.00  0.00     0.000 A 
HETATM   15  C14 UNK     1      20.043   6.692  33.502  1.00  0.00     0.001 A 
HETATM   16  C12 UNK     1      18.665   6.482  33.551  1.00  0.00     0.011 A 
ENDBRANCH  10  11
ENDBRANCH   7   9
ENDBRANCH   1   7
BRANCH   2  17
HETATM   17  O2  UNK     1      13.535   9.268  32.757  1.00  0.00    -0.360 OA
HETATM   18  H11 UNK     1      12.832   9.208  33.423  1.00  0.00     0.217 HD
ENDBRANCH   2  17
BRANCH   4  19
HETATM   19  O1  UNK     1      15.773  12.087  35.879  1.00  0.00    -0.356 OA
HETATM   20  C16 UNK     1      16.671  13.189  35.753  1.00  0.00     0.210 C 
ENDBRANCH   4  19
TORSDOF 5
ENDMDL
