MODEL 1
REMARK VINA RESULT:      -8.3      0.000      0.000
REMARK  3 active torsions:
REMARK  status: ('A' for Active; 'I' for Inactive)
REMARK    1  A    between atoms: C9_13  and  O3_3 
REMARK    2  A    between atoms: C13_17  and  O4_4 
REMARK    3  A    between atoms: C5_9  and  C6_10 
ROOT
HETATM    1  O1  UNK     1      19.432   2.077  31.025  1.00  0.00    -0.306 OA
HETATM    2  O2  UNK     1      17.941   2.308  27.821  1.00  0.00    -0.284 OA
HETATM    3  C1  UNK     1      19.091   0.711  29.194  1.00  0.00     0.051 A 
HETATM    4  C2  UNK     1      19.617   0.829  30.478  1.00  0.00     0.093 A 
HETATM    5  C3  UNK     1      18.754   2.814  30.060  1.00  0.00     0.127 A 
HETATM    6  C4  UNK     1      18.498   1.998  28.848  1.00  0.00     0.218 A 
HETATM    7  C5  UNK     1      18.381   4.087  30.202  1.00  0.00     0.053 C 
HETATM    8  C7  UNK     1      19.168  -0.457  28.464  1.00  0.00     0.021 A 
HETATM    9  C8  UNK     1      20.249  -0.232  31.090  1.00  0.00     0.074 A 
HETATM   10  C9  UNK     1      20.341  -1.429  30.372  1.00  0.00     0.068 A 
HETATM   11  C10 UNK     1      19.806  -1.540  29.072  1.00  0.00     0.037 A 
ENDROOT
BRANCH   7  12
HETATM   12  C6  UNK     1      18.624   4.883  31.371  1.00  0.00    -0.033 A 
HETATM   13  C11 UNK     1      17.749   4.832  32.468  1.00  0.00     0.014 A 
HETATM   14  C14 UNK     1      17.986   5.607  33.604  1.00  0.00     0.037 A 
HETATM   15  C13 UNK     1      19.100   6.443  33.658  1.00  0.00     0.068 A 
HETATM   16  C15 UNK     1      19.980   6.505  32.577  1.00  0.00     0.037 A 
HETATM   17  C12 UNK     1      19.743   5.730  31.441  1.00  0.00     0.014 A 
BRANCH  15  18
HETATM   18  O4  UNK     1      19.332   7.198  34.767  1.00  0.00    -0.356 OA
HETATM   19  C16 UNK     1      19.670   8.569  34.561  1.00  0.00     0.210 C 
ENDBRANCH  15  18
ENDBRANCH   7  12
BRANCH  10  20
HETATM   20  O3  UNK     1      20.958  -2.506  30.936  1.00  0.00    -0.361 OA
HETATM   21  H9  UNK     1      21.367  -2.232  31.775  1.00  0.00     0.217 HD
ENDBRANCH  10  20
TORSDOF 3
ENDMDL
MODEL 2
REMARK VINA RESULT:      -8.0     12.733     16.833
REMARK  3 active torsions:
REMARK  status: ('A' for Active; 'I' for Inactive)
REMARK    1  A    between atoms: C9_13  and  O3_3 
REMARK    2  A    between atoms: C13_17  and  O4_4 
REMARK    3  A    between atoms: C5_9  and  C6_10 
ROOT
HETATM    1  O1  UNK     1      19.217  -0.547  16.996  1.00  0.00    -0.306 OA
HETATM    2  O2  UNK     1      19.250   2.599  15.369  1.00  0.00    -0.284 OA
HETATM    3  C1  UNK     1      19.190   1.686  17.587  1.00  0.00     0.051 A 
HETATM    4  C2  UNK     1      19.182   0.364  18.027  1.00  0.00     0.093 A 
HETATM    5  C3  UNK     1      19.248   0.207  15.828  1.00  0.00     0.127 A 
HETATM    6  C4  UNK     1      19.233   1.659  16.130  1.00  0.00     0.218 A 
HETATM    7  C5  UNK     1      19.287  -0.305  14.597  1.00  0.00     0.053 C 
HETATM    8  C7  UNK     1      19.160   2.756  18.457  1.00  0.00     0.021 A 
HETATM    9  C8  UNK     1      19.145   0.058  19.370  1.00  0.00     0.074 A 
HETATM   10  C9  UNK     1      19.114   1.126  20.273  1.00  0.00     0.068 A 
HETATM   11  C10 UNK     1      19.122   2.461  19.821  1.00  0.00     0.037 A 
ENDROOT
BRANCH   7  12
HETATM   12  C6  UNK     1      19.302  -1.708  14.296  1.00  0.00    -0.033 A 
HETATM   13  C11 UNK     1      18.221  -2.530  14.654  1.00  0.00     0.014 A 
HETATM   14  C14 UNK     1      18.237  -3.894  14.361  1.00  0.00     0.037 A 
HETATM   15  C13 UNK     1      19.334  -4.454  13.708  1.00  0.00     0.068 A 
HETATM   16  C15 UNK     1      20.415  -3.652  13.346  1.00  0.00     0.037 A 
HETATM   17  C12 UNK     1      20.400  -2.288  13.638  1.00  0.00     0.014 A 
BRANCH  15  18
HETATM   18  O4  UNK     1      19.348  -5.786  13.421  1.00  0.00    -0.356 OA
HETATM   19  C16 UNK     1      20.406  -6.560  13.984  1.00  0.00     0.210 C 
ENDBRANCH  15  18
ENDBRANCH   7  12
BRANCH  10  20
HETATM   20  O3  UNK     1      19.075   0.873  21.613  1.00  0.00    -0.361 OA
HETATM   21  H9  UNK     1      18.199   1.118  21.955  1.00  0.00     0.217 HD
ENDBRANCH  10  20
TORSDOF 3
ENDMDL
MODEL 3
REMARK VINA RESULT:      -8.0      1.254      1.993
REMARK  3 active torsions:
REMARK  status: ('A' for Active; 'I' for Inactive)
REMARK    1  A    between atoms: C9_13  and  O3_3 
REMARK    2  A    between atoms: C13_17  and  O4_4 
REMARK    3  A    between atoms: C5_9  and  C6_10 
ROOT
HETATM    1  O1  UNK     1      19.667   1.132  31.158  1.00  0.00    -0.306 OA
HETATM    2  O2  UNK     1      19.011   0.253  27.790  1.00  0.00    -0.284 OA
HETATM    3  C1  UNK     1      19.840  -0.737  29.812  1.00  0.00     0.051 A 
HETATM    4  C2  UNK     1      20.027  -0.194  31.081  1.00  0.00     0.093 A 
HETATM    5  C3  UNK     1      19.224   1.476  29.885  1.00  0.00     0.127 A 
HETATM    6  C4  UNK     1      19.306   0.319  28.961  1.00  0.00     0.218 A 
HETATM    7  C5  UNK     1      18.783   2.686  29.539  1.00  0.00     0.053 C 
HETATM    8  C7  UNK     1      20.137  -2.052  29.517  1.00  0.00     0.021 A 
HETATM    9  C8  UNK     1      20.524  -0.954  32.117  1.00  0.00     0.074 A 
HETATM   10  C9  UNK     1      20.834  -2.291  31.845  1.00  0.00     0.068 A 
HETATM   11  C10 UNK     1      20.642  -2.833  30.558  1.00  0.00     0.037 A 
ENDROOT
BRANCH   7  12
HETATM   12  C6  UNK     1      18.699   3.810  30.427  1.00  0.00    -0.033 A 
HETATM   13  C11 UNK     1      19.289   5.038  30.086  1.00  0.00     0.014 A 
HETATM   14  C14 UNK     1      19.208   6.131  30.950  1.00  0.00     0.037 A 
HETATM   15  C13 UNK     1      18.537   6.010  32.166  1.00  0.00     0.068 A 
HETATM   16  C15 UNK     1      17.945   4.797  32.520  1.00  0.00     0.037 A 
HETATM   17  C12 UNK     1      18.026   3.704  31.656  1.00  0.00     0.014 A 
BRANCH  15  18
HETATM   18  O4  UNK     1      18.456   7.077  33.008  1.00  0.00    -0.356 OA
HETATM   19  C16 UNK     1      19.273   7.044  34.178  1.00  0.00     0.210 C 
ENDBRANCH  15  18
ENDBRANCH   7  12
BRANCH  10  20
HETATM   20  O3  UNK     1      21.330  -3.082  32.839  1.00  0.00    -0.361 OA
HETATM   21  H9  UNK     1      20.598  -3.583  33.237  1.00  0.00     0.217 HD
ENDBRANCH  10  20
TORSDOF 3
ENDMDL
MODEL 4
REMARK VINA RESULT:      -7.9      3.207      8.662
REMARK  3 active torsions:
REMARK  status: ('A' for Active; 'I' for Inactive)
REMARK    1  A    between atoms: C9_13  and  O3_3 
REMARK    2  A    between atoms: C13_17  and  O4_4 
REMARK    3  A    between atoms: C5_9  and  C6_10 
ROOT
HETATM    1  O1  UNK     1      16.730   7.443  32.537  1.00  0.00    -0.306 OA
HETATM    2  O2  UNK     1      19.248   9.295  34.202  1.00  0.00    -0.284 OA
HETATM    3  C1  UNK     1      16.929   9.476  33.616  1.00  0.00     0.051 A 
HETATM    4  C2  UNK     1      16.093   8.597  32.930  1.00  0.00     0.093 A 
HETATM    5  C3  UNK     1      18.042   7.566  32.983  1.00  0.00     0.127 A 
HETATM    6  C4  UNK     1      18.245   8.855  33.689  1.00  0.00     0.218 A 
HETATM    7  C5  UNK     1      18.993   6.649  32.801  1.00  0.00     0.053 C 
HETATM    8  C7  UNK     1      16.490  10.692  34.098  1.00  0.00     0.021 A 
HETATM    9  C8  UNK     1      14.770   8.905  32.698  1.00  0.00     0.074 A 
HETATM   10  C9  UNK     1      14.300  10.132  33.177  1.00  0.00     0.068 A 
HETATM   11  C10 UNK     1      15.151  11.016  33.870  1.00  0.00     0.037 A 
ENDROOT
BRANCH   7  12
HETATM   12  C6  UNK     1      18.804   5.401  32.120  1.00  0.00    -0.033 A 
HETATM   13  C11 UNK     1      18.264   4.292  32.791  1.00  0.00     0.014 A 
HETATM   14  C14 UNK     1      18.081   3.078  32.128  1.00  0.00     0.037 A 
HETATM   15  C13 UNK     1      18.436   2.957  30.785  1.00  0.00     0.068 A 
HETATM   16  C15 UNK     1      18.974   4.049  30.104  1.00  0.00     0.037 A 
HETATM   17  C12 UNK     1      19.157   5.263  30.767  1.00  0.00     0.014 A 
BRANCH  15  18
HETATM   18  O4  UNK     1      18.256   1.773  30.138  1.00  0.00    -0.356 OA
HETATM   19  C16 UNK     1      17.881   1.835  28.762  1.00  0.00     0.210 C 
ENDBRANCH  15  18
ENDBRANCH   7  12
BRANCH  10  20
HETATM   20  O3  UNK     1      12.997  10.480  32.970  1.00  0.00    -0.361 OA
HETATM   21  H9  UNK     1      12.874  10.698  32.030  1.00  0.00     0.217 HD
ENDBRANCH  10  20
TORSDOF 3
ENDMDL
MODEL 5
REMARK VINA RESULT:      -7.7      3.568      4.559
REMARK  3 active torsions:
REMARK  status: ('A' for Active; 'I' for Inactive)
REMARK    1  A    between atoms: C9_13  and  O3_3 
REMARK    2  A    between atoms: C13_17  and  O4_4 
REMARK    3  A    between atoms: C5_9  and  C6_10 
ROOT
HETATM    1  O1  UNK     1      18.155   3.381  34.530  1.00  0.00    -0.306 OA
HETATM    2  O2  UNK     1      18.434   1.175  31.774  1.00  0.00    -0.284 OA
HETATM    3  C1  UNK     1      18.282   1.104  34.167  1.00  0.00     0.051 A 
HETATM    4  C2  UNK     1      18.175   2.131  35.102  1.00  0.00     0.093 A 
HETATM    5  C3  UNK     1      18.252   3.169  33.159  1.00  0.00     0.127 A 
HETATM    6  C4  UNK     1      18.339   1.722  32.848  1.00  0.00     0.218 A 
HETATM    7  C5  UNK     1      18.267   4.138  32.242  1.00  0.00     0.053 C 
HETATM    8  C7  UNK     1      18.320  -0.227  34.529  1.00  0.00     0.021 A 
HETATM    9  C8  UNK     1      18.100   1.863  36.452  1.00  0.00     0.074 A 
HETATM   10  C9  UNK     1      18.136   0.521  36.846  1.00  0.00     0.068 A 
HETATM   11  C10 UNK     1      18.244  -0.513  35.893  1.00  0.00     0.037 A 
ENDROOT
BRANCH   7  12
HETATM   12  C6  UNK     1      18.183   5.541  32.534  1.00  0.00    -0.033 A 
HETATM   13  C11 UNK     1      19.327   6.264  32.910  1.00  0.00     0.014 A 
HETATM   14  C14 UNK     1      19.245   7.628  33.194  1.00  0.00     0.037 A 
HETATM   15  C13 UNK     1      18.019   8.286  33.106  1.00  0.00     0.068 A 
HETATM   16  C15 UNK     1      16.874   7.582  32.734  1.00  0.00     0.037 A 
HETATM   17  C12 UNK     1      16.956   6.218  32.450  1.00  0.00     0.014 A 
BRANCH  15  18
HETATM   18  O4  UNK     1      17.940   9.617  33.382  1.00  0.00    -0.356 OA
HETATM   19  C16 UNK     1      16.752  10.077  34.026  1.00  0.00     0.210 C 
ENDBRANCH  15  18
ENDBRANCH   7  12
BRANCH  10  20
HETATM   20  O3  UNK     1      18.065   0.206  38.171  1.00  0.00    -0.361 OA
HETATM   21  H9  UNK     1      18.955   0.269  38.558  1.00  0.00     0.217 HD
ENDBRANCH  10  20
TORSDOF 3
ENDMDL
MODEL 6
REMARK VINA RESULT:      -7.5      2.618      3.104
REMARK  3 active torsions:
REMARK  status: ('A' for Active; 'I' for Inactive)
REMARK    1  A    between atoms: C9_13  and  O3_3 
REMARK    2  A    between atoms: C13_17  and  O4_4 
REMARK    3  A    between atoms: C5_9  and  C6_10 
ROOT
HETATM    1  O1  UNK     1      17.987   3.018  33.285  1.00  0.00    -0.306 OA
HETATM    2  O2  UNK     1      19.004   2.604  29.919  1.00  0.00    -0.284 OA
HETATM    3  C1  UNK     1      18.684   1.301  31.908  1.00  0.00     0.051 A 
HETATM    4  C2  UNK     1      18.261   1.674  33.181  1.00  0.00     0.093 A 
HETATM    5  C3  UNK     1      18.240   3.553  32.027  1.00  0.00     0.127 A 
HETATM    6  C4  UNK     1      18.695   2.503  31.084  1.00  0.00     0.218 A 
HETATM    7  C5  UNK     1      18.095   4.840  31.708  1.00  0.00     0.053 C 
HETATM    8  C7  UNK     1      19.011  -0.001  31.587  1.00  0.00     0.021 A 
HETATM    9  C8  UNK     1      18.146   0.748  34.195  1.00  0.00     0.074 A 
HETATM   10  C9  UNK     1      18.470  -0.579  33.897  1.00  0.00     0.068 A 
HETATM   11  C10 UNK     1      18.898  -0.949  32.605  1.00  0.00     0.037 A 
ENDROOT
BRANCH   7  12
HETATM   12  C6  UNK     1      17.655   5.862  32.615  1.00  0.00    -0.033 A 
HETATM   13  C11 UNK     1      16.372   6.420  32.498  1.00  0.00     0.014 A 
HETATM   14  C14 UNK     1      15.945   7.413  33.380  1.00  0.00     0.037 A 
HETATM   15  C13 UNK     1      16.796   7.863  34.389  1.00  0.00     0.068 A 
HETATM   16  C15 UNK     1      18.074   7.319  34.518  1.00  0.00     0.037 A 
HETATM   17  C12 UNK     1      18.501   6.325  33.637  1.00  0.00     0.014 A 
BRANCH  15  18
HETATM   18  O4  UNK     1      16.378   8.831  35.250  1.00  0.00    -0.356 OA
HETATM   19  C16 UNK     1      15.309   9.670  34.815  1.00  0.00     0.210 C 
ENDBRANCH  15  18
ENDBRANCH   7  12
BRANCH  10  20
HETATM   20  O3  UNK     1      18.372  -1.531  34.869  1.00  0.00    -0.361 OA
HETATM   21  H9  UNK     1      19.250  -1.923  35.015  1.00  0.00     0.217 HD
ENDBRANCH  10  20
TORSDOF 3
ENDMDL
MODEL 7
REMARK VINA RESULT:      -7.5      7.871     10.245
REMARK  3 active torsions:
REMARK  status: ('A' for Active; 'I' for Inactive)
REMARK    1  A    between atoms: C9_13  and  O3_3 
REMARK    2  A    between atoms: C13_17  and  O4_4 
REMARK    3  A    between atoms: C5_9  and  C6_10 
ROOT
HETATM    1  O1  UNK     1      19.474  -5.298  37.111  1.00  0.00    -0.306 OA
HETATM    2  O2  UNK     1      22.769  -5.067  38.388  1.00  0.00    -0.284 OA
HETATM    3  C1  UNK     1      20.993  -6.666  38.185  1.00  0.00     0.051 A 
HETATM    4  C2  UNK     1      19.722  -6.549  37.626  1.00  0.00     0.093 A 
HETATM    5  C3  UNK     1      20.630  -4.559  37.341  1.00  0.00     0.127 A 
HETATM    6  C4  UNK     1      21.656  -5.378  38.032  1.00  0.00     0.218 A 
HETATM    7  C5  UNK     1      20.796  -3.284  36.988  1.00  0.00     0.053 C 
HETATM    8  C7  UNK     1      21.445  -7.837  38.757  1.00  0.00     0.021 A 
HETATM    9  C8  UNK     1      18.845  -7.612  37.616  1.00  0.00     0.074 A 
HETATM   10  C9  UNK     1      19.280  -8.811  38.189  1.00  0.00     0.068 A 
HETATM   11  C10 UNK     1      20.567  -8.923  38.754  1.00  0.00     0.037 A 
ENDROOT
BRANCH   7  12
HETATM   12  C6  UNK     1      19.809  -2.485  36.320  1.00  0.00    -0.033 A 
HETATM   13  C11 UNK     1      19.939  -2.178  34.956  1.00  0.00     0.014 A 
HETATM   14  C14 UNK     1      18.979  -1.401  34.307  1.00  0.00     0.037 A 
HETATM   15  C13 UNK     1      17.876  -0.922  35.013  1.00  0.00     0.068 A 
HETATM   16  C15 UNK     1      17.731  -1.219  36.368  1.00  0.00     0.037 A 
HETATM   17  C12 UNK     1      18.692  -1.996  37.017  1.00  0.00     0.014 A 
BRANCH  15  18
HETATM   18  O4  UNK     1      16.938  -0.166  34.378  1.00  0.00    -0.356 OA
HETATM   19  C16 UNK     1      15.799   0.230  35.141  1.00  0.00     0.210 C 
ENDBRANCH  15  18
ENDBRANCH   7  12
BRANCH  10  20
HETATM   20  O3  UNK     1      18.446  -9.891  38.204  1.00  0.00    -0.361 OA
HETATM   21  H9  UNK     1      18.839 -10.585  38.760  1.00  0.00     0.217 HD
ENDBRANCH  10  20
TORSDOF 3
ENDMDL
MODEL 8
REMARK VINA RESULT:      -7.3      7.468     10.915
REMARK  3 active torsions:
REMARK  status: ('A' for Active; 'I' for Inactive)
REMARK    1  A    between atoms: C9_13  and  O3_3 
REMARK    2  A    between atoms: C13_17  and  O4_4 
REMARK    3  A    between atoms: C5_9  and  C6_10 
ROOT
HETATM    1  O1  UNK     1      18.815  -2.525  37.092  1.00  0.00    -0.306 OA
HETATM    2  O2  UNK     1      20.226  -1.893  33.906  1.00  0.00    -0.284 OA
HETATM    3  C1  UNK     1      18.902  -0.787  35.574  1.00  0.00     0.051 A 
HETATM    4  C2  UNK     1      18.437  -1.233  36.808  1.00  0.00     0.093 A 
HETATM    5  C3  UNK     1      19.562  -2.948  35.998  1.00  0.00     0.127 A 
HETATM    6  C4  UNK     1      19.661  -1.878  34.975  1.00  0.00     0.218 A 
HETATM    7  C5  UNK     1      20.116  -4.155  35.880  1.00  0.00     0.053 C 
HETATM    8  C7  UNK     1      18.636   0.479  35.095  1.00  0.00     0.021 A 
HETATM    9  C8  UNK     1      17.679  -0.419  37.622  1.00  0.00     0.074 A 
HETATM   10  C9  UNK     1      17.395   0.870  37.161  1.00  0.00     0.068 A 
HETATM   11  C10 UNK     1      17.869   1.315  35.910  1.00  0.00     0.037 A 
ENDROOT
BRANCH   7  12
HETATM   12  C6  UNK     1      20.025  -5.195  36.865  1.00  0.00    -0.033 A 
HETATM   13  C11 UNK     1      18.971  -6.122  36.833  1.00  0.00     0.014 A 
HETATM   14  C14 UNK     1      18.883  -7.133  37.791  1.00  0.00     0.037 A 
HETATM   15  C13 UNK     1      19.847  -7.230  38.793  1.00  0.00     0.068 A 
HETATM   16  C15 UNK     1      20.901  -6.317  38.838  1.00  0.00     0.037 A 
HETATM   17  C12 UNK     1      20.990  -5.306  37.880  1.00  0.00     0.014 A 
BRANCH  15  18
HETATM   18  O4  UNK     1      19.762  -8.218  39.726  1.00  0.00    -0.356 OA
HETATM   19  C16 UNK     1      20.082  -9.542  39.301  1.00  0.00     0.210 C 
ENDBRANCH  15  18
ENDBRANCH   7  12
BRANCH  10  20
HETATM   20  O3  UNK     1      16.648   1.711  37.931  1.00  0.00    -0.361 OA
HETATM   21  H9  UNK     1      16.963   2.622  37.801  1.00  0.00     0.217 HD
ENDBRANCH  10  20
TORSDOF 3
ENDMDL
MODEL 9
REMARK VINA RESULT:      -7.3     13.447     16.234
REMARK  3 active torsions:
REMARK  status: ('A' for Active; 'I' for Inactive)
REMARK    1  A    between atoms: C9_13  and  O3_3 
REMARK    2  A    between atoms: C13_17  and  O4_4 
REMARK    3  A    between atoms: C5_9  and  C6_10 
ROOT
HETATM    1  O1  UNK     1      19.585  -0.955  14.791  1.00  0.00    -0.306 OA
HETATM    2  O2  UNK     1      17.825  -3.947  15.494  1.00  0.00    -0.284 OA
HETATM    3  C1  UNK     1      19.082  -2.938  13.717  1.00  0.00     0.051 A 
HETATM    4  C2  UNK     1      19.717  -1.700  13.642  1.00  0.00     0.093 A 
HETATM    5  C3  UNK     1      18.831  -1.736  15.661  1.00  0.00     0.127 A 
HETATM    6  C4  UNK     1      18.469  -3.031  15.037  1.00  0.00     0.218 A 
HETATM    7  C5  UNK     1      18.479  -1.370  16.894  1.00  0.00     0.053 C 
HETATM    8  C7  UNK     1      19.092  -3.841  12.675  1.00  0.00     0.021 A 
HETATM    9  C8  UNK     1      20.395  -1.313  12.506  1.00  0.00     0.074 A 
HETATM   10  C9  UNK     1      20.420  -2.211  11.433  1.00  0.00     0.068 A 
HETATM   11  C10 UNK     1      19.775  -3.462  11.517  1.00  0.00     0.037 A 
ENDROOT
BRANCH   7  12
HETATM   12  C6  UNK     1      18.825  -0.119  17.505  1.00  0.00    -0.033 A 
HETATM   13  C11 UNK     1      19.063  -0.037  18.887  1.00  0.00     0.014 A 
HETATM   14  C14 UNK     1      19.399   1.180  19.481  1.00  0.00     0.037 A 
HETATM   15  C13 UNK     1      19.502   2.331  18.701  1.00  0.00     0.068 A 
HETATM   16  C15 UNK     1      19.270   2.267  17.327  1.00  0.00     0.037 A 
HETATM   17  C12 UNK     1      18.933   1.050  16.733  1.00  0.00     0.014 A 
BRANCH  15  18
HETATM   18  O4  UNK     1      19.832   3.519  19.281  1.00  0.00    -0.356 OA
HETATM   19  C16 UNK     1      20.667   4.398  18.528  1.00  0.00     0.210 C 
ENDBRANCH  15  18
ENDBRANCH   7  12
BRANCH  10  20
HETATM   20  O3  UNK     1      21.078  -1.872  10.288  1.00  0.00    -0.361 OA
HETATM   21  H9  UNK     1      20.565  -1.191   9.820  1.00  0.00     0.217 HD
ENDBRANCH  10  20
TORSDOF 3
ENDMDL
MODEL 10
REMARK VINA RESULT:      -7.2      2.847      8.039
REMARK  3 active torsions:
REMARK  status: ('A' for Active; 'I' for Inactive)
REMARK    1  A    between atoms: C9_13  and  O3_3 
REMARK    2  A    between atoms: C13_17  and  O4_4 
REMARK    3  A    between atoms: C5_9  and  C6_10 
ROOT
HETATM    1  O1  UNK     1      16.625   5.800  32.013  1.00  0.00    -0.306 OA
HETATM    2  O2  UNK     1      18.659   6.745  34.754  1.00  0.00    -0.284 OA
HETATM    3  C1  UNK     1      16.587   7.363  33.713  1.00  0.00     0.051 A 
HETATM    4  C2  UNK     1      15.940   6.841  32.596  1.00  0.00     0.093 A 
HETATM    5  C3  UNK     1      17.772   5.628  32.780  1.00  0.00     0.127 A 
HETATM    6  C4  UNK     1      17.817   6.603  33.897  1.00  0.00     0.218 A 
HETATM    7  C5  UNK     1      18.710   4.709  32.544  1.00  0.00     0.053 C 
HETATM    8  C7  UNK     1      16.072   8.412  34.446  1.00  0.00     0.021 A 
HETATM    9  C8  UNK     1      14.736   7.355  32.163  1.00  0.00     0.074 A 
HETATM   10  C9  UNK     1      14.192   8.419  32.888  1.00  0.00     0.068 A 
HETATM   11  C10 UNK     1      14.853   8.942  34.019  1.00  0.00     0.037 A 
ENDROOT
BRANCH   7  12
HETATM   12  C6  UNK     1      18.673   3.763  31.466  1.00  0.00    -0.033 A 
HETATM   13  C11 UNK     1      18.551   2.388  31.724  1.00  0.00     0.014 A 
HETATM   14  C14 UNK     1      18.516   1.467  30.675  1.00  0.00     0.037 A 
HETATM   15  C13 UNK     1      18.603   1.911  29.356  1.00  0.00     0.068 A 
HETATM   16  C15 UNK     1      18.725   3.273  29.083  1.00  0.00     0.037 A 
HETATM   17  C12 UNK     1      18.760   4.193  30.132  1.00  0.00     0.014 A 
BRANCH  15  18
HETATM   18  O4  UNK     1      18.567   1.013  28.333  1.00  0.00    -0.356 OA
HETATM   19  C16 UNK     1      19.374  -0.157  28.467  1.00  0.00     0.210 C 
ENDBRANCH  15  18
ENDBRANCH   7  12
BRANCH  10  20
HETATM   20  O3  UNK     1      13.003   8.961  32.498  1.00  0.00    -0.361 OA
HETATM   21  H9  UNK     1      12.769   9.681  33.108  1.00  0.00     0.217 HD
ENDBRANCH  10  20
TORSDOF 3
ENDMDL
