MODEL 1
REMARK VINA RESULT:     -10.1      0.000      0.000
REMARK  7 active torsions:
REMARK  status: ('A' for Active; 'I' for Inactive)
REMARK    1  A    between atoms: C20_28  and  O4_5 
REMARK    2  A    between atoms: C5_13  and  N1_6 
REMARK    3  A    between atoms: C6_14  and  N2_7 
REMARK    4  A    between atoms: C18_26  and  N3_8 
REMARK       I    between atoms: C9_17  and  N3_8 
REMARK    5  A    between atoms: C5_13  and  C7_15 
REMARK    6  A    between atoms: C6_14  and  C9_17 
REMARK    7  A    between atoms: C13_21  and  C17_25 
ROOT
HETATM    1  N1  UNK     1      19.211  -3.134  36.180  1.00  0.00     0.096 N 
HETATM    2  N2  UNK     1      18.298  -0.471  35.521  1.00  0.00     0.100 N 
HETATM    3  C1  UNK     1      19.926  -2.302  35.204  1.00  0.00     0.303 C 
HETATM    4  C2  UNK     1      18.537  -2.291  37.175  1.00  0.00     0.303 C 
HETATM    5  C3  UNK     1      18.971  -1.315  34.526  1.00  0.00     0.303 C 
HETATM    6  C4  UNK     1      17.583  -1.302  36.497  1.00  0.00     0.303 C 
ENDROOT
BRANCH   1   7
HETATM    7  C5  UNK     1      20.123  -4.074  36.829  1.00  0.00     0.312 C 
BRANCH   7   8
HETATM    8  C7  UNK     1      19.650  -5.481  36.722  1.00  0.00    -0.011 A 
HETATM    9  C10 UNK     1      18.527  -5.786  36.055  1.00  0.00     0.092 A 
HETATM   10  C14 UNK     1      18.019  -7.162  35.923  1.00  0.00     0.288 A 
HETATM   11  O1  UNK     1      18.762  -8.161  36.530  1.00  0.00    -0.275 OA
HETATM   12  O3  UNK     1      16.989  -7.402  35.303  1.00  0.00    -0.260 OA
HETATM   13  C11 UNK     1      19.946  -7.872  37.239  1.00  0.00     0.090 A 
HETATM   14  C8  UNK     1      20.416  -6.563  37.356  1.00  0.00     0.007 A 
HETATM   15  C15 UNK     1      20.613  -8.958  37.810  1.00  0.00     0.039 A 
HETATM   16  C12 UNK     1      21.599  -6.359  38.077  1.00  0.00     0.022 A 
HETATM   17  C13 UNK     1      22.279  -7.438  38.655  1.00  0.00    -0.058 A 
HETATM   18  C16 UNK     1      21.786  -8.734  38.522  1.00  0.00     0.010 A 
BRANCH  17  19
HETATM   19  C17 UNK     1      23.538  -7.197  39.419  1.00  0.00     0.034 C 
HETATM   20  C19 UNK     1      24.733  -7.929  38.814  1.00  0.00     0.010 C 
ENDBRANCH  17  19
ENDBRANCH   7   8
ENDBRANCH   1   7
BRANCH   2  21
HETATM   21  C6  UNK     1      17.388   0.470  34.874  1.00  0.00     0.375 C 
BRANCH  21  22
HETATM   22  C9  UNK     1      18.174   1.668  34.369  1.00  0.00     0.250 C 
HETATM   23  O2  UNK     1      19.103   2.162  34.998  1.00  0.00    -0.271 OA
HETATM   24  N3  UNK     1      17.683   2.078  33.130  1.00  0.00    -0.323 N 
HETATM   25  H15 UNK     1      16.895   1.566  32.739  1.00  0.00     0.169 HD
BRANCH  24  26
HETATM   26  C18 UNK     1      18.143   3.152  32.332  1.00  0.00     0.070 A 
HETATM   27  C20 UNK     1      18.410   2.968  30.976  1.00  0.00     0.095 A 
HETATM   28  C22 UNK     1      18.864   4.036  30.201  1.00  0.00     0.041 A 
HETATM   29  C24 UNK     1      19.049   5.289  30.785  1.00  0.00     0.026 A 
HETATM   30  C23 UNK     1      18.782   5.475  32.142  1.00  0.00     0.036 A 
HETATM   31  C21 UNK     1      18.330   4.406  32.915  1.00  0.00     0.056 A 
HETATM   32 Cl1  UNK     1      19.012   7.021  32.859  1.00  0.00    -0.084 Cl
BRANCH  27  33
HETATM   33  O4  UNK     1      18.235   1.751  30.387  1.00  0.00    -0.354 OA
HETATM   34  C25 UNK     1      17.958   1.741  28.988  1.00  0.00     0.210 C 
ENDBRANCH  27  33
ENDBRANCH  24  26
ENDBRANCH  21  22
ENDBRANCH   2  21
TORSDOF 7
ENDMDL
MODEL 2
REMARK VINA RESULT:      -9.9      2.275      2.817
REMARK  7 active torsions:
REMARK  status: ('A' for Active; 'I' for Inactive)
REMARK    1  A    between atoms: C20_28  and  O4_5 
REMARK    2  A    between atoms: C5_13  and  N1_6 
REMARK    3  A    between atoms: C6_14  and  N2_7 
REMARK    4  A    between atoms: C18_26  and  N3_8 
REMARK       I    between atoms: C9_17  and  N3_8 
REMARK    5  A    between atoms: C5_13  and  C7_15 
REMARK    6  A    between atoms: C6_14  and  C9_17 
REMARK    7  A    between atoms: C13_21  and  C17_25 
ROOT
HETATM    1  N1  UNK     1      19.378  -3.632  36.485  1.00  0.00     0.096 N 
HETATM    2  N2  UNK     1      18.954  -0.836  35.887  1.00  0.00     0.100 N 
HETATM    3  C1  UNK     1      20.379  -2.850  35.749  1.00  0.00     0.303 C 
HETATM    4  C2  UNK     1      18.615  -2.766  37.392  1.00  0.00     0.303 C 
HETATM    5  C3  UNK     1      19.716  -1.703  34.980  1.00  0.00     0.303 C 
HETATM    6  C4  UNK     1      17.953  -1.618  36.622  1.00  0.00     0.303 C 
ENDROOT
BRANCH   1   7
HETATM    7  C5  UNK     1      20.012  -4.724  37.222  1.00  0.00     0.312 C 
BRANCH   7   8
HETATM    8  C7  UNK     1      19.408  -6.046  36.897  1.00  0.00    -0.011 A 
HETATM    9  C10 UNK     1      18.409  -6.152  36.009  1.00  0.00     0.092 A 
HETATM   10  C14 UNK     1      17.781  -7.436  35.656  1.00  0.00     0.288 A 
HETATM   11  O1  UNK     1      18.272  -8.565  36.291  1.00  0.00    -0.275 OA
HETATM   12  O3  UNK     1      16.870  -7.494  34.837  1.00  0.00    -0.260 OA
HETATM   13  C11 UNK     1      19.320  -8.486  37.230  1.00  0.00     0.090 A 
HETATM   14  C8  UNK     1      19.906  -7.262  37.555  1.00  0.00     0.007 A 
HETATM   15  C15 UNK     1      19.734  -9.688  37.808  1.00  0.00     0.039 A 
HETATM   16  C12 UNK     1      20.943  -7.267  38.497  1.00  0.00     0.022 A 
HETATM   17  C13 UNK     1      21.368  -8.464  39.086  1.00  0.00    -0.058 A 
HETATM   18  C16 UNK     1      20.764  -9.672  38.742  1.00  0.00     0.010 A 
BRANCH  17  19
HETATM   19  C17 UNK     1      22.474  -8.446  40.087  1.00  0.00     0.034 C 
HETATM   20  C19 UNK     1      23.800  -7.994  39.479  1.00  0.00     0.010 C 
ENDBRANCH  17  19
ENDBRANCH   7   8
ENDBRANCH   1   7
BRANCH   2  21
HETATM   21  C6  UNK     1      18.323   0.257  35.152  1.00  0.00     0.375 C 
BRANCH  21  22
HETATM   22  C9  UNK     1      18.166  -0.138  33.694  1.00  0.00     0.250 C 
HETATM   23  O2  UNK     1      17.312  -0.932  33.312  1.00  0.00    -0.271 OA
HETATM   24  N3  UNK     1      19.106   0.529  32.910  1.00  0.00    -0.323 N 
HETATM   25  H15 UNK     1      19.757   1.155  33.380  1.00  0.00     0.169 HD
BRANCH  24  26
HETATM   26  C18 UNK     1      19.286   0.434  31.510  1.00  0.00     0.070 A 
HETATM   27  C20 UNK     1      20.209  -0.462  30.971  1.00  0.00     0.095 A 
HETATM   28  C22 UNK     1      20.377  -0.545  29.588  1.00  0.00     0.041 A 
HETATM   29  C24 UNK     1      19.619   0.268  28.745  1.00  0.00     0.026 A 
HETATM   30  C23 UNK     1      18.696   1.164  29.283  1.00  0.00     0.036 A 
HETATM   31  C21 UNK     1      18.529   1.247  30.666  1.00  0.00     0.056 A 
HETATM   32 Cl1  UNK     1      17.763   2.166  28.242  1.00  0.00    -0.084 Cl
BRANCH  27  33
HETATM   33  O4  UNK     1      20.959  -1.265  31.778  1.00  0.00    -0.354 OA
HETATM   34  C25 UNK     1      20.749  -2.671  31.669  1.00  0.00     0.210 C 
ENDBRANCH  27  33
ENDBRANCH  24  26
ENDBRANCH  21  22
ENDBRANCH   2  21
TORSDOF 7
ENDMDL
MODEL 3
REMARK VINA RESULT:      -9.9      2.100      2.632
REMARK  7 active torsions:
REMARK  status: ('A' for Active; 'I' for Inactive)
REMARK    1  A    between atoms: C20_28  and  O4_5 
REMARK    2  A    between atoms: C5_13  and  N1_6 
REMARK    3  A    between atoms: C6_14  and  N2_7 
REMARK    4  A    between atoms: C18_26  and  N3_8 
REMARK       I    between atoms: C9_17  and  N3_8 
REMARK    5  A    between atoms: C5_13  and  C7_15 
REMARK    6  A    between atoms: C6_14  and  C9_17 
REMARK    7  A    between atoms: C13_21  and  C17_25 
ROOT
HETATM    1  N1  UNK     1      19.426  -3.620  36.429  1.00  0.00     0.096 N 
HETATM    2  N2  UNK     1      18.958  -0.796  36.025  1.00  0.00     0.100 N 
HETATM    3  C1  UNK     1      20.312  -2.814  35.580  1.00  0.00     0.303 C 
HETATM    4  C2  UNK     1      18.828  -2.789  37.481  1.00  0.00     0.303 C 
HETATM    5  C3  UNK     1      19.555  -1.629  34.974  1.00  0.00     0.303 C 
HETATM    6  C4  UNK     1      18.072  -1.601  36.874  1.00  0.00     0.303 C 
ENDROOT
BRANCH   1   7
HETATM    7  C5  UNK     1      20.149  -4.750  37.010  1.00  0.00     0.312 C 
BRANCH   7   8
HETATM    8  C7  UNK     1      19.462  -6.047  36.760  1.00  0.00    -0.011 A 
HETATM    9  C10 UNK     1      18.452  -6.137  35.883  1.00  0.00     0.092 A 
HETATM   10  C14 UNK     1      17.741  -7.396  35.602  1.00  0.00     0.288 A 
HETATM   11  O1  UNK     1      18.164  -8.518  36.297  1.00  0.00    -0.275 OA
HETATM   12  O3  UNK     1      16.823  -7.441  34.791  1.00  0.00    -0.260 OA
HETATM   13  C11 UNK     1      19.223  -8.454  37.226  1.00  0.00     0.090 A 
HETATM   14  C8  UNK     1      19.887  -7.253  37.482  1.00  0.00     0.007 A 
HETATM   15  C15 UNK     1      19.564  -9.647  37.868  1.00  0.00     0.039 A 
HETATM   16  C12 UNK     1      20.927  -7.273  38.419  1.00  0.00     0.022 A 
HETATM   17  C13 UNK     1      21.281  -8.461  39.071  1.00  0.00    -0.058 A 
HETATM   18  C16 UNK     1      20.600  -9.645  38.795  1.00  0.00     0.010 A 
BRANCH  17  19
HETATM   19  C17 UNK     1      22.393  -8.458  40.066  1.00  0.00     0.034 C 
HETATM   20  C19 UNK     1      23.698  -7.931  39.476  1.00  0.00     0.010 C 
ENDBRANCH  17  19
ENDBRANCH   7   8
ENDBRANCH   1   7
BRANCH   2  21
HETATM   21  C6  UNK     1      18.237   0.334  35.446  1.00  0.00     0.375 C 
BRANCH  21  22
HETATM   22  C9  UNK     1      18.038   0.099  33.958  1.00  0.00     0.250 C 
HETATM   23  O2  UNK     1      17.268  -0.750  33.520  1.00  0.00    -0.271 OA
HETATM   24  N3  UNK     1      18.836   0.973  33.221  1.00  0.00    -0.323 N 
HETATM   25  H15 UNK     1      19.431   1.619  33.735  1.00  0.00     0.169 HD
BRANCH  24  26
HETATM   26  C18 UNK     1      18.936   1.071  31.814  1.00  0.00     0.070 A 
HETATM   27  C20 UNK     1      18.285   2.093  31.123  1.00  0.00     0.095 A 
HETATM   28  C22 UNK     1      18.392   2.176  29.734  1.00  0.00     0.041 A 
HETATM   29  C24 UNK     1      19.153   1.237  29.037  1.00  0.00     0.026 A 
HETATM   30  C23 UNK     1      19.806   0.215  29.727  1.00  0.00     0.036 A 
HETATM   31  C21 UNK     1      19.697   0.132  31.115  1.00  0.00     0.056 A 
HETATM   32 Cl1  UNK     1      20.743  -0.941  28.866  1.00  0.00    -0.084 Cl
BRANCH  27  33
HETATM   33  O4  UNK     1      17.537   3.019  31.786  1.00  0.00    -0.354 OA
HETATM   34  C25 UNK     1      18.096   4.323  31.927  1.00  0.00     0.210 C 
ENDBRANCH  27  33
ENDBRANCH  24  26
ENDBRANCH  21  22
ENDBRANCH   2  21
TORSDOF 7
ENDMDL
MODEL 4
REMARK VINA RESULT:      -9.5      5.708      8.501
REMARK  7 active torsions:
REMARK  status: ('A' for Active; 'I' for Inactive)
REMARK    1  A    between atoms: C20_28  and  O4_5 
REMARK    2  A    between atoms: C5_13  and  N1_6 
REMARK    3  A    between atoms: C6_14  and  N2_7 
REMARK    4  A    between atoms: C18_26  and  N3_8 
REMARK       I    between atoms: C9_17  and  N3_8 
REMARK    5  A    between atoms: C5_13  and  C7_15 
REMARK    6  A    between atoms: C6_14  and  C9_17 
REMARK    7  A    between atoms: C13_21  and  C17_25 
ROOT
HETATM    1  N1  UNK     1      18.884   3.634  31.315  1.00  0.00     0.096 N 
HETATM    2  N2  UNK     1      19.192   6.311  32.365  1.00  0.00     0.100 N 
HETATM    3  C1  UNK     1      18.003   4.145  32.373  1.00  0.00     0.303 C 
HETATM    4  C2  UNK     1      19.360   4.735  30.468  1.00  0.00     0.303 C 
HETATM    5  C3  UNK     1      18.718   5.209  33.211  1.00  0.00     0.303 C 
HETATM    6  C4  UNK     1      20.073   5.801  31.308  1.00  0.00     0.303 C 
ENDROOT
BRANCH   1   7
HETATM    7  C5  UNK     1      18.201   2.621  30.514  1.00  0.00     0.312 C 
BRANCH   7   8
HETATM    8  C7  UNK     1      18.941   1.329  30.492  1.00  0.00    -0.011 A 
HETATM    9  C10 UNK     1      19.617   0.937  29.402  1.00  0.00     0.092 A 
HETATM   10  C14 UNK     1      20.362  -0.332  29.332  1.00  0.00     0.288 A 
HETATM   11  O1  UNK     1      20.340  -1.130  30.464  1.00  0.00    -0.275 OA
HETATM   12  O3  UNK     1      20.971  -0.656  28.319  1.00  0.00    -0.260 OA
HETATM   13  C11 UNK     1      19.638  -0.746  31.624  1.00  0.00     0.090 A 
HETATM   14  C8  UNK     1      18.935   0.459  31.676  1.00  0.00     0.007 A 
HETATM   15  C15 UNK     1      19.685  -1.629  32.705  1.00  0.00     0.039 A 
HETATM   16  C12 UNK     1      18.262   0.769  32.865  1.00  0.00     0.022 A 
HETATM   17  C13 UNK     1      18.300  -0.107  33.957  1.00  0.00    -0.058 A 
HETATM   18  C16 UNK     1      19.010  -1.303  33.876  1.00  0.00     0.010 A 
BRANCH  17  19
HETATM   19  C17 UNK     1      17.576   0.244  35.214  1.00  0.00     0.034 C 
HETATM   20  C19 UNK     1      16.061   0.240  35.030  1.00  0.00     0.010 C 
ENDBRANCH  17  19
ENDBRANCH   7   8
ENDBRANCH   1   7
BRANCH   2  21
HETATM   21  C6  UNK     1      19.873   7.325  33.165  1.00  0.00     0.375 C 
BRANCH  21  22
HETATM   22  C9  UNK     1      18.876   7.983  34.103  1.00  0.00     0.250 C 
HETATM   23  O2  UNK     1      18.988   7.939  35.324  1.00  0.00    -0.271 OA
HETATM   24  N3  UNK     1      17.871   8.616  33.372  1.00  0.00    -0.323 N 
HETATM   25  H15 UNK     1      17.914   8.555  32.357  1.00  0.00     0.169 HD
BRANCH  24  26
HETATM   26  C18 UNK     1      16.763   9.337  33.874  1.00  0.00     0.070 A 
HETATM   27  C20 UNK     1      15.511   8.733  33.981  1.00  0.00     0.095 A 
HETATM   28  C22 UNK     1      14.425   9.458  34.476  1.00  0.00     0.041 A 
HETATM   29  C24 UNK     1      14.596  10.786  34.868  1.00  0.00     0.026 A 
HETATM   30  C23 UNK     1      15.848  11.390  34.762  1.00  0.00     0.036 A 
HETATM   31  C21 UNK     1      16.932  10.666  34.265  1.00  0.00     0.056 A 
HETATM   32 Cl1  UNK     1      16.056  13.028  35.244  1.00  0.00    -0.084 Cl
BRANCH  27  33
HETATM   33  O4  UNK     1      15.324   7.437  33.604  1.00  0.00    -0.354 OA
HETATM   34  C25 UNK     1      14.807   7.210  32.295  1.00  0.00     0.210 C 
ENDBRANCH  27  33
ENDBRANCH  24  26
ENDBRANCH  21  22
ENDBRANCH   2  21
TORSDOF 7
ENDMDL
MODEL 5
REMARK VINA RESULT:      -9.3      5.068     11.192
REMARK  7 active torsions:
REMARK  status: ('A' for Active; 'I' for Inactive)
REMARK    1  A    between atoms: C20_28  and  O4_5 
REMARK    2  A    between atoms: C5_13  and  N1_6 
REMARK    3  A    between atoms: C6_14  and  N2_7 
REMARK    4  A    between atoms: C18_26  and  N3_8 
REMARK       I    between atoms: C9_17  and  N3_8 
REMARK    5  A    between atoms: C5_13  and  C7_15 
REMARK    6  A    between atoms: C6_14  and  C9_17 
REMARK    7  A    between atoms: C13_21  and  C17_25 
ROOT
HETATM    1  N1  UNK     1      19.926  -4.615  36.888  1.00  0.00     0.096 N 
HETATM    2  N2  UNK     1      20.075  -7.500  36.789  1.00  0.00     0.100 N 
HETATM    3  C1  UNK     1      20.601  -5.380  37.944  1.00  0.00     0.303 C 
HETATM    4  C2  UNK     1      20.000  -5.331  35.609  1.00  0.00     0.303 C 
HETATM    5  C3  UNK     1      20.000  -6.784  38.068  1.00  0.00     0.303 C 
HETATM    6  C4  UNK     1      19.400  -6.736  35.734  1.00  0.00     0.303 C 
ENDROOT
BRANCH   1   7
HETATM    7  C5  UNK     1      20.502  -3.277  36.768  1.00  0.00     0.312 C 
BRANCH   7   8
HETATM    8  C7  UNK     1      19.489  -2.263  36.363  1.00  0.00    -0.011 A 
HETATM    9  C10 UNK     1      18.681  -1.692  37.267  1.00  0.00     0.092 A 
HETATM   10  C14 UNK     1      17.665  -0.686  36.915  1.00  0.00     0.288 A 
HETATM   11  O1  UNK     1      17.570  -0.339  35.577  1.00  0.00    -0.275 OA
HETATM   12  O3  UNK     1      16.945  -0.183  37.771  1.00  0.00    -0.260 OA
HETATM   13  C11 UNK     1      18.405  -0.922  34.603  1.00  0.00     0.090 A 
HETATM   14  C8  UNK     1      19.363  -1.875  34.951  1.00  0.00     0.007 A 
HETATM   15  C15 UNK     1      18.220  -0.497  33.286  1.00  0.00     0.039 A 
HETATM   16  C12 UNK     1      20.154  -2.408  33.925  1.00  0.00     0.022 A 
HETATM   17  C13 UNK     1      19.980  -1.991  32.600  1.00  0.00    -0.058 A 
HETATM   18  C16 UNK     1      19.015  -1.039  32.281  1.00  0.00     0.010 A 
BRANCH  17  19
HETATM   19  C17 UNK     1      20.834  -2.573  31.522  1.00  0.00     0.034 C 
HETATM   20  C19 UNK     1      20.474  -2.031  30.141  1.00  0.00     0.010 C 
ENDBRANCH  17  19
ENDBRANCH   7   8
ENDBRANCH   1   7
BRANCH   2  21
HETATM   21  C6  UNK     1      19.502  -8.838  36.909  1.00  0.00     0.375 C 
BRANCH  21  22
HETATM   22  C9  UNK     1      20.618  -9.851  37.103  1.00  0.00     0.250 C 
HETATM   23  O2  UNK     1      20.449 -10.917  37.687  1.00  0.00    -0.271 OA
HETATM   24  N3  UNK     1      21.798  -9.384  36.526  1.00  0.00    -0.323 N 
HETATM   25  H15 UNK     1      21.779  -8.469  36.081  1.00  0.00     0.169 HD
BRANCH  24  26
HETATM   26  C18 UNK     1      23.056 -10.030  36.492  1.00  0.00     0.070 A 
HETATM   27  C20 UNK     1      24.201  -9.382  36.956  1.00  0.00     0.095 A 
HETATM   28  C22 UNK     1      25.436 -10.031  36.915  1.00  0.00     0.041 A 
HETATM   29  C24 UNK     1      25.524 -11.329  36.413  1.00  0.00     0.026 A 
HETATM   30  C23 UNK     1      24.379 -11.978  35.949  1.00  0.00     0.036 A 
HETATM   31  C21 UNK     1      23.146 -11.328  35.989  1.00  0.00     0.056 A 
HETATM   32 Cl1  UNK     1      24.490 -13.579  35.330  1.00  0.00    -0.084 Cl
BRANCH  27  33
HETATM   33  O4  UNK     1      24.135  -8.114  37.450  1.00  0.00    -0.354 OA
HETATM   34  C25 UNK     1      24.183  -7.968  38.868  1.00  0.00     0.210 C 
ENDBRANCH  27  33
ENDBRANCH  24  26
ENDBRANCH  21  22
ENDBRANCH   2  21
TORSDOF 7
ENDMDL
MODEL 6
REMARK VINA RESULT:      -9.0      3.275     11.280
REMARK  7 active torsions:
REMARK  status: ('A' for Active; 'I' for Inactive)
REMARK    1  A    between atoms: C20_28  and  O4_5 
REMARK    2  A    between atoms: C5_13  and  N1_6 
REMARK    3  A    between atoms: C6_14  and  N2_7 
REMARK    4  A    between atoms: C18_26  and  N3_8 
REMARK       I    between atoms: C9_17  and  N3_8 
REMARK    5  A    between atoms: C5_13  and  C7_15 
REMARK    6  A    between atoms: C6_14  and  C9_17 
REMARK    7  A    between atoms: C13_21  and  C17_25 
ROOT
HETATM    1  N1  UNK     1      17.938   1.497  35.178  1.00  0.00     0.096 N 
HETATM    2  N2  UNK     1      18.244  -1.020  36.568  1.00  0.00     0.100 N 
HETATM    3  C1  UNK     1      17.438   1.315  36.547  1.00  0.00     0.303 C 
HETATM    4  C2  UNK     1      19.097   0.629  34.937  1.00  0.00     0.303 C 
HETATM    5  C3  UNK     1      17.085  -0.152  36.807  1.00  0.00     0.303 C 
HETATM    6  C4  UNK     1      18.744  -0.840  35.200  1.00  0.00     0.303 C 
ENDROOT
BRANCH   1   7
HETATM    7  C5  UNK     1      18.278   2.896  34.931  1.00  0.00     0.312 C 
BRANCH   7   8
HETATM    8  C7  UNK     1      18.283   3.226  33.479  1.00  0.00    -0.011 A 
HETATM    9  C10 UNK     1      18.233   2.261  32.550  1.00  0.00     0.092 A 
HETATM   10  C14 UNK     1      18.235   2.537  31.103  1.00  0.00     0.288 A 
HETATM   11  O1  UNK     1      18.293   3.868  30.723  1.00  0.00    -0.275 OA
HETATM   12  O3  UNK     1      18.186   1.627  30.282  1.00  0.00    -0.260 OA
HETATM   13  C11 UNK     1      18.348   4.905  31.677  1.00  0.00     0.090 A 
HETATM   14  C8  UNK     1      18.345   4.628  33.045  1.00  0.00     0.007 A 
HETATM   15  C15 UNK     1      18.404   6.208  31.180  1.00  0.00     0.039 A 
HETATM   16  C12 UNK     1      18.401   5.714  33.928  1.00  0.00     0.022 A 
HETATM   17  C13 UNK     1      18.458   7.027  33.444  1.00  0.00    -0.058 A 
HETATM   18  C16 UNK     1      18.460   7.273  32.073  1.00  0.00     0.010 A 
BRANCH  17  19
HETATM   19  C17 UNK     1      18.518   8.168  34.404  1.00  0.00     0.034 C 
HETATM   20  C19 UNK     1      19.918   8.767  34.507  1.00  0.00     0.010 C 
ENDBRANCH  17  19
ENDBRANCH   7   8
ENDBRANCH   1   7
BRANCH   2  21
HETATM   21  C6  UNK     1      17.906  -2.419  36.817  1.00  0.00     0.375 C 
BRANCH  21  22
HETATM   22  C9  UNK     1      19.178  -3.209  37.073  1.00  0.00     0.250 C 
HETATM   23  O2  UNK     1      20.218  -2.682  37.455  1.00  0.00    -0.271 OA
HETATM   24  N3  UNK     1      18.964  -4.563  36.817  1.00  0.00    -0.323 N 
HETATM   25  H15 UNK     1      18.041  -4.844  36.496  1.00  0.00     0.169 HD
BRANCH  24  26
HETATM   26  C18 UNK     1      19.896  -5.621  36.936  1.00  0.00     0.070 A 
HETATM   27  C20 UNK     1      19.854  -6.706  36.061  1.00  0.00     0.095 A 
HETATM   28  C22 UNK     1      20.778  -7.744  36.191  1.00  0.00     0.041 A 
HETATM   29  C24 UNK     1      21.746  -7.693  37.195  1.00  0.00     0.026 A 
HETATM   30  C23 UNK     1      21.788  -6.607  38.070  1.00  0.00     0.036 A 
HETATM   31  C21 UNK     1      20.863  -5.572  37.940  1.00  0.00     0.056 A 
HETATM   32 Cl1  UNK     1      22.981  -6.547  39.308  1.00  0.00    -0.084 Cl
BRANCH  27  33
HETATM   33  O4  UNK     1      18.917  -6.774  35.074  1.00  0.00    -0.354 OA
HETATM   34  C25 UNK     1      17.714  -7.481  35.369  1.00  0.00     0.210 C 
ENDBRANCH  27  33
ENDBRANCH  24  26
ENDBRANCH  21  22
ENDBRANCH   2  21
TORSDOF 7
ENDMDL
MODEL 7
REMARK VINA RESULT:      -8.9      3.451     11.263
REMARK  7 active torsions:
REMARK  status: ('A' for Active; 'I' for Inactive)
REMARK    1  A    between atoms: C20_28  and  O4_5 
REMARK    2  A    between atoms: C5_13  and  N1_6 
REMARK    3  A    between atoms: C6_14  and  N2_7 
REMARK    4  A    between atoms: C18_26  and  N3_8 
REMARK       I    between atoms: C9_17  and  N3_8 
REMARK    5  A    between atoms: C5_13  and  C7_15 
REMARK    6  A    between atoms: C6_14  and  C9_17 
REMARK    7  A    between atoms: C13_21  and  C17_25 
ROOT
HETATM    1  N1  UNK     1      18.535   0.955  34.134  1.00  0.00     0.096 N 
HETATM    2  N2  UNK     1      19.398  -1.624  35.116  1.00  0.00     0.100 N 
HETATM    3  C1  UNK     1      18.166  -0.287  33.443  1.00  0.00     0.303 C 
HETATM    4  C2  UNK     1      18.717   0.708  35.570  1.00  0.00     0.303 C 
HETATM    5  C3  UNK     1      19.217  -1.376  33.680  1.00  0.00     0.303 C 
HETATM    6  C4  UNK     1      19.768  -0.383  35.807  1.00  0.00     0.303 C 
ENDROOT
BRANCH   1   7
HETATM    7  C5  UNK     1      17.530   1.992  33.910  1.00  0.00     0.312 C 
BRANCH   7   8
HETATM    8  C7  UNK     1      18.129   3.250  33.383  1.00  0.00    -0.011 A 
HETATM    9  C10 UNK     1      18.473   4.250  34.207  1.00  0.00     0.092 A 
HETATM   10  C14 UNK     1      19.068   5.512  33.734  1.00  0.00     0.288 A 
HETATM   11  O1  UNK     1      19.264   5.634  32.368  1.00  0.00    -0.275 OA
HETATM   12  O3  UNK     1      19.373   6.404  34.518  1.00  0.00    -0.260 OA
HETATM   13  C11 UNK     1      18.911   4.601  31.477  1.00  0.00     0.090 A 
HETATM   14  C8  UNK     1      18.348   3.410  31.939  1.00  0.00     0.007 A 
HETATM   15  C15 UNK     1      19.153   4.834  30.122  1.00  0.00     0.039 A 
HETATM   16  C12 UNK     1      18.024   2.432  30.990  1.00  0.00     0.022 A 
HETATM   17  C13 UNK     1      18.261   2.652  29.628  1.00  0.00    -0.058 A 
HETATM   18  C16 UNK     1      18.824   3.851  29.195  1.00  0.00     0.010 A 
BRANCH  17  19
HETATM   19  C17 UNK     1      17.909   1.595  28.635  1.00  0.00     0.034 C 
HETATM   20  C19 UNK     1      18.944   0.475  28.587  1.00  0.00     0.010 C 
ENDBRANCH  17  19
ENDBRANCH   7   8
ENDBRANCH   1   7
BRANCH   2  21
HETATM   21  C6  UNK     1      20.400  -2.662  35.341  1.00  0.00     0.375 C 
BRANCH  21  22
HETATM   22  C9  UNK     1      20.017  -3.478  36.564  1.00  0.00     0.250 C 
HETATM   23  O2  UNK     1      19.443  -2.990  37.531  1.00  0.00    -0.271 OA
HETATM   24  N3  UNK     1      20.406  -4.807  36.397  1.00  0.00    -0.323 N 
HETATM   25  H15 UNK     1      20.884  -5.056  35.534  1.00  0.00     0.169 HD
BRANCH  24  26
HETATM   26  C18 UNK     1      20.230  -5.878  37.305  1.00  0.00     0.070 A 
HETATM   27  C20 UNK     1      19.036  -6.598  37.331  1.00  0.00     0.095 A 
HETATM   28  C22 UNK     1      18.875  -7.652  38.233  1.00  0.00     0.041 A 
HETATM   29  C24 UNK     1      19.911  -7.984  39.106  1.00  0.00     0.026 A 
HETATM   30  C23 UNK     1      21.106  -7.264  39.080  1.00  0.00     0.036 A 
HETATM   31  C21 UNK     1      21.264  -6.211  38.179  1.00  0.00     0.056 A 
HETATM   32 Cl1  UNK     1      22.381  -7.675  40.158  1.00  0.00    -0.084 Cl
BRANCH  27  33
HETATM   33  O4  UNK     1      18.013  -6.289  36.485  1.00  0.00    -0.354 OA
HETATM   34  C25 UNK     1      17.647  -7.275  35.523  1.00  0.00     0.210 C 
ENDBRANCH  27  33
ENDBRANCH  24  26
ENDBRANCH  21  22
ENDBRANCH   2  21
TORSDOF 7
ENDMDL
MODEL 8
REMARK VINA RESULT:      -8.8      6.019     12.910
REMARK  7 active torsions:
REMARK  status: ('A' for Active; 'I' for Inactive)
REMARK    1  A    between atoms: C20_28  and  O4_5 
REMARK    2  A    between atoms: C5_13  and  N1_6 
REMARK    3  A    between atoms: C6_14  and  N2_7 
REMARK    4  A    between atoms: C18_26  and  N3_8 
REMARK       I    between atoms: C9_17  and  N3_8 
REMARK    5  A    between atoms: C5_13  and  C7_15 
REMARK    6  A    between atoms: C6_14  and  C9_17 
REMARK    7  A    between atoms: C13_21  and  C17_25 
ROOT
HETATM    1  N1  UNK     1      18.797   6.955  32.785  1.00  0.00     0.096 N 
HETATM    2  N2  UNK     1      19.021   4.693  30.998  1.00  0.00     0.100 N 
HETATM    3  C1  UNK     1      17.941   5.772  32.941  1.00  0.00     0.303 C 
HETATM    4  C2  UNK     1      20.084   6.581  32.186  1.00  0.00     0.303 C 
HETATM    5  C3  UNK     1      17.734   5.069  31.596  1.00  0.00     0.303 C 
HETATM    6  C4  UNK     1      19.876   5.876  30.842  1.00  0.00     0.303 C 
ENDROOT
BRANCH   1   7
HETATM    7  C5  UNK     1      18.997   7.624  34.069  1.00  0.00     0.312 C 
BRANCH   7   8
HETATM    8  C7  UNK     1      18.421   8.998  34.083  1.00  0.00    -0.011 A 
HETATM    9  C10 UNK     1      19.208  10.077  34.192  1.00  0.00     0.092 A 
HETATM   10  C14 UNK     1      18.686  11.454  34.211  1.00  0.00     0.288 A 
HETATM   11  O1  UNK     1      17.312  11.600  34.109  1.00  0.00    -0.275 OA
HETATM   12  O3  UNK     1      19.437  12.418  34.309  1.00  0.00    -0.260 OA
HETATM   13  C11 UNK     1      16.458  10.484  33.995  1.00  0.00     0.090 A 
HETATM   14  C8  UNK     1      16.967   9.185  33.978  1.00  0.00     0.007 A 
HETATM   15  C15 UNK     1      15.091  10.751  33.900  1.00  0.00     0.039 A 
HETATM   16  C12 UNK     1      16.054   8.130  33.862  1.00  0.00     0.022 A 
HETATM   17  C13 UNK     1      14.680   8.381  33.766  1.00  0.00    -0.058 A 
HETATM   18  C16 UNK     1      14.200   9.689  33.785  1.00  0.00     0.010 A 
BRANCH  17  19
HETATM   19  C17 UNK     1      13.724   7.241  33.643  1.00  0.00     0.034 C 
HETATM   20  C19 UNK     1      13.394   6.916  32.189  1.00  0.00     0.010 C 
ENDBRANCH  17  19
ENDBRANCH   7   8
ENDBRANCH   1   7
BRANCH   2  21
HETATM   21  C6  UNK     1      18.822   4.022  29.716  1.00  0.00     0.375 C 
BRANCH  21  22
HETATM   22  C9  UNK     1      18.467   2.565  29.957  1.00  0.00     0.250 C 
HETATM   23  O2  UNK     1      17.483   2.032  29.454  1.00  0.00    -0.271 OA
HETATM   24  N3  UNK     1      19.409   1.973  30.798  1.00  0.00    -0.323 N 
HETATM   25  H15 UNK     1      20.170   2.554  31.141  1.00  0.00     0.169 HD
BRANCH  24  26
HETATM   26  C18 UNK     1      19.433   0.635  31.259  1.00  0.00     0.070 A 
HETATM   27  C20 UNK     1      18.798   0.282  32.449  1.00  0.00     0.095 A 
HETATM   28  C22 UNK     1      18.832  -1.041  32.892  1.00  0.00     0.041 A 
HETATM   29  C24 UNK     1      19.499  -2.010  32.142  1.00  0.00     0.026 A 
HETATM   30  C23 UNK     1      20.134  -1.657  30.951  1.00  0.00     0.036 A 
HETATM   31  C21 UNK     1      20.101  -0.334  30.510  1.00  0.00     0.056 A 
HETATM   32 Cl1  UNK     1      20.956  -2.853  30.028  1.00  0.00    -0.084 Cl
BRANCH  27  33
HETATM   33  O4  UNK     1      18.141   1.214  33.196  1.00  0.00    -0.354 OA
HETATM   34  C25 UNK     1      18.050   0.973  34.598  1.00  0.00     0.210 C 
ENDBRANCH  27  33
ENDBRANCH  24  26
ENDBRANCH  21  22
ENDBRANCH   2  21
TORSDOF 7
ENDMDL
MODEL 9
REMARK VINA RESULT:      -8.7      6.016     12.856
REMARK  7 active torsions:
REMARK  status: ('A' for Active; 'I' for Inactive)
REMARK    1  A    between atoms: C20_28  and  O4_5 
REMARK    2  A    between atoms: C5_13  and  N1_6 
REMARK    3  A    between atoms: C6_14  and  N2_7 
REMARK    4  A    between atoms: C18_26  and  N3_8 
REMARK       I    between atoms: C9_17  and  N3_8 
REMARK    5  A    between atoms: C5_13  and  C7_15 
REMARK    6  A    between atoms: C6_14  and  C9_17 
REMARK    7  A    between atoms: C13_21  and  C17_25 
ROOT
HETATM    1  N1  UNK     1      18.683   6.332  32.741  1.00  0.00     0.096 N 
HETATM    2  N2  UNK     1      18.434   4.661  30.394  1.00  0.00     0.100 N 
HETATM    3  C1  UNK     1      18.655   6.911  31.392  1.00  0.00     0.303 C 
HETATM    4  C2  UNK     1      17.922   5.076  32.776  1.00  0.00     0.303 C 
HETATM    5  C3  UNK     1      19.196   5.916  30.361  1.00  0.00     0.303 C 
HETATM    6  C4  UNK     1      18.462   4.082  31.743  1.00  0.00     0.303 C 
ENDROOT
BRANCH   1   7
HETATM    7  C5  UNK     1      18.164   7.280  33.725  1.00  0.00     0.312 C 
BRANCH   7   8
HETATM    8  C7  UNK     1      16.810   7.783  33.361  1.00  0.00    -0.011 A 
HETATM    9  C10 UNK     1      15.880   6.962  32.853  1.00  0.00     0.092 A 
HETATM   10  C14 UNK     1      14.529   7.412  32.479  1.00  0.00     0.288 A 
HETATM   11  O1  UNK     1      14.243   8.753  32.676  1.00  0.00    -0.275 OA
HETATM   12  O3  UNK     1      13.703   6.631  32.019  1.00  0.00    -0.260 OA
HETATM   13  C11 UNK     1      15.200   9.641  33.207  1.00  0.00     0.090 A 
HETATM   14  C8  UNK     1      16.477   9.200  33.558  1.00  0.00     0.007 A 
HETATM   15  C15 UNK     1      14.801  10.971  33.362  1.00  0.00     0.039 A 
HETATM   16  C12 UNK     1      17.370  10.145  34.079  1.00  0.00     0.022 A 
HETATM   17  C13 UNK     1      16.985  11.481  34.240  1.00  0.00    -0.058 A 
HETATM   18  C16 UNK     1      15.703  11.893  33.881  1.00  0.00     0.010 A 
BRANCH  17  19
HETATM   19  C17 UNK     1      17.954  12.470  34.797  1.00  0.00     0.034 C 
HETATM   20  C19 UNK     1      18.325  13.551  33.787  1.00  0.00     0.010 C 
ENDBRANCH  17  19
ENDBRANCH   7   8
ENDBRANCH   1   7
BRANCH   2  21
HETATM   21  C6  UNK     1      18.951   3.714  29.411  1.00  0.00     0.375 C 
BRANCH  21  22
HETATM   22  C9  UNK     1      18.551   2.303  29.809  1.00  0.00     0.250 C 
HETATM   23  O2  UNK     1      17.441   1.839  29.571  1.00  0.00    -0.271 OA
HETATM   24  N3  UNK     1      19.612   1.664  30.449  1.00  0.00    -0.323 N 
HETATM   25  H15 UNK     1      20.473   2.190  30.579  1.00  0.00     0.169 HD
BRANCH  24  26
HETATM   26  C18 UNK     1      19.640   0.349  30.969  1.00  0.00     0.070 A 
HETATM   27  C20 UNK     1      18.989   0.043  32.164  1.00  0.00     0.095 A 
HETATM   28  C22 UNK     1      19.026  -1.259  32.666  1.00  0.00     0.041 A 
HETATM   29  C24 UNK     1      19.712  -2.254  31.969  1.00  0.00     0.026 A 
HETATM   30  C23 UNK     1      20.363  -1.949  30.774  1.00  0.00     0.036 A 
HETATM   31  C21 UNK     1      20.326  -0.647  30.274  1.00  0.00     0.056 A 
HETATM   32 Cl1  UNK     1      21.209  -3.177  29.917  1.00  0.00    -0.084 Cl
BRANCH  27  33
HETATM   33  O4  UNK     1      18.313   1.001  32.858  1.00  0.00    -0.354 OA
HETATM   34  C25 UNK     1      18.281   0.871  34.278  1.00  0.00     0.210 C 
ENDBRANCH  27  33
ENDBRANCH  24  26
ENDBRANCH  21  22
ENDBRANCH   2  21
TORSDOF 7
ENDMDL
MODEL 10
REMARK VINA RESULT:      -8.7      9.479     13.271
REMARK  7 active torsions:
REMARK  status: ('A' for Active; 'I' for Inactive)
REMARK    1  A    between atoms: C20_28  and  O4_5 
REMARK    2  A    between atoms: C5_13  and  N1_6 
REMARK    3  A    between atoms: C6_14  and  N2_7 
REMARK    4  A    between atoms: C18_26  and  N3_8 
REMARK       I    between atoms: C9_17  and  N3_8 
REMARK    5  A    between atoms: C5_13  and  C7_15 
REMARK    6  A    between atoms: C6_14  and  C9_17 
REMARK    7  A    between atoms: C13_21  and  C17_25 
ROOT
HETATM    1  N1  UNK     1      26.745  -9.338  37.508  1.00  0.00     0.096 N 
HETATM    2  N2  UNK     1      29.613  -9.045  37.727  1.00  0.00     0.100 N 
HETATM    3  C1  UNK     1      27.394  -9.137  38.809  1.00  0.00     0.303 C 
HETATM    4  C2  UNK     1      27.531  -8.707  36.440  1.00  0.00     0.303 C 
HETATM    5  C3  UNK     1      28.827  -9.678  38.793  1.00  0.00     0.303 C 
HETATM    6  C4  UNK     1      28.965  -9.247  36.425  1.00  0.00     0.303 C 
ENDROOT
BRANCH   1   7
HETATM    7  C5  UNK     1      25.379  -8.819  37.523  1.00  0.00     0.312 C 
BRANCH   7   8
HETATM    8  C7  UNK     1      24.422  -9.736  36.845  1.00  0.00    -0.011 A 
HETATM    9  C10 UNK     1      24.835 -10.889  36.299  1.00  0.00     0.092 A 
HETATM   10  C14 UNK     1      23.927 -11.827  35.618  1.00  0.00     0.288 A 
HETATM   11  O1  UNK     1      22.590 -11.468  35.559  1.00  0.00    -0.275 OA
HETATM   12  O3  UNK     1      24.341 -12.874  35.133  1.00  0.00    -0.260 OA
HETATM   13  C11 UNK     1      22.125 -10.262  36.123  1.00  0.00     0.090 A 
HETATM   14  C8  UNK     1      22.998  -9.382  36.765  1.00  0.00     0.007 A 
HETATM   15  C15 UNK     1      20.758 -10.003  36.004  1.00  0.00     0.039 A 
HETATM   16  C12 UNK     1      22.458  -8.205  37.299  1.00  0.00     0.022 A 
HETATM   17  C13 UNK     1      21.090  -7.931  37.187  1.00  0.00    -0.058 A 
HETATM   18  C16 UNK     1      20.242  -8.828  36.540  1.00  0.00     0.010 A 
BRANCH  17  19
HETATM   19  C17 UNK     1      20.537  -6.670  37.763  1.00  0.00     0.034 C 
HETATM   20  C19 UNK     1      20.253  -6.791  39.258  1.00  0.00     0.010 C 
ENDBRANCH  17  19
ENDBRANCH   7   8
ENDBRANCH   1   7
BRANCH   2  21
HETATM   21  C6  UNK     1      30.979  -9.562  37.712  1.00  0.00     0.375 C 
BRANCH  21  22
HETATM   22  C9  UNK     1      31.958  -8.402  37.648  1.00  0.00     0.250 C 
HETATM   23  O2  UNK     1      32.330  -7.795  38.647  1.00  0.00    -0.271 OA
HETATM   24  N3  UNK     1      32.341  -8.167  36.328  1.00  0.00    -0.323 N 
HETATM   25  H15 UNK     1      31.935  -8.756  35.605  1.00  0.00     0.169 HD
BRANCH  24  26
HETATM   26  C18 UNK     1      33.235  -7.179  35.852  1.00  0.00     0.070 A 
HETATM   27  C20 UNK     1      32.811  -5.862  35.677  1.00  0.00     0.095 A 
HETATM   28  C22 UNK     1      33.703  -4.898  35.205  1.00  0.00     0.041 A 
HETATM   29  C24 UNK     1      35.020  -5.252  34.912  1.00  0.00     0.026 A 
HETATM   30  C23 UNK     1      35.445  -6.569  35.088  1.00  0.00     0.036 A 
HETATM   31  C21 UNK     1      34.552  -7.532  35.558  1.00  0.00     0.056 A 
HETATM   32 Cl1  UNK     1      37.069  -7.004  34.725  1.00  0.00    -0.084 Cl
BRANCH  27  33
HETATM   33  O4  UNK     1      31.528  -5.496  35.957  1.00  0.00    -0.354 OA
HETATM   34  C25 UNK     1      31.343  -4.510  36.970  1.00  0.00     0.210 C 
ENDBRANCH  27  33
ENDBRANCH  24  26
ENDBRANCH  21  22
ENDBRANCH   2  21
TORSDOF 7
ENDMDL
