MODEL 1
REMARK VINA RESULT:      -7.1      0.000      0.000
REMARK  3 active torsions:
REMARK  status: ('A' for Active; 'I' for Inactive)
REMARK    1  A    between atoms: C10_13  and  O2_2 
REMARK    2  A    between atoms: C3_6  and  O2_2 
REMARK    3  A    between atoms: C10_13  and  C11_14 
ROOT
HETATM    1  O1  UNK     1      19.939  -0.523  31.887  1.00  0.00    -0.275 OA
HETATM    2  O3  UNK     1      20.996  -2.543  32.112  1.00  0.00    -0.260 OA
HETATM    3  C1  UNK     1      19.446   0.312  29.655  1.00  0.00    -0.002 A 
HETATM    4  C2  UNK     1      19.402   0.466  31.038  1.00  0.00     0.092 A 
HETATM    5  C3  UNK     1      18.292   2.583  30.820  1.00  0.00     0.071 A 
HETATM    6  C4  UNK     1      18.832   1.589  31.633  1.00  0.00     0.075 A 
HETATM    7  C5  UNK     1      18.903   1.313  28.847  1.00  0.00     0.017 A 
HETATM    8  C6  UNK     1      18.327   2.446  29.430  1.00  0.00     0.038 A 
HETATM    9  C7  UNK     1      20.056  -0.885  29.102  1.00  0.00     0.020 A 
HETATM   10  C8  UNK     1      20.562  -1.818  29.913  1.00  0.00     0.083 A 
HETATM   11  C9  UNK     1      20.527  -1.677  31.380  1.00  0.00     0.288 A 
ENDROOT
BRANCH   5  12
HETATM   12  O2  UNK     1      17.731   3.690  31.379  1.00  0.00    -0.347 OA
BRANCH  12  13
HETATM   13  C10 UNK     1      18.620   4.678  31.895  1.00  0.00     0.202 C 
BRANCH  13  14
HETATM   14  C11 UNK     1      18.782   5.757  30.876  1.00  0.00    -0.011 C 
HETATM   15  C12 UNK     1      19.863   5.895  30.101  1.00  0.00     0.009 C 
ENDBRANCH  13  14
ENDBRANCH  12  13
ENDBRANCH   5  12
TORSDOF 3
ENDMDL
MODEL 2
REMARK VINA RESULT:      -6.8      1.135      1.557
REMARK  3 active torsions:
REMARK  status: ('A' for Active; 'I' for Inactive)
REMARK    1  A    between atoms: C10_13  and  O2_2 
REMARK    2  A    between atoms: C3_6  and  O2_2 
REMARK    3  A    between atoms: C10_13  and  C11_14 
ROOT
HETATM    1  O1  UNK     1      20.090  -0.886  32.372  1.00  0.00    -0.275 OA
HETATM    2  O3  UNK     1      20.902  -2.606  33.647  1.00  0.00    -0.260 OA
HETATM    3  C1  UNK     1      20.020  -1.139  29.952  1.00  0.00    -0.002 A 
HETATM    4  C2  UNK     1      19.784  -0.377  31.092  1.00  0.00     0.092 A 
HETATM    5  C3  UNK     1      18.929   1.434  29.770  1.00  0.00     0.071 A 
HETATM    6  C4  UNK     1      19.241   0.904  31.019  1.00  0.00     0.075 A 
HETATM    7  C5  UNK     1      19.704  -0.600  28.703  1.00  0.00     0.017 A 
HETATM    8  C6  UNK     1      19.159   0.685  28.614  1.00  0.00     0.038 A 
HETATM    9  C7  UNK     1      20.589  -2.468  30.101  1.00  0.00     0.020 A 
HETATM   10  C8  UNK     1      20.875  -2.943  31.316  1.00  0.00     0.083 A 
HETATM   11  C9  UNK     1      20.633  -2.156  32.539  1.00  0.00     0.288 A 
ENDROOT
BRANCH   5  12
HETATM   12  O2  UNK     1      18.398   2.684  29.674  1.00  0.00    -0.347 OA
BRANCH  12  13
HETATM   13  C10 UNK     1      18.731   3.611  30.706  1.00  0.00     0.202 C 
BRANCH  13  14
HETATM   14  C11 UNK     1      19.176   4.890  30.077  1.00  0.00    -0.011 C 
HETATM   15  C12 UNK     1      19.749   5.893  30.751  1.00  0.00     0.009 C 
ENDBRANCH  13  14
ENDBRANCH  12  13
ENDBRANCH   5  12
TORSDOF 3
ENDMDL
MODEL 3
REMARK VINA RESULT:      -6.6     22.548     24.209
REMARK  3 active torsions:
REMARK  status: ('A' for Active; 'I' for Inactive)
REMARK    1  A    between atoms: C10_13  and  O2_2 
REMARK    2  A    between atoms: C3_6  and  O2_2 
REMARK    3  A    between atoms: C10_13  and  C11_14 
ROOT
HETATM    1  O1  UNK     1       9.695   5.491   8.625  1.00  0.00    -0.275 OA
HETATM    2  O3  UNK     1       7.540   5.522   7.849  1.00  0.00    -0.260 OA
HETATM    3  C1  UNK     1      11.496   6.185   7.143  1.00  0.00    -0.002 A 
HETATM    4  C2  UNK     1      11.065   5.721   8.382  1.00  0.00     0.092 A 
HETATM    5  C3  UNK     1      13.317   5.685   9.212  1.00  0.00     0.071 A 
HETATM    6  C4  UNK     1      11.957   5.467   9.421  1.00  0.00     0.075 A 
HETATM    7  C5  UNK     1      12.861   6.400   6.941  1.00  0.00     0.017 A 
HETATM    8  C6  UNK     1      13.769   6.150   7.975  1.00  0.00     0.038 A 
HETATM    9  C7  UNK     1      10.510   6.428   6.103  1.00  0.00     0.020 A 
HETATM   10  C8  UNK     1       9.215   6.209   6.341  1.00  0.00     0.083 A 
HETATM   11  C9  UNK     1       8.734   5.718   7.646  1.00  0.00     0.288 A 
ENDROOT
BRANCH   5  12
HETATM   12  O2  UNK     1      14.207   5.443  10.213  1.00  0.00    -0.347 OA
BRANCH  12  13
HETATM   13  C10 UNK     1      15.592   5.574   9.895  1.00  0.00     0.202 C 
BRANCH  13  14
HETATM   14  C11 UNK     1      16.119   6.809  10.548  1.00  0.00    -0.011 C 
HETATM   15  C12 UNK     1      17.240   7.434  10.170  1.00  0.00     0.009 C 
ENDBRANCH  13  14
ENDBRANCH  12  13
ENDBRANCH   5  12
TORSDOF 3
ENDMDL
MODEL 4
REMARK VINA RESULT:      -6.5      2.999      6.984
REMARK  3 active torsions:
REMARK  status: ('A' for Active; 'I' for Inactive)
REMARK    1  A    between atoms: C10_13  and  O2_2 
REMARK    2  A    between atoms: C3_6  and  O2_2 
REMARK    3  A    between atoms: C10_13  and  C11_14 
ROOT
HETATM    1  O1  UNK     1      17.384   6.499  33.645  1.00  0.00    -0.275 OA
HETATM    2  O3  UNK     1      16.746   7.705  35.484  1.00  0.00    -0.260 OA
HETATM    3  C1  UNK     1      19.667   6.709  32.826  1.00  0.00    -0.002 A 
HETATM    4  C2  UNK     1      18.395   6.153  32.724  1.00  0.00     0.092 A 
HETATM    5  C3  UNK     1      19.048   4.881  30.796  1.00  0.00     0.071 A 
HETATM    6  C4  UNK     1      18.071   5.243  31.720  1.00  0.00     0.075 A 
HETATM    7  C5  UNK     1      20.641   6.341  31.895  1.00  0.00     0.017 A 
HETATM    8  C6  UNK     1      20.330   5.429  30.883  1.00  0.00     0.038 A 
HETATM    9  C7  UNK     1      19.936   7.653  33.898  1.00  0.00     0.020 A 
HETATM   10  C8  UNK     1      18.973   7.975  34.767  1.00  0.00     0.083 A 
HETATM   11  C9  UNK     1      17.619   7.399  34.679  1.00  0.00     0.288 A 
ENDROOT
BRANCH   5  12
HETATM   12  O2  UNK     1      18.754   3.994  29.806  1.00  0.00    -0.347 OA
BRANCH  12  13
HETATM   13  C10 UNK     1      18.298   2.703  30.207  1.00  0.00     0.202 C 
BRANCH  13  14
HETATM   14  C11 UNK     1      17.948   1.918  28.986  1.00  0.00    -0.011 C 
HETATM   15  C12 UNK     1      18.615   0.832  28.580  1.00  0.00     0.009 C 
ENDBRANCH  13  14
ENDBRANCH  12  13
ENDBRANCH   5  12
TORSDOF 3
ENDMDL
MODEL 5
REMARK VINA RESULT:      -6.5      2.894      5.023
REMARK  3 active torsions:
REMARK  status: ('A' for Active; 'I' for Inactive)
REMARK    1  A    between atoms: C10_13  and  O2_2 
REMARK    2  A    between atoms: C3_6  and  O2_2 
REMARK    3  A    between atoms: C10_13  and  C11_14 
ROOT
HETATM    1  O1  UNK     1      18.749   0.618  30.651  1.00  0.00    -0.275 OA
HETATM    2  O3  UNK     1      18.754   1.568  28.568  1.00  0.00    -0.260 OA
HETATM    3  C1  UNK     1      20.221  -1.270  31.094  1.00  0.00    -0.002 A 
HETATM    4  C2  UNK     1      19.256  -0.365  31.527  1.00  0.00     0.092 A 
HETATM    5  C3  UNK     1      19.241  -1.349  33.716  1.00  0.00     0.071 A 
HETATM    6  C4  UNK     1      18.759  -0.390  32.828  1.00  0.00     0.075 A 
HETATM    7  C5  UNK     1      20.699  -2.228  31.990  1.00  0.00     0.017 A 
HETATM    8  C6  UNK     1      20.209  -2.266  33.299  1.00  0.00     0.038 A 
HETATM    9  C7  UNK     1      20.695  -1.186  29.722  1.00  0.00     0.020 A 
HETATM   10  C8  UNK     1      20.210  -0.253  28.899  1.00  0.00     0.083 A 
HETATM   11  C9  UNK     1      19.189   0.717  29.336  1.00  0.00     0.288 A 
ENDROOT
BRANCH   5  12
HETATM   12  O2  UNK     1      18.769  -1.393  34.992  1.00  0.00    -0.347 OA
BRANCH  12  13
HETATM   13  C10 UNK     1      18.454  -0.147  35.611  1.00  0.00     0.202 C 
BRANCH  13  14
HETATM   14  C11 UNK     1      17.048  -0.200  36.109  1.00  0.00    -0.011 C 
HETATM   15  C12 UNK     1      15.972  -0.073  35.324  1.00  0.00     0.009 C 
ENDBRANCH  13  14
ENDBRANCH  12  13
ENDBRANCH   5  12
TORSDOF 3
ENDMDL
MODEL 6
REMARK VINA RESULT:      -6.4      2.016      6.202
REMARK  3 active torsions:
REMARK  status: ('A' for Active; 'I' for Inactive)
REMARK    1  A    between atoms: C10_13  and  O2_2 
REMARK    2  A    between atoms: C3_6  and  O2_2 
REMARK    3  A    between atoms: C10_13  and  C11_14 
ROOT
HETATM    1  O1  UNK     1      17.579   5.129  33.448  1.00  0.00    -0.275 OA
HETATM    2  O3  UNK     1      17.129   6.897  34.833  1.00  0.00    -0.260 OA
HETATM    3  C1  UNK     1      18.511   5.562  31.242  1.00  0.00    -0.002 A 
HETATM    4  C2  UNK     1      18.057   4.666  32.205  1.00  0.00     0.092 A 
HETATM    5  C3  UNK     1      18.524   2.802  30.765  1.00  0.00     0.071 A 
HETATM    6  C4  UNK     1      18.057   3.290  31.983  1.00  0.00     0.075 A 
HETATM    7  C5  UNK     1      18.977   5.065  30.023  1.00  0.00     0.017 A 
HETATM    8  C6  UNK     1      18.983   3.687  29.787  1.00  0.00     0.038 A 
HETATM    9  C7  UNK     1      18.482   6.985  31.539  1.00  0.00     0.020 A 
HETATM   10  C8  UNK     1      18.028   7.416  32.719  1.00  0.00     0.083 A 
HETATM   11  C9  UNK     1      17.543   6.485  33.755  1.00  0.00     0.288 A 
ENDROOT
BRANCH   5  12
HETATM   12  O2  UNK     1      18.533   1.462  30.527  1.00  0.00    -0.347 OA
BRANCH  12  13
HETATM   13  C10 UNK     1      18.943   1.037  29.229  1.00  0.00     0.202 C 
BRANCH  13  14
HETATM   14  C11 UNK     1      20.125   0.136  29.370  1.00  0.00    -0.011 C 
HETATM   15  C12 UNK     1      20.610  -0.282  30.544  1.00  0.00     0.009 C 
ENDBRANCH  13  14
ENDBRANCH  12  13
ENDBRANCH   5  12
TORSDOF 3
ENDMDL
MODEL 7
REMARK VINA RESULT:      -6.4      3.181      5.655
REMARK  3 active torsions:
REMARK  status: ('A' for Active; 'I' for Inactive)
REMARK    1  A    between atoms: C10_13  and  O2_2 
REMARK    2  A    between atoms: C3_6  and  O2_2 
REMARK    3  A    between atoms: C10_13  and  C11_14 
ROOT
HETATM    1  O1  UNK     1      18.735   0.633  30.692  1.00  0.00    -0.275 OA
HETATM    2  O3  UNK     1      18.696   1.635  28.634  1.00  0.00    -0.260 OA
HETATM    3  C1  UNK     1      20.223  -1.258  31.059  1.00  0.00    -0.002 A 
HETATM    4  C2  UNK     1      19.263  -0.369  31.533  1.00  0.00     0.092 A 
HETATM    5  C3  UNK     1      19.294  -1.407  33.698  1.00  0.00     0.071 A 
HETATM    6  C4  UNK     1      18.791  -0.429  32.843  1.00  0.00     0.075 A 
HETATM    7  C5  UNK     1      20.722  -2.236  31.923  1.00  0.00     0.017 A 
HETATM    8  C6  UNK     1      20.257  -2.309  33.239  1.00  0.00     0.038 A 
HETATM    9  C7  UNK     1      20.671  -1.138  29.682  1.00  0.00     0.020 A 
HETATM   10  C8  UNK     1      20.166  -0.186  28.892  1.00  0.00     0.083 A 
HETATM   11  C9  UNK     1      19.149   0.767  29.372  1.00  0.00     0.288 A 
ENDROOT
BRANCH   5  12
HETATM   12  O2  UNK     1      18.846  -1.486  34.981  1.00  0.00    -0.347 OA
BRANCH  12  13
HETATM   13  C10 UNK     1      19.750  -2.010  35.952  1.00  0.00     0.202 C 
BRANCH  13  14
HETATM   14  C11 UNK     1      19.013  -2.211  37.234  1.00  0.00    -0.011 C 
HETATM   15  C12 UNK     1      18.083  -1.370  37.701  1.00  0.00     0.009 C 
ENDBRANCH  13  14
ENDBRANCH  12  13
ENDBRANCH   5  12
TORSDOF 3
ENDMDL
MODEL 8
REMARK VINA RESULT:      -6.3      9.235     13.356
REMARK  3 active torsions:
REMARK  status: ('A' for Active; 'I' for Inactive)
REMARK    1  A    between atoms: C10_13  and  O2_2 
REMARK    2  A    between atoms: C3_6  and  O2_2 
REMARK    3  A    between atoms: C10_13  and  C11_14 
ROOT
HETATM    1  O1  UNK     1      20.866  -6.917  35.400  1.00  0.00    -0.275 OA
HETATM    2  O3  UNK     1      20.189  -4.730  35.328  1.00  0.00    -0.260 OA
HETATM    3  C1  UNK     1      19.587  -8.509  36.723  1.00  0.00    -0.002 A 
HETATM    4  C2  UNK     1      20.658  -8.226  35.882  1.00  0.00     0.092 A 
HETATM    5  C3  UNK     1      21.381 -10.514  35.945  1.00  0.00     0.071 A 
HETATM    6  C4  UNK     1      21.560  -9.212  35.486  1.00  0.00     0.075 A 
HETATM    7  C5  UNK     1      19.414  -9.817  37.180  1.00  0.00     0.017 A 
HETATM    8  C6  UNK     1      20.311 -10.817  36.790  1.00  0.00     0.038 A 
HETATM    9  C7  UNK     1      18.685  -7.432  37.097  1.00  0.00     0.020 A 
HETATM   10  C8  UNK     1      18.888  -6.195  36.636  1.00  0.00     0.083 A 
HETATM   11  C9  UNK     1      20.016  -5.871  35.743  1.00  0.00     0.288 A 
ENDROOT
BRANCH   5  12
HETATM   12  O2  UNK     1      22.249 -11.493  35.571  1.00  0.00    -0.347 OA
BRANCH  12  13
HETATM   13  C10 UNK     1      23.626 -11.293  35.884  1.00  0.00     0.202 C 
BRANCH  13  14
HETATM   14  C11 UNK     1      24.369 -12.560  35.613  1.00  0.00    -0.011 C 
HETATM   15  C12 UNK     1      24.886 -13.341  36.568  1.00  0.00     0.009 C 
ENDBRANCH  13  14
ENDBRANCH  12  13
ENDBRANCH   5  12
TORSDOF 3
ENDMDL
MODEL 9
REMARK VINA RESULT:      -6.3     11.473     13.153
REMARK  3 active torsions:
REMARK  status: ('A' for Active; 'I' for Inactive)
REMARK    1  A    between atoms: C10_13  and  O2_2 
REMARK    2  A    between atoms: C3_6  and  O2_2 
REMARK    3  A    between atoms: C10_13  and  C11_14 
ROOT
HETATM    1  O1  UNK     1      30.263  -8.439  28.838  1.00  0.00    -0.275 OA
HETATM    2  O3  UNK     1      30.914 -10.050  27.346  1.00  0.00    -0.260 OA
HETATM    3  C1  UNK     1      27.978  -8.457  29.676  1.00  0.00    -0.002 A 
HETATM    4  C2  UNK     1      29.247  -7.886  29.645  1.00  0.00     0.092 A 
HETATM    5  C3  UNK     1      28.580  -6.191  31.209  1.00  0.00     0.071 A 
HETATM    6  C4  UNK     1      29.563  -6.759  30.401  1.00  0.00     0.075 A 
HETATM    7  C5  UNK     1      26.998  -7.881  30.488  1.00  0.00     0.017 A 
HETATM    8  C6  UNK     1      27.301  -6.750  31.253  1.00  0.00     0.038 A 
HETATM    9  C7  UNK     1      27.717  -9.632  28.861  1.00  0.00     0.020 A 
HETATM   10  C8  UNK     1      28.685 -10.149  28.100  1.00  0.00     0.083 A 
HETATM   11  C9  UNK     1      30.037  -9.563  28.051  1.00  0.00     0.288 A 
ENDROOT
BRANCH   5  12
HETATM   12  O2  UNK     1      28.866  -5.090  31.956  1.00  0.00    -0.347 OA
BRANCH  12  13
HETATM   13  C10 UNK     1      30.123  -4.457  31.724  1.00  0.00     0.202 C 
BRANCH  13  14
HETATM   14  C11 UNK     1      29.918  -3.313  30.787  1.00  0.00    -0.011 C 
HETATM   15  C12 UNK     1      30.114  -2.032  31.119  1.00  0.00     0.009 C 
ENDBRANCH  13  14
ENDBRANCH  12  13
ENDBRANCH   5  12
TORSDOF 3
ENDMDL
MODEL 10
REMARK VINA RESULT:      -6.3     22.728     24.241
REMARK  3 active torsions:
REMARK  status: ('A' for Active; 'I' for Inactive)
REMARK    1  A    between atoms: C10_13  and  O2_2 
REMARK    2  A    between atoms: C3_6  and  O2_2 
REMARK    3  A    between atoms: C10_13  and  C11_14 
ROOT
HETATM    1  O1  UNK     1      14.378   5.027   8.456  1.00  0.00    -0.275 OA
HETATM    2  O3  UNK     1      16.082   4.068   9.647  1.00  0.00    -0.260 OA
HETATM    3  C1  UNK     1      13.506   7.185   9.166  1.00  0.00    -0.002 A 
HETATM    4  C2  UNK     1      13.485   6.106   8.288  1.00  0.00     0.092 A 
HETATM    5  C3  UNK     1      11.700   7.098   7.027  1.00  0.00     0.071 A 
HETATM    6  C4  UNK     1      12.593   6.047   7.219  1.00  0.00     0.075 A 
HETATM    7  C5  UNK     1      12.607   8.235   8.967  1.00  0.00     0.017 A 
HETATM    8  C6  UNK     1      11.706   8.190   7.898  1.00  0.00     0.038 A 
HETATM    9  C7  UNK     1      14.463   7.181  10.260  1.00  0.00     0.020 A 
HETATM   10  C8  UNK     1      15.305   6.156  10.412  1.00  0.00     0.083 A 
HETATM   11  C9  UNK     1      15.302   5.002   9.494  1.00  0.00     0.288 A 
ENDROOT
BRANCH   5  12
HETATM   12  O2  UNK     1      10.819   7.062   5.990  1.00  0.00    -0.347 OA
BRANCH  12  13
HETATM   13  C10 UNK     1       9.835   6.029   6.010  1.00  0.00     0.202 C 
BRANCH  13  14
HETATM   14  C11 UNK     1       8.671   6.490   6.823  1.00  0.00    -0.011 C 
HETATM   15  C12 UNK     1       8.213   5.847   7.903  1.00  0.00     0.009 C 
ENDBRANCH  13  14
ENDBRANCH  12  13
ENDBRANCH   5  12
TORSDOF 3
ENDMDL
