MODEL 1
REMARK VINA RESULT:      -9.5      0.000      0.000
REMARK  3 active torsions:
REMARK  status: ('A' for Active; 'I' for Inactive)
REMARK    1  A    between atoms: C1_5  and  N1_3 
REMARK    2  A    between atoms: C11_15  and  N2_4 
REMARK    3  A    between atoms: C11_15  and  C12_16 
ROOT
HETATM    1  O1  UNK     1      14.600   8.567  32.627  1.00  0.00    -0.275 OA
HETATM    2  O2  UNK     1      13.777   6.647  31.696  1.00  0.00    -0.260 OA
HETATM    3  C12 UNK     1      17.105   7.270  32.844  1.00  0.00    -0.011 A 
HETATM    4  C13 UNK     1      16.944   8.655  33.308  1.00  0.00     0.012 A 
HETATM    5  C14 UNK     1      16.048   6.635  32.320  1.00  0.00     0.092 A 
HETATM    6  C15 UNK     1      15.693   9.261  33.184  1.00  0.00     0.091 A 
HETATM    7  C16 UNK     1      17.980   9.413  33.871  1.00  0.00    -0.048 A 
HETATM    8  C17 UNK     1      14.721   7.260  32.182  1.00  0.00     0.288 A 
HETATM    9  C18 UNK     1      15.456  10.573  33.598  1.00  0.00     0.045 A 
HETATM   10  C19 UNK     1      17.757  10.729  34.290  1.00  0.00     0.014 A 
HETATM   11  C20 UNK     1      16.497  11.308  34.154  1.00  0.00    -0.059 A 
HETATM   12  C21 UNK     1      19.378   8.924  34.077  1.00  0.00     0.049 C 
HETATM   13  C22 UNK     1      16.265  12.712  34.602  1.00  0.00     0.048 C 
ENDROOT
BRANCH   3  14
HETATM   14  C11 UNK     1      18.390   6.529  32.934  1.00  0.00     0.312 C 
BRANCH  14  15
HETATM   15  N2  UNK     1      18.187   5.268  32.224  1.00  0.00     0.096 N 
HETATM   16  C10 UNK     1      18.349   4.126  33.132  1.00  0.00     0.303 C 
HETATM   17  C7  UNK     1      18.137   2.803  32.388  1.00  0.00     0.303 C 
HETATM   18  N1  UNK     1      19.061   2.689  31.252  1.00  0.00     0.096 N 
HETATM   19  C6  UNK     1      18.902   3.831  30.345  1.00  0.00     0.303 C 
HETATM   20  C9  UNK     1      19.112   5.154  31.089  1.00  0.00     0.303 C 
BRANCH  18  21
HETATM   21  C1  UNK     1      18.856   1.428  30.542  1.00  0.00     0.223 C 
HETATM   22  C2  UNK     1      18.728   1.694  29.038  1.00  0.00     0.036 C 
HETATM   23  C4  UNK     1      18.588   0.391  28.252  1.00  0.00     0.002 C 
HETATM   24  C8  UNK     1      19.733  -0.572  28.551  1.00  0.00     0.000 C 
HETATM   25  C5  UNK     1      19.873  -0.832  30.049  1.00  0.00     0.002 C 
HETATM   26  C3  UNK     1      20.015   0.469  30.836  1.00  0.00     0.036 C 
ENDBRANCH  18  21
ENDBRANCH  14  15
ENDBRANCH   3  14
TORSDOF 3
ENDMDL
MODEL 2
REMARK VINA RESULT:      -8.7      2.581      8.685
REMARK  3 active torsions:
REMARK  status: ('A' for Active; 'I' for Inactive)
REMARK    1  A    between atoms: C1_5  and  N1_3 
REMARK    2  A    between atoms: C11_15  and  N2_4 
REMARK    3  A    between atoms: C11_15  and  C12_16 
ROOT
HETATM    1  O1  UNK     1      18.073   2.136  33.142  1.00  0.00    -0.275 OA
HETATM    2  O2  UNK     1      17.954   2.528  35.392  1.00  0.00    -0.260 OA
HETATM    3  C12 UNK     1      18.631   4.887  32.792  1.00  0.00    -0.011 A 
HETATM    4  C13 UNK     1      18.559   3.991  31.630  1.00  0.00     0.012 A 
HETATM    5  C14 UNK     1      18.428   4.380  34.015  1.00  0.00     0.092 A 
HETATM    6  C15 UNK     1      18.281   2.640  31.843  1.00  0.00     0.091 A 
HETATM    7  C16 UNK     1      18.755   4.413  30.308  1.00  0.00    -0.048 A 
HETATM    8  C17 UNK     1      18.134   2.956  34.257  1.00  0.00     0.288 A 
HETATM    9  C18 UNK     1      18.197   1.722  30.794  1.00  0.00     0.045 A 
HETATM   10  C19 UNK     1      18.673   3.505  29.247  1.00  0.00     0.014 A 
HETATM   11  C20 UNK     1      18.394   2.161  29.490  1.00  0.00    -0.059 A 
HETATM   12  C21 UNK     1      19.061   5.818  29.899  1.00  0.00     0.049 C 
HETATM   13  C22 UNK     1      18.309   1.197  28.355  1.00  0.00     0.048 C 
ENDROOT
BRANCH   3  14
HETATM   14  C11 UNK     1      18.914   6.341  32.679  1.00  0.00     0.312 C 
BRANCH  14  15
HETATM   15  N2  UNK     1      17.783   7.029  33.296  1.00  0.00     0.096 N 
HETATM   16  C10 UNK     1      16.581   6.910  32.462  1.00  0.00     0.303 C 
HETATM   17  C7  UNK     1      15.393   7.631  33.108  1.00  0.00     0.303 C 
HETATM   18  N1  UNK     1      15.710   9.045  33.350  1.00  0.00     0.096 N 
HETATM   19  C6  UNK     1      16.912   9.165  34.183  1.00  0.00     0.303 C 
HETATM   20  C9  UNK     1      18.099   8.443  33.537  1.00  0.00     0.303 C 
BRANCH  18  21
HETATM   21  C1  UNK     1      14.577   9.730  33.970  1.00  0.00     0.223 C 
HETATM   22  C2  UNK     1      15.028  10.410  35.267  1.00  0.00     0.036 C 
HETATM   23  C4  UNK     1      13.888  11.203  35.905  1.00  0.00     0.002 C 
HETATM   24  C8  UNK     1      13.288  12.210  34.930  1.00  0.00     0.000 C 
HETATM   25  C5  UNK     1      12.847  11.541  33.630  1.00  0.00     0.002 C 
HETATM   26  C3  UNK     1      13.986  10.750  32.990  1.00  0.00     0.036 C 
ENDBRANCH  18  21
ENDBRANCH  14  15
ENDBRANCH   3  14
TORSDOF 3
ENDMDL
MODEL 3
REMARK VINA RESULT:      -8.5      8.404     11.331
REMARK  3 active torsions:
REMARK  status: ('A' for Active; 'I' for Inactive)
REMARK    1  A    between atoms: C1_5  and  N1_3 
REMARK    2  A    between atoms: C11_15  and  N2_4 
REMARK    3  A    between atoms: C11_15  and  C12_16 
ROOT
HETATM    1  O1  UNK     1      18.359  -0.980  33.438  1.00  0.00    -0.275 OA
HETATM    2  O2  UNK     1      19.900  -1.932  32.042  1.00  0.00    -0.260 OA
HETATM    3  C12 UNK     1      19.756  -2.139  35.608  1.00  0.00    -0.011 A 
HETATM    4  C13 UNK     1      18.556  -1.325  35.848  1.00  0.00     0.012 A 
HETATM    5  C14 UNK     1      20.174  -2.322  34.349  1.00  0.00     0.092 A 
HETATM    6  C15 UNK     1      17.895  -0.770  34.752  1.00  0.00     0.091 A 
HETATM    7  C16 UNK     1      18.031  -1.070  37.122  1.00  0.00    -0.048 A 
HETATM    8  C17 UNK     1      19.487  -1.743  33.181  1.00  0.00     0.288 A 
HETATM    9  C18 UNK     1      16.749   0.016  34.892  1.00  0.00     0.045 A 
HETATM   10  C19 UNK     1      16.884  -0.284  37.279  1.00  0.00     0.014 A 
HETATM   11  C20 UNK     1      16.244   0.258  36.165  1.00  0.00    -0.059 A 
HETATM   12  C21 UNK     1      18.611  -1.582  38.401  1.00  0.00     0.049 C 
HETATM   13  C22 UNK     1      15.022   1.096  36.338  1.00  0.00     0.048 C 
ENDROOT
BRANCH   3  14
HETATM   14  C11 UNK     1      20.532  -2.781  36.701  1.00  0.00     0.312 C 
BRANCH  14  15
HETATM   15  N2  UNK     1      20.432  -4.223  36.484  1.00  0.00     0.096 N 
HETATM   16  C10 UNK     1      19.030  -4.658  36.517  1.00  0.00     0.303 C 
HETATM   17  C7  UNK     1      18.924  -6.170  36.290  1.00  0.00     0.303 C 
HETATM   18  N1  UNK     1      19.711  -6.905  37.288  1.00  0.00     0.096 N 
HETATM   19  C6  UNK     1      21.112  -6.469  37.257  1.00  0.00     0.303 C 
HETATM   20  C9  UNK     1      21.219  -4.957  37.483  1.00  0.00     0.303 C 
BRANCH  18  21
HETATM   21  C1  UNK     1      19.611  -8.347  37.068  1.00  0.00     0.223 C 
HETATM   22  C2  UNK     1      20.872  -8.854  36.362  1.00  0.00     0.036 C 
HETATM   23  C4  UNK     1      20.839 -10.371  36.183  1.00  0.00     0.002 C 
HETATM   24  C8  UNK     1      20.618 -11.089  37.511  1.00  0.00     0.000 C 
HETATM   25  C5  UNK     1      19.368 -10.580  38.225  1.00  0.00     0.002 C 
HETATM   26  C3  UNK     1      19.401  -9.065  38.407  1.00  0.00     0.036 C 
ENDBRANCH  18  21
ENDBRANCH  14  15
ENDBRANCH   3  14
TORSDOF 3
ENDMDL
MODEL 4
REMARK VINA RESULT:      -8.3     21.078     23.458
REMARK  3 active torsions:
REMARK  status: ('A' for Active; 'I' for Inactive)
REMARK    1  A    between atoms: C1_5  and  N1_3 
REMARK    2  A    between atoms: C11_15  and  N2_4 
REMARK    3  A    between atoms: C11_15  and  C12_16 
ROOT
HETATM    1  O1  UNK     1       5.732   6.072  15.965  1.00  0.00    -0.275 OA
HETATM    2  O2  UNK     1       5.860   8.249  15.275  1.00  0.00    -0.260 OA
HETATM    3  C12 UNK     1       5.443   5.333  13.249  1.00  0.00    -0.011 A 
HETATM    4  C13 UNK     1       5.443   4.307  14.302  1.00  0.00     0.012 A 
HETATM    5  C14 UNK     1       5.581   6.619  13.598  1.00  0.00     0.092 A 
HETATM    6  C15 UNK     1       5.588   4.711  15.629  1.00  0.00     0.091 A 
HETATM    7  C16 UNK     1       5.306   2.935  14.051  1.00  0.00    -0.048 A 
HETATM    8  C17 UNK     1       5.735   7.061  14.995  1.00  0.00     0.288 A 
HETATM    9  C18 UNK     1       5.599   3.801  16.688  1.00  0.00     0.045 A 
HETATM   10  C19 UNK     1       5.315   2.011  15.102  1.00  0.00     0.014 A 
HETATM   11  C20 UNK     1       5.462   2.443  16.419  1.00  0.00    -0.059 A 
HETATM   12  C21 UNK     1       5.142   2.329  12.694  1.00  0.00     0.049 C 
HETATM   13  C22 UNK     1       5.473   1.455  17.535  1.00  0.00     0.048 C 
ENDROOT
BRANCH   3  14
HETATM   14  C11 UNK     1       5.290   5.014  11.806  1.00  0.00     0.312 C 
BRANCH  14  15
HETATM   15  N2  UNK     1       6.495   5.510  11.146  1.00  0.00     0.096 N 
HETATM   16  C10 UNK     1       6.161   6.551  10.165  1.00  0.00     0.303 C 
HETATM   17  C7  UNK     1       7.424   7.072   9.471  1.00  0.00     0.303 C 
HETATM   18  N1  UNK     1       8.155   5.975   8.825  1.00  0.00     0.096 N 
HETATM   19  C6  UNK     1       8.489   4.934   9.804  1.00  0.00     0.303 C 
HETATM   20  C9  UNK     1       7.225   4.413  10.498  1.00  0.00     0.303 C 
BRANCH  18  21
HETATM   21  C1  UNK     1       9.362   6.474   8.166  1.00  0.00     0.223 C 
HETATM   22  C2  UNK     1      10.591   5.736   8.706  1.00  0.00     0.036 C 
HETATM   23  C4  UNK     1      11.865   6.176   7.986  1.00  0.00     0.002 C 
HETATM   24  C8  UNK     1      11.740   6.017   6.474  1.00  0.00     0.000 C 
HETATM   25  C5  UNK     1      10.511   6.741   5.932  1.00  0.00     0.002 C 
HETATM   26  C3  UNK     1       9.236   6.301   6.648  1.00  0.00     0.036 C 
ENDBRANCH  18  21
ENDBRANCH  14  15
ENDBRANCH   3  14
TORSDOF 3
ENDMDL
MODEL 5
REMARK VINA RESULT:      -8.3      2.492      9.026
REMARK  3 active torsions:
REMARK  status: ('A' for Active; 'I' for Inactive)
REMARK    1  A    between atoms: C1_5  and  N1_3 
REMARK    2  A    between atoms: C11_15  and  N2_4 
REMARK    3  A    between atoms: C11_15  and  C12_16 
ROOT
HETATM    1  O1  UNK     1      18.729   0.756  33.977  1.00  0.00    -0.275 OA
HETATM    2  O2  UNK     1      18.076   2.051  35.745  1.00  0.00    -0.260 OA
HETATM    3  C12 UNK     1      18.279   2.991  32.301  1.00  0.00    -0.011 A 
HETATM    4  C13 UNK     1      18.752   1.720  31.733  1.00  0.00     0.012 A 
HETATM    5  C14 UNK     1      18.065   3.070  33.622  1.00  0.00     0.092 A 
HETATM    6  C15 UNK     1      18.962   0.641  32.592  1.00  0.00     0.091 A 
HETATM    7  C16 UNK     1      19.008   1.526  30.369  1.00  0.00    -0.048 A 
HETATM    8  C17 UNK     1      18.283   1.940  34.541  1.00  0.00     0.288 A 
HETATM    9  C18 UNK     1      19.412  -0.599  32.134  1.00  0.00     0.045 A 
HETATM   10  C19 UNK     1      19.459   0.288  29.896  1.00  0.00     0.014 A 
HETATM   11  C20 UNK     1      19.660  -0.773  30.777  1.00  0.00    -0.059 A 
HETATM   12  C21 UNK     1      18.838   2.570  29.313  1.00  0.00     0.049 C 
HETATM   13  C22 UNK     1      20.142  -2.089  30.267  1.00  0.00     0.048 C 
ENDROOT
BRANCH   3  14
HETATM   14  C11 UNK     1      18.017   4.200  31.478  1.00  0.00     0.312 C 
BRANCH  14  15
HETATM   15  N2  UNK     1      17.932   5.321  32.411  1.00  0.00     0.096 N 
HETATM   16  C10 UNK     1      16.648   6.019  32.271  1.00  0.00     0.303 C 
HETATM   17  C7  UNK     1      16.557   7.196  33.248  1.00  0.00     0.303 C 
HETATM   18  N1  UNK     1      17.672   8.130  33.047  1.00  0.00     0.096 N 
HETATM   19  C6  UNK     1      18.956   7.432  33.185  1.00  0.00     0.303 C 
HETATM   20  C9  UNK     1      19.046   6.255  32.208  1.00  0.00     0.303 C 
BRANCH  18  21
HETATM   21  C1  UNK     1      17.586   9.250  33.982  1.00  0.00     0.223 C 
HETATM   22  C2  UNK     1      18.775  10.193  33.775  1.00  0.00     0.036 C 
HETATM   23  C4  UNK     1      18.679  11.418  34.683  1.00  0.00     0.002 C 
HETATM   24  C8  UNK     1      17.352  12.148  34.505  1.00  0.00     0.000 C 
HETATM   25  C5  UNK     1      16.163  11.211  34.699  1.00  0.00     0.002 C 
HETATM   26  C3  UNK     1      16.255   9.987  33.791  1.00  0.00     0.036 C 
ENDBRANCH  18  21
ENDBRANCH  14  15
ENDBRANCH   3  14
TORSDOF 3
ENDMDL
MODEL 6
REMARK VINA RESULT:      -8.3      2.319      3.364
REMARK  3 active torsions:
REMARK  status: ('A' for Active; 'I' for Inactive)
REMARK    1  A    between atoms: C1_5  and  N1_3 
REMARK    2  A    between atoms: C11_15  and  N2_4 
REMARK    3  A    between atoms: C11_15  and  C12_16 
ROOT
HETATM    1  O1  UNK     1      14.840   8.453  32.661  1.00  0.00    -0.275 OA
HETATM    2  O2  UNK     1      13.727   6.724  31.659  1.00  0.00    -0.260 OA
HETATM    3  C12 UNK     1      17.201   6.905  32.485  1.00  0.00    -0.011 A 
HETATM    4  C13 UNK     1      17.236   8.246  33.085  1.00  0.00     0.012 A 
HETATM    5  C14 UNK     1      16.035   6.430  32.025  1.00  0.00     0.092 A 
HETATM    6  C15 UNK     1      16.051   8.978  33.154  1.00  0.00     0.091 A 
HETATM    7  C16 UNK     1      18.398   8.839  33.596  1.00  0.00    -0.048 A 
HETATM    8  C17 UNK     1      14.776   7.192  32.090  1.00  0.00     0.288 A 
HETATM    9  C18 UNK     1      15.997  10.260  33.707  1.00  0.00     0.045 A 
HETATM   10  C19 UNK     1      18.360  10.122  34.154  1.00  0.00     0.014 A 
HETATM   11  C20 UNK     1      17.161  10.831  34.209  1.00  0.00    -0.059 A 
HETATM   12  C21 UNK     1      19.749   8.200  33.603  1.00  0.00     0.049 C 
HETATM   13  C22 UNK     1      17.126  12.198  34.804  1.00  0.00     0.048 C 
ENDROOT
BRANCH   3  14
HETATM   14  C11 UNK     1      18.402   6.038  32.366  1.00  0.00     0.312 C 
BRANCH  14  15
HETATM   15  N2  UNK     1      18.018   4.730  32.892  1.00  0.00     0.096 N 
HETATM   16  C10 UNK     1      18.629   4.496  34.206  1.00  0.00     0.303 C 
HETATM   17  C7  UNK     1      18.228   3.124  34.759  1.00  0.00     0.303 C 
HETATM   18  N1  UNK     1      18.600   2.055  33.824  1.00  0.00     0.096 N 
HETATM   19  C6  UNK     1      17.990   2.288  32.510  1.00  0.00     0.303 C 
HETATM   20  C9  UNK     1      18.391   3.661  31.958  1.00  0.00     0.303 C 
BRANCH  18  21
HETATM   21  C1  UNK     1      18.213   0.747  34.351  1.00  0.00     0.223 C 
HETATM   22  C2  UNK     1      18.982   0.461  35.645  1.00  0.00     0.036 C 
HETATM   23  C4  UNK     1      18.547  -0.865  36.269  1.00  0.00     0.002 C 
HETATM   24  C8  UNK     1      17.040  -0.913  36.495  1.00  0.00     0.000 C 
HETATM   25  C5  UNK     1      16.268  -0.617  35.212  1.00  0.00     0.002 C 
HETATM   26  C3  UNK     1      16.699   0.709  34.589  1.00  0.00     0.036 C 
ENDBRANCH  18  21
ENDBRANCH  14  15
ENDBRANCH   3  14
TORSDOF 3
ENDMDL
MODEL 7
REMARK VINA RESULT:      -8.2     17.427     18.986
REMARK  3 active torsions:
REMARK  status: ('A' for Active; 'I' for Inactive)
REMARK    1  A    between atoms: C1_5  and  N1_3 
REMARK    2  A    between atoms: C11_15  and  N2_4 
REMARK    3  A    between atoms: C11_15  and  C12_16 
ROOT
HETATM    1  O1  UNK     1      30.569  -3.870  37.971  1.00  0.00    -0.275 OA
HETATM    2  O2  UNK     1      28.837  -3.913  39.464  1.00  0.00    -0.260 OA
HETATM    3  C12 UNK     1      30.496  -6.698  37.956  1.00  0.00    -0.011 A 
HETATM    4  C13 UNK     1      31.476  -5.977  37.131  1.00  0.00     0.012 A 
HETATM    5  C14 UNK     1      29.642  -5.995  38.712  1.00  0.00     0.092 A 
HETATM    6  C15 UNK     1      31.480  -4.582  37.165  1.00  0.00     0.091 A 
HETATM    7  C16 UNK     1      32.413  -6.610  36.304  1.00  0.00    -0.048 A 
HETATM    8  C17 UNK     1      29.635  -4.523  38.759  1.00  0.00     0.288 A 
HETATM    9  C18 UNK     1      32.376  -3.821  36.411  1.00  0.00     0.045 A 
HETATM   10  C19 UNK     1      33.317  -5.861  35.543  1.00  0.00     0.014 A 
HETATM   11  C20 UNK     1      33.299  -4.468  35.597  1.00  0.00    -0.059 A 
HETATM   12  C21 UNK     1      32.547  -8.091  36.145  1.00  0.00     0.049 C 
HETATM   13  C22 UNK     1      34.264  -3.674  34.783  1.00  0.00     0.048 C 
ENDROOT
BRANCH   3  14
HETATM   14  C11 UNK     1      30.408  -8.181  37.999  1.00  0.00     0.312 C 
BRANCH  14  15
HETATM   15  N2  UNK     1      28.990  -8.512  37.874  1.00  0.00     0.096 N 
HETATM   16  C10 UNK     1      28.634  -9.625  38.763  1.00  0.00     0.303 C 
HETATM   17  C7  UNK     1      27.147  -9.973  38.632  1.00  0.00     0.303 C 
HETATM   18  N1  UNK     1      26.807 -10.300  37.241  1.00  0.00     0.096 N 
HETATM   19  C6  UNK     1      27.164  -9.188  36.352  1.00  0.00     0.303 C 
HETATM   20  C9  UNK     1      28.651  -8.839  36.483  1.00  0.00     0.303 C 
BRANCH  18  21
HETATM   21  C1  UNK     1      25.388 -10.628  37.118  1.00  0.00     0.223 C 
HETATM   22  C2  UNK     1      24.585  -9.359  36.813  1.00  0.00     0.036 C 
HETATM   23  C4  UNK     1      23.105  -9.674  36.601  1.00  0.00     0.002 C 
HETATM   24  C8  UNK     1      22.904 -10.731  35.521  1.00  0.00     0.000 C 
HETATM   25  C5  UNK     1      23.710 -11.995  35.813  1.00  0.00     0.002 C 
HETATM   26  C3  UNK     1      25.190 -11.682  36.023  1.00  0.00     0.036 C 
ENDBRANCH  18  21
ENDBRANCH  14  15
ENDBRANCH   3  14
TORSDOF 3
ENDMDL
MODEL 8
REMARK VINA RESULT:      -8.2     21.859     24.220
REMARK  3 active torsions:
REMARK  status: ('A' for Active; 'I' for Inactive)
REMARK    1  A    between atoms: C1_5  and  N1_3 
REMARK    2  A    between atoms: C11_15  and  N2_4 
REMARK    3  A    between atoms: C11_15  and  C12_16 
ROOT
HETATM    1  O1  UNK     1       5.215   1.754  12.375  1.00  0.00    -0.275 OA
HETATM    2  O2  UNK     1       5.016   1.487  10.112  1.00  0.00    -0.260 OA
HETATM    3  C12 UNK     1       5.346   4.546  11.934  1.00  0.00    -0.011 A 
HETATM    4  C13 UNK     1       5.424   4.005  13.298  1.00  0.00     0.012 A 
HETATM    5  C14 UNK     1       5.212   3.696  10.907  1.00  0.00     0.092 A 
HETATM    6  C15 UNK     1       5.356   2.623  13.475  1.00  0.00     0.091 A 
HETATM    7  C16 UNK     1       5.564   4.801  14.443  1.00  0.00    -0.048 A 
HETATM    8  C17 UNK     1       5.139   2.234  11.077  1.00  0.00     0.288 A 
HETATM    9  C18 UNK     1       5.422   2.029  14.737  1.00  0.00     0.045 A 
HETATM   10  C19 UNK     1       5.632   4.220  15.714  1.00  0.00     0.014 A 
HETATM   11  C20 UNK     1       5.561   2.836  15.861  1.00  0.00    -0.059 A 
HETATM   12  C21 UNK     1       5.651   6.294  14.438  1.00  0.00     0.049 C 
HETATM   13  C22 UNK     1       5.633   2.222  17.218  1.00  0.00     0.048 C 
ENDROOT
BRANCH   3  14
HETATM   14  C11 UNK     1       5.413   5.999  11.632  1.00  0.00     0.312 C 
BRANCH  14  15
HETATM   15  N2  UNK     1       6.292   6.137  10.472  1.00  0.00     0.096 N 
HETATM   16  C10 UNK     1       7.597   5.517  10.730  1.00  0.00     0.303 C 
HETATM   17  C7  UNK     1       8.520   5.661   9.515  1.00  0.00     0.303 C 
HETATM   18  N1  UNK     1       8.688   7.074   9.152  1.00  0.00     0.096 N 
HETATM   19  C6  UNK     1       7.383   7.696   8.895  1.00  0.00     0.303 C 
HETATM   20  C9  UNK     1       6.460   7.550  10.110  1.00  0.00     0.303 C 
BRANCH  18  21
HETATM   21  C1  UNK     1       9.565   7.210   7.991  1.00  0.00     0.223 C 
HETATM   22  C2  UNK     1      11.017   6.943   8.403  1.00  0.00     0.036 C 
HETATM   23  C4  UNK     1      11.957   7.000   7.199  1.00  0.00     0.002 C 
HETATM   24  C8  UNK     1      11.510   6.052   6.091  1.00  0.00     0.000 C 
HETATM   25  C5  UNK     1      10.060   6.305   5.684  1.00  0.00     0.002 C 
HETATM   26  C3  UNK     1       9.119   6.246   6.885  1.00  0.00     0.036 C 
ENDBRANCH  18  21
ENDBRANCH  14  15
ENDBRANCH   3  14
TORSDOF 3
ENDMDL
MODEL 9
REMARK VINA RESULT:      -8.2     22.068     24.476
REMARK  3 active torsions:
REMARK  status: ('A' for Active; 'I' for Inactive)
REMARK    1  A    between atoms: C1_5  and  N1_3 
REMARK    2  A    between atoms: C11_15  and  N2_4 
REMARK    3  A    between atoms: C11_15  and  C12_16 
ROOT
HETATM    1  O1  UNK     1      13.801   4.930   8.531  1.00  0.00    -0.275 OA
HETATM    2  O2  UNK     1      15.755   4.409   9.598  1.00  0.00    -0.260 OA
HETATM    3  C12 UNK     1      13.798   7.380   9.945  1.00  0.00    -0.011 A 
HETATM    4  C13 UNK     1      12.713   7.065   9.004  1.00  0.00     0.012 A 
HETATM    5  C14 UNK     1      14.783   6.490  10.120  1.00  0.00     0.092 A 
HETATM    6  C15 UNK     1      12.750   5.847   8.325  1.00  0.00     0.091 A 
HETATM    7  C16 UNK     1      11.636   7.922   8.744  1.00  0.00    -0.048 A 
HETATM    8  C17 UNK     1      14.836   5.199   9.411  1.00  0.00     0.288 A 
HETATM    9  C18 UNK     1      11.761   5.471   7.414  1.00  0.00     0.045 A 
HETATM   10  C19 UNK     1      10.637   7.559   7.833  1.00  0.00     0.014 A 
HETATM   11  C20 UNK     1      10.700   6.335   7.170  1.00  0.00    -0.059 A 
HETATM   12  C21 UNK     1      11.439   9.261   9.378  1.00  0.00     0.049 C 
HETATM   13  C22 UNK     1       9.633   5.953   6.200  1.00  0.00     0.048 C 
ENDROOT
BRANCH   3  14
HETATM   14  C11 UNK     1      13.854   8.645  10.723  1.00  0.00     0.312 C 
BRANCH  14  15
HETATM   15  N2  UNK     1      15.110   9.297  10.357  1.00  0.00     0.096 N 
HETATM   16  C10 UNK     1      15.396  10.420  11.258  1.00  0.00     0.303 C 
HETATM   17  C7  UNK     1      16.712  11.105  10.875  1.00  0.00     0.303 C 
HETATM   18  N1  UNK     1      16.676  11.564   9.480  1.00  0.00     0.096 N 
HETATM   19  C6  UNK     1      16.389  10.441   8.579  1.00  0.00     0.303 C 
HETATM   20  C9  UNK     1      15.072   9.756   8.963  1.00  0.00     0.303 C 
BRANCH  18  21
HETATM   21  C1  UNK     1      17.934  12.214   9.116  1.00  0.00     0.223 C 
HETATM   22  C2  UNK     1      19.054  11.737  10.047  1.00  0.00     0.036 C 
HETATM   23  C4  UNK     1      20.401  12.336   9.648  1.00  0.00     0.002 C 
HETATM   24  C8  UNK     1      20.734  12.052   8.187  1.00  0.00     0.000 C 
HETATM   25  C5  UNK     1      19.617  12.514   7.255  1.00  0.00     0.002 C 
HETATM   26  C3  UNK     1      18.269  11.914   7.650  1.00  0.00     0.036 C 
ENDBRANCH  18  21
ENDBRANCH  14  15
ENDBRANCH   3  14
TORSDOF 3
ENDMDL
MODEL 10
REMARK VINA RESULT:      -8.1     16.504     19.029
REMARK  3 active torsions:
REMARK  status: ('A' for Active; 'I' for Inactive)
REMARK    1  A    between atoms: C1_5  and  N1_3 
REMARK    2  A    between atoms: C11_15  and  N2_4 
REMARK    3  A    between atoms: C11_15  and  C12_16 
ROOT
HETATM    1  O1  UNK     1      30.553  -4.648  38.602  1.00  0.00    -0.275 OA
HETATM    2  O2  UNK     1      28.585  -3.784  39.386  1.00  0.00    -0.260 OA
HETATM    3  C12 UNK     1      29.397  -7.221  38.824  1.00  0.00    -0.011 A 
HETATM    4  C13 UNK     1      30.774  -7.065  38.334  1.00  0.00     0.012 A 
HETATM    5  C14 UNK     1      28.702  -6.126  39.162  1.00  0.00     0.092 A 
HETATM    6  C15 UNK     1      31.309  -5.780  38.239  1.00  0.00     0.091 A 
HETATM    7  C16 UNK     1      31.590  -8.139  37.953  1.00  0.00    -0.048 A 
HETATM    8  C17 UNK     1      29.252  -4.763  39.067  1.00  0.00     0.288 A 
HETATM    9  C18 UNK     1      32.607  -5.545  37.783  1.00  0.00     0.045 A 
HETATM   10  C19 UNK     1      32.893  -7.919  37.494  1.00  0.00     0.014 A 
HETATM   11  C20 UNK     1      33.401  -6.624  37.409  1.00  0.00    -0.059 A 
HETATM   12  C21 UNK     1      31.179  -9.576  37.990  1.00  0.00     0.049 C 
HETATM   13  C22 UNK     1      34.791  -6.395  36.918  1.00  0.00     0.048 C 
ENDROOT
BRANCH   3  14
HETATM   14  C11 UNK     1      28.732  -8.542  38.970  1.00  0.00     0.312 C 
BRANCH  14  15
HETATM   15  N2  UNK     1      27.517  -8.481  38.161  1.00  0.00     0.096 N 
HETATM   16  C10 UNK     1      26.322  -8.473  39.015  1.00  0.00     0.303 C 
HETATM   17  C7  UNK     1      25.047  -8.411  38.168  1.00  0.00     0.303 C 
HETATM   18  N1  UNK     1      24.992  -9.533  37.222  1.00  0.00     0.096 N 
HETATM   19  C6  UNK     1      26.187  -9.543  36.369  1.00  0.00     0.303 C 
HETATM   20  C9  UNK     1      27.462  -9.604  37.217  1.00  0.00     0.303 C 
BRANCH  18  21
HETATM   21  C1  UNK     1      23.777  -9.470  36.413  1.00  0.00     0.223 C 
HETATM   22  C2  UNK     1      23.312 -10.887  36.061  1.00  0.00     0.036 C 
HETATM   23  C4  UNK     1      22.000 -10.865  35.279  1.00  0.00     0.002 C 
HETATM   24  C8  UNK     1      20.915 -10.093  36.023  1.00  0.00     0.000 C 
HETATM   25  C5  UNK     1      21.375  -8.683  36.386  1.00  0.00     0.002 C 
HETATM   26  C3  UNK     1      22.686  -8.704  37.170  1.00  0.00     0.036 C 
ENDBRANCH  18  21
ENDBRANCH  14  15
ENDBRANCH   3  14
TORSDOF 3
ENDMDL
