MODEL 1
REMARK VINA RESULT:      -9.0      0.000      0.000
REMARK  3 active torsions:
REMARK  status: ('A' for Active; 'I' for Inactive)
REMARK       I    between atoms: C11_16  and  N1_5 
REMARK    1  A    between atoms: C4_9  and  N1_5 
REMARK    2  A    between atoms: C11_16  and  C12_17 
REMARK    3  A    between atoms: C13_18  and  C14_19 
ROOT
HETATM    1  O1  UNK     1      21.190  -8.841  35.193  1.00  0.00    -0.275 OA
HETATM    2  O2  UNK     1      22.257 -10.749  34.522  1.00  0.00    -0.260 OA
HETATM    3  C1  UNK     1      19.774  -8.900  37.182  1.00  0.00     0.004 A 
HETATM    4  C2  UNK     1      20.332  -8.203  36.110  1.00  0.00     0.092 A 
HETATM    5  C3  UNK     1      20.097 -10.326  37.338  1.00  0.00    -0.043 A 
HETATM    6  C4  UNK     1      19.239  -6.164  36.762  1.00  0.00     0.037 A 
HETATM    7  C5  UNK     1      18.932  -8.194  38.050  1.00  0.00     0.017 A 
HETATM    8  C6  UNK     1      20.077  -6.848  35.889  1.00  0.00     0.067 A 
HETATM    9  C7  UNK     1      18.667  -6.836  37.842  1.00  0.00     0.030 A 
HETATM   10  C8  UNK     1      20.915 -10.908  36.450  1.00  0.00     0.090 A 
HETATM   11  C9  UNK     1      19.512 -11.105  38.480  1.00  0.00     0.049 C 
HETATM   12  C10 UNK     1      21.513 -10.183  35.314  1.00  0.00     0.288 A 
ENDROOT
BRANCH   6  13
HETATM   13  N1  UNK     1      18.972  -4.810  36.561  1.00  0.00    -0.324 N 
HETATM   14  C11 UNK     1      19.907  -3.781  36.585  1.00  0.00     0.245 C 
HETATM   15  O4  UNK     1      21.114  -3.860  36.783  1.00  0.00    -0.268 OA
HETATM   16  H8  UNK     1      17.998  -4.576  36.380  1.00  0.00     0.169 HD
BRANCH  14  17
HETATM   17  C12 UNK     1      19.251  -2.461  36.326  1.00  0.00     0.077 C 
HETATM   18  C14 UNK     1      18.205  -2.071  37.069  1.00  0.00     0.042 C 
BRANCH  18  19
HETATM   19  C13 UNK     1      17.494  -0.792  36.904  1.00  0.00     0.075 A 
HETATM   20  O3  UNK     1      16.618  -0.642  35.917  1.00  0.00    -0.323 OA
HETATM   21  C17 UNK     1      16.159   0.629  36.061  1.00  0.00     0.142 A 
HETATM   22  C16 UNK     1      16.762   1.241  37.135  1.00  0.00     0.027 A 
HETATM   23  C15 UNK     1      17.647   0.285  37.688  1.00  0.00     0.039 A 
ENDBRANCH  18  19
ENDBRANCH  14  17
ENDBRANCH   6  13
TORSDOF 3
ENDMDL
MODEL 2
REMARK VINA RESULT:      -8.9      1.628      2.377
REMARK  3 active torsions:
REMARK  status: ('A' for Active; 'I' for Inactive)
REMARK       I    between atoms: C11_16  and  N1_5 
REMARK    1  A    between atoms: C4_9  and  N1_5 
REMARK    2  A    between atoms: C11_16  and  C12_17 
REMARK    3  A    between atoms: C13_18  and  C14_19 
ROOT
HETATM    1  O1  UNK     1      19.134  -9.147  38.334  1.00  0.00    -0.275 OA
HETATM    2  O2  UNK     1      19.131 -11.176  39.387  1.00  0.00    -0.260 OA
HETATM    3  C1  UNK     1      20.364  -8.889  36.239  1.00  0.00     0.004 A 
HETATM    4  C2  UNK     1      19.559  -8.356  37.248  1.00  0.00     0.092 A 
HETATM    5  C3  UNK     1      20.763 -10.301  36.330  1.00  0.00    -0.043 A 
HETATM    6  C4  UNK     1      19.523  -6.198  36.190  1.00  0.00     0.037 A 
HETATM    7  C5  UNK     1      20.744  -8.038  35.193  1.00  0.00     0.017 A 
HETATM    8  C6  UNK     1      19.135  -7.026  37.237  1.00  0.00     0.067 A 
HETATM    9  C7  UNK     1      20.326  -6.703  35.169  1.00  0.00     0.030 A 
HETATM   10  C8  UNK     1      20.345 -11.028  37.375  1.00  0.00     0.090 A 
HETATM   11  C9  UNK     1      21.629 -10.903  35.262  1.00  0.00     0.049 C 
HETATM   12  C10 UNK     1      19.495 -10.479  38.446  1.00  0.00     0.288 A 
ENDROOT
BRANCH   6  13
HETATM   13  N1  UNK     1      19.108  -4.866  36.160  1.00  0.00    -0.324 N 
HETATM   14  C11 UNK     1      19.891  -3.760  36.470  1.00  0.00     0.245 C 
HETATM   15  O4  UNK     1      21.065  -3.739  36.821  1.00  0.00    -0.268 OA
HETATM   16  H8  UNK     1      18.142  -4.714  35.881  1.00  0.00     0.169 HD
BRANCH  14  17
HETATM   17  C12 UNK     1      19.106  -2.495  36.323  1.00  0.00     0.077 C 
HETATM   18  C14 UNK     1      18.616  -1.876  37.407  1.00  0.00     0.042 C 
BRANCH  18  19
HETATM   19  C13 UNK     1      17.839  -0.625  37.376  1.00  0.00     0.075 A 
HETATM   20  O3  UNK     1      18.118   0.351  38.232  1.00  0.00    -0.323 OA
HETATM   21  C17 UNK     1      17.231   1.334  37.928  1.00  0.00     0.142 A 
HETATM   22  C16 UNK     1      16.418   0.945  36.888  1.00  0.00     0.027 A 
HETATM   23  C15 UNK     1      16.834  -0.360  36.530  1.00  0.00     0.039 A 
ENDBRANCH  18  19
ENDBRANCH  14  17
ENDBRANCH   6  13
TORSDOF 3
ENDMDL
MODEL 3
REMARK VINA RESULT:      -8.8      4.277      9.044
REMARK  3 active torsions:
REMARK  status: ('A' for Active; 'I' for Inactive)
REMARK       I    between atoms: C11_16  and  N1_5 
REMARK    1  A    between atoms: C4_9  and  N1_5 
REMARK    2  A    between atoms: C11_16  and  C12_17 
REMARK    3  A    between atoms: C13_18  and  C14_19 
ROOT
HETATM    1  O1  UNK     1      18.372   0.963  32.232  1.00  0.00    -0.275 OA
HETATM    2  O2  UNK     1      17.667   2.795  31.059  1.00  0.00    -0.260 OA
HETATM    3  C1  UNK     1      19.835  -0.662  31.146  1.00  0.00     0.004 A 
HETATM    4  C2  UNK     1      19.120  -0.230  32.263  1.00  0.00     0.092 A 
HETATM    5  C3  UNK     1      19.795   0.156  29.925  1.00  0.00    -0.043 A 
HETATM    6  C4  UNK     1      19.825  -2.133  33.551  1.00  0.00     0.037 A 
HETATM    7  C5  UNK     1      20.555  -1.859  31.256  1.00  0.00     0.017 A 
HETATM    8  C6  UNK     1      19.105  -0.947  33.461  1.00  0.00     0.067 A 
HETATM    9  C7  UNK     1      20.550  -2.588  32.450  1.00  0.00     0.030 A 
HETATM   10  C8  UNK     1      19.075   1.286  29.924  1.00  0.00     0.090 A 
HETATM   11  C9  UNK     1      20.554  -0.282  28.705  1.00  0.00     0.049 C 
HETATM   12  C10 UNK     1      18.315   1.755  31.097  1.00  0.00     0.288 A 
ENDROOT
BRANCH   6  13
HETATM   13  N1  UNK     1      19.826  -2.864  34.739  1.00  0.00    -0.324 N 
HETATM   14  C11 UNK     1      20.581  -2.582  35.872  1.00  0.00     0.245 C 
HETATM   15  O4  UNK     1      21.372  -1.662  36.043  1.00  0.00    -0.268 OA
HETATM   16  H8  UNK     1      19.208  -3.673  34.757  1.00  0.00     0.169 HD
BRANCH  14  17
HETATM   17  C12 UNK     1      20.317  -3.585  36.950  1.00  0.00     0.077 C 
HETATM   18  C14 UNK     1      20.234  -4.889  36.651  1.00  0.00     0.042 C 
BRANCH  18  19
HETATM   19  C13 UNK     1      19.988  -5.958  37.634  1.00  0.00     0.075 A 
HETATM   20  O3  UNK     1      18.989  -6.814  37.448  1.00  0.00    -0.323 OA
HETATM   21  C17 UNK     1      19.052  -7.648  38.519  1.00  0.00     0.142 A 
HETATM   22  C16 UNK     1      20.089  -7.290  39.349  1.00  0.00     0.027 A 
HETATM   23  C15 UNK     1      20.703  -6.164  38.748  1.00  0.00     0.039 A 
ENDBRANCH  18  19
ENDBRANCH  14  17
ENDBRANCH   6  13
TORSDOF 3
ENDMDL
MODEL 4
REMARK VINA RESULT:      -8.7      4.456      8.950
REMARK  3 active torsions:
REMARK  status: ('A' for Active; 'I' for Inactive)
REMARK       I    between atoms: C11_16  and  N1_5 
REMARK    1  A    between atoms: C4_9  and  N1_5 
REMARK    2  A    between atoms: C11_16  and  C12_17 
REMARK    3  A    between atoms: C13_18  and  C14_19 
ROOT
HETATM    1  O1  UNK     1      20.024  -1.106  30.369  1.00  0.00    -0.275 OA
HETATM    2  O2  UNK     1      20.452  -0.606  28.179  1.00  0.00    -0.260 OA
HETATM    3  C1  UNK     1      18.948   0.565  31.788  1.00  0.00     0.004 A 
HETATM    4  C2  UNK     1      19.505  -0.703  31.615  1.00  0.00     0.092 A 
HETATM    5  C3  UNK     1      18.910   1.480  30.638  1.00  0.00    -0.043 A 
HETATM    6  C4  UNK     1      19.084  -1.290  33.908  1.00  0.00     0.037 A 
HETATM    7  C5  UNK     1      18.452   0.890  33.058  1.00  0.00     0.017 A 
HETATM    8  C6  UNK     1      19.580  -1.632  32.655  1.00  0.00     0.067 A 
HETATM    9  C7  UNK     1      18.520  -0.031  34.109  1.00  0.00     0.030 A 
HETATM   10  C8  UNK     1      19.411   1.069  29.465  1.00  0.00     0.090 A 
HETATM   11  C9  UNK     1      18.317   2.850  30.792  1.00  0.00     0.049 C 
HETATM   12  C10 UNK     1      20.003  -0.266  29.268  1.00  0.00     0.288 A 
ENDROOT
BRANCH   6  13
HETATM   13  N1  UNK     1      19.147  -2.204  34.959  1.00  0.00    -0.324 N 
HETATM   14  C11 UNK     1      20.278  -2.514  35.706  1.00  0.00     0.245 C 
HETATM   15  O4  UNK     1      21.410  -2.058  35.589  1.00  0.00    -0.268 OA
HETATM   16  H8  UNK     1      18.273  -2.674  35.185  1.00  0.00     0.169 HD
BRANCH  14  17
HETATM   17  C12 UNK     1      19.962  -3.538  36.750  1.00  0.00     0.077 C 
HETATM   18  C14 UNK     1      20.115  -4.843  36.482  1.00  0.00     0.042 C 
BRANCH  18  19
HETATM   19  C13 UNK     1      19.842  -5.930  37.438  1.00  0.00     0.075 A 
HETATM   20  O3  UNK     1      18.915  -6.839  37.162  1.00  0.00    -0.323 OA
HETATM   21  C17 UNK     1      18.928  -7.675  38.233  1.00  0.00     0.142 A 
HETATM   22  C16 UNK     1      19.864  -7.264  39.153  1.00  0.00     0.027 A 
HETATM   23  C15 UNK     1      20.466  -6.102  38.612  1.00  0.00     0.039 A 
ENDBRANCH  18  19
ENDBRANCH  14  17
ENDBRANCH   6  13
TORSDOF 3
ENDMDL
MODEL 5
REMARK VINA RESULT:      -8.7      7.373     10.523
REMARK  3 active torsions:
REMARK  status: ('A' for Active; 'I' for Inactive)
REMARK       I    between atoms: C11_16  and  N1_5 
REMARK    1  A    between atoms: C4_9  and  N1_5 
REMARK    2  A    between atoms: C11_16  and  C12_17 
REMARK    3  A    between atoms: C13_18  and  C14_19 
ROOT
HETATM    1  O1  UNK     1      19.350  -0.387  32.797  1.00  0.00    -0.275 OA
HETATM    2  O2  UNK     1      20.143  -2.514  33.076  1.00  0.00    -0.260 OA
HETATM    3  C1  UNK     1      19.306   0.589  30.558  1.00  0.00     0.004 A 
HETATM    4  C2  UNK     1      19.062   0.685  31.928  1.00  0.00     0.092 A 
HETATM    5  C3  UNK     1      19.876  -0.660  30.031  1.00  0.00    -0.043 A 
HETATM    6  C4  UNK     1      18.217   2.924  31.703  1.00  0.00     0.037 A 
HETATM    7  C5  UNK     1      18.991   1.697  29.761  1.00  0.00     0.017 A 
HETATM    8  C6  UNK     1      18.523   1.834  32.510  1.00  0.00     0.067 A 
HETATM    9  C7  UNK     1      18.451   2.856  30.330  1.00  0.00     0.030 A 
HETATM   10  C8  UNK     1      20.141  -1.662  30.880  1.00  0.00     0.090 A 
HETATM   11  C9  UNK     1      20.151  -0.795  28.561  1.00  0.00     0.049 C 
HETATM   12  C10 UNK     1      19.887  -1.575  32.329  1.00  0.00     0.288 A 
ENDROOT
BRANCH   6  13
HETATM   13  N1  UNK     1      17.676   4.081  32.263  1.00  0.00    -0.324 N 
HETATM   14  C11 UNK     1      18.355   5.273  32.490  1.00  0.00     0.245 C 
HETATM   15  O4  UNK     1      19.529   5.533  32.250  1.00  0.00    -0.268 OA
HETATM   16  H8  UNK     1      16.693   4.026  32.520  1.00  0.00     0.169 HD
BRANCH  14  17
HETATM   17  C12 UNK     1      17.449   6.293  33.104  1.00  0.00     0.077 C 
HETATM   18  C14 UNK     1      16.652   7.041  32.327  1.00  0.00     0.042 C 
BRANCH  18  19
HETATM   19  C13 UNK     1      15.718   8.064  32.828  1.00  0.00     0.075 A 
HETATM   20  O3  UNK     1      15.712   9.277  32.289  1.00  0.00    -0.323 OA
HETATM   21  C17 UNK     1      14.749   9.948  32.973  1.00  0.00     0.142 A 
HETATM   22  C16 UNK     1      14.178   9.135  33.925  1.00  0.00     0.027 A 
HETATM   23  C15 UNK     1      14.832   7.884  33.817  1.00  0.00     0.039 A 
ENDBRANCH  18  19
ENDBRANCH  14  17
ENDBRANCH   6  13
TORSDOF 3
ENDMDL
MODEL 6
REMARK VINA RESULT:      -8.6      8.156     14.170
REMARK  3 active torsions:
REMARK  status: ('A' for Active; 'I' for Inactive)
REMARK       I    between atoms: C11_16  and  N1_5 
REMARK    1  A    between atoms: C4_9  and  N1_5 
REMARK    2  A    between atoms: C11_16  and  C12_17 
REMARK    3  A    between atoms: C13_18  and  C14_19 
ROOT
HETATM    1  O1  UNK     1      15.786   7.080  33.183  1.00  0.00    -0.275 OA
HETATM    2  O2  UNK     1      14.337   8.627  34.043  1.00  0.00    -0.260 OA
HETATM    3  C1  UNK     1      18.179   7.567  33.159  1.00  0.00     0.004 A 
HETATM    4  C2  UNK     1      17.111   6.714  32.878  1.00  0.00     0.092 A 
HETATM    5  C3  UNK     1      17.895   8.866  33.785  1.00  0.00    -0.043 A 
HETATM    6  C4  UNK     1      18.580   5.046  31.960  1.00  0.00     0.037 A 
HETATM    7  C5  UNK     1      19.467   7.130  32.825  1.00  0.00     0.017 A 
HETATM    8  C6  UNK     1      17.294   5.463  32.285  1.00  0.00     0.067 A 
HETATM    9  C7  UNK     1      19.666   5.879  32.231  1.00  0.00     0.030 A 
HETATM   10  C8  UNK     1      16.624   9.189  34.064  1.00  0.00     0.090 A 
HETATM   11  C9  UNK     1      19.021   9.807  34.100  1.00  0.00     0.049 C 
HETATM   12  C10 UNK     1      15.487   8.298  33.773  1.00  0.00     0.288 A 
ENDROOT
BRANCH   6  13
HETATM   13  N1  UNK     1      18.785   3.800  31.369  1.00  0.00    -0.324 N 
HETATM   14  C11 UNK     1      18.698   3.516  30.011  1.00  0.00     0.245 C 
HETATM   15  O4  UNK     1      18.431   4.284  29.093  1.00  0.00    -0.268 OA
HETATM   16  H8  UNK     1      19.020   3.044  32.009  1.00  0.00     0.169 HD
BRANCH  14  17
HETATM   17  C12 UNK     1      18.983   2.070  29.750  1.00  0.00     0.077 C 
HETATM   18  C14 UNK     1      19.589   1.324  30.686  1.00  0.00     0.042 C 
BRANCH  18  19
HETATM   19  C13 UNK     1      19.907  -0.106  30.536  1.00  0.00     0.075 A 
HETATM   20  O3  UNK     1      19.962  -0.889  31.607  1.00  0.00    -0.323 OA
HETATM   21  C17 UNK     1      20.271  -2.117  31.115  1.00  0.00     0.142 A 
HETATM   22  C16 UNK     1      20.402  -2.069  29.746  1.00  0.00     0.027 A 
HETATM   23  C15 UNK     1      20.158  -0.725  29.374  1.00  0.00     0.039 A 
ENDBRANCH  18  19
ENDBRANCH  14  17
ENDBRANCH   6  13
TORSDOF 3
ENDMDL
MODEL 7
REMARK VINA RESULT:      -8.5      7.835     10.689
REMARK  3 active torsions:
REMARK  status: ('A' for Active; 'I' for Inactive)
REMARK       I    between atoms: C11_16  and  N1_5 
REMARK    1  A    between atoms: C4_9  and  N1_5 
REMARK    2  A    between atoms: C11_16  and  C12_17 
REMARK    3  A    between atoms: C13_18  and  C14_19 
ROOT
HETATM    1  O1  UNK     1      19.494   1.029  29.441  1.00  0.00    -0.275 OA
HETATM    2  O2  UNK     1      20.337  -0.644  28.130  1.00  0.00    -0.260 OA
HETATM    3  C1  UNK     1      19.026   0.581  31.796  1.00  0.00     0.004 A 
HETATM    4  C2  UNK     1      19.041   1.452  30.707  1.00  0.00     0.092 A 
HETATM    5  C3  UNK     1      19.496  -0.799  31.601  1.00  0.00    -0.043 A 
HETATM    6  C4  UNK     1      18.156   3.253  32.031  1.00  0.00     0.037 A 
HETATM    7  C5  UNK     1      18.563   1.078  33.021  1.00  0.00     0.017 A 
HETATM    8  C6  UNK     1      18.613   2.777  30.807  1.00  0.00     0.067 A 
HETATM    9  C7  UNK     1      18.131   2.404  33.137  1.00  0.00     0.030 A 
HETATM   10  C8  UNK     1      19.920  -1.174  30.386  1.00  0.00     0.090 A 
HETATM   11  C9  UNK     1      19.492  -1.761  32.753  1.00  0.00     0.049 C 
HETATM   12  C10 UNK     1      19.941  -0.265  29.227  1.00  0.00     0.288 A 
ENDROOT
BRANCH   6  13
HETATM   13  N1  UNK     1      17.726   4.573  32.153  1.00  0.00    -0.324 N 
HETATM   14  C11 UNK     1      18.512   5.708  31.984  1.00  0.00     0.245 C 
HETATM   15  O4  UNK     1      19.703   5.767  31.703  1.00  0.00    -0.268 OA
HETATM   16  H8  UNK     1      16.742   4.695  32.386  1.00  0.00     0.169 HD
BRANCH  14  17
HETATM   17  C12 UNK     1      17.705   6.950  32.194  1.00  0.00     0.077 C 
HETATM   18  C14 UNK     1      16.518   6.886  32.815  1.00  0.00     0.042 C 
BRANCH  18  19
HETATM   19  C13 UNK     1      15.650   8.046  33.079  1.00  0.00     0.075 A 
HETATM   20  O3  UNK     1      15.698   9.106  32.282  1.00  0.00    -0.323 OA
HETATM   21  C17 UNK     1      14.785   9.967  32.804  1.00  0.00     0.142 A 
HETATM   22  C16 UNK     1      14.190   9.421  33.918  1.00  0.00     0.027 A 
HETATM   23  C15 UNK     1      14.774   8.142  34.090  1.00  0.00     0.039 A 
ENDBRANCH  18  19
ENDBRANCH  14  17
ENDBRANCH   6  13
TORSDOF 3
ENDMDL
MODEL 8
REMARK VINA RESULT:      -8.4      4.048      9.573
REMARK  3 active torsions:
REMARK  status: ('A' for Active; 'I' for Inactive)
REMARK       I    between atoms: C11_16  and  N1_5 
REMARK    1  A    between atoms: C4_9  and  N1_5 
REMARK    2  A    between atoms: C11_16  and  C12_17 
REMARK    3  A    between atoms: C13_18  and  C14_19 
ROOT
HETATM    1  O1  UNK     1      18.960   0.324  30.753  1.00  0.00    -0.275 OA
HETATM    2  O2  UNK     1      19.141   1.147  28.627  1.00  0.00    -0.260 OA
HETATM    3  C1  UNK     1      18.380   1.841  32.577  1.00  0.00     0.004 A 
HETATM    4  C2  UNK     1      18.697   0.563  32.117  1.00  0.00     0.092 A 
HETATM    5  C3  UNK     1      18.323   2.944  31.607  1.00  0.00    -0.043 A 
HETATM    6  C4  UNK     1      18.522  -0.365  34.328  1.00  0.00     0.037 A 
HETATM    7  C5  UNK     1      18.131   1.996  33.947  1.00  0.00     0.017 A 
HETATM    8  C6  UNK     1      18.771  -0.540  32.971  1.00  0.00     0.067 A 
HETATM    9  C7  UNK     1      18.202   0.901  34.815  1.00  0.00     0.030 A 
HETATM   10  C8  UNK     1      18.578   2.688  30.317  1.00  0.00     0.090 A 
HETATM   11  C9  UNK     1      17.984   4.332  32.071  1.00  0.00     0.049 C 
HETATM   12  C10 UNK     1      18.914   1.343  29.816  1.00  0.00     0.288 A 
ENDROOT
BRANCH   6  13
HETATM   13  N1  UNK     1      18.589  -1.453  35.198  1.00  0.00    -0.324 N 
HETATM   14  C11 UNK     1      19.752  -2.023  35.704  1.00  0.00     0.245 C 
HETATM   15  O4  UNK     1      20.912  -1.691  35.491  1.00  0.00    -0.268 OA
HETATM   16  H8  UNK     1      17.694  -1.849  35.476  1.00  0.00     0.169 HD
BRANCH  14  17
HETATM   17  C12 UNK     1      19.431  -3.172  36.607  1.00  0.00     0.077 C 
HETATM   18  C14 UNK     1      19.930  -4.390  36.351  1.00  0.00     0.042 C 
BRANCH  18  19
HETATM   19  C13 UNK     1      19.685  -5.584  37.178  1.00  0.00     0.075 A 
HETATM   20  O3  UNK     1      20.277  -5.706  38.360  1.00  0.00    -0.323 OA
HETATM   21  C17 UNK     1      19.835  -6.898  38.841  1.00  0.00     0.142 A 
HETATM   22  C16 UNK     1      18.977  -7.491  37.944  1.00  0.00     0.027 A 
HETATM   23  C15 UNK     1      18.886  -6.607  36.842  1.00  0.00     0.039 A 
ENDBRANCH  18  19
ENDBRANCH  14  17
ENDBRANCH   6  13
TORSDOF 3
ENDMDL
MODEL 9
REMARK VINA RESULT:      -8.2      2.013      9.016
REMARK  3 active torsions:
REMARK  status: ('A' for Active; 'I' for Inactive)
REMARK       I    between atoms: C11_16  and  N1_5 
REMARK    1  A    between atoms: C4_9  and  N1_5 
REMARK    2  A    between atoms: C11_16  and  C12_17 
REMARK    3  A    between atoms: C13_18  and  C14_19 
ROOT
HETATM    1  O1  UNK     1      18.944  -0.312  34.052  1.00  0.00    -0.275 OA
HETATM    2  O2  UNK     1      18.315   1.479  32.777  1.00  0.00    -0.260 OA
HETATM    3  C1  UNK     1      18.265  -0.409  36.396  1.00  0.00     0.004 A 
HETATM    4  C2  UNK     1      18.927  -0.964  35.301  1.00  0.00     0.092 A 
HETATM    5  C3  UNK     1      17.578   0.880  36.223  1.00  0.00    -0.043 A 
HETATM    6  C4  UNK     1      19.621  -2.873  36.586  1.00  0.00     0.037 A 
HETATM    7  C5  UNK     1      18.293  -1.119  37.603  1.00  0.00     0.017 A 
HETATM    8  C6  UNK     1      19.603  -2.183  35.379  1.00  0.00     0.067 A 
HETATM    9  C7  UNK     1      18.967  -2.342  37.697  1.00  0.00     0.030 A 
HETATM   10  C8  UNK     1      17.611   1.478  35.024  1.00  0.00     0.090 A 
HETATM   11  C9  UNK     1      16.856   1.504  37.382  1.00  0.00     0.049 C 
HETATM   12  C10 UNK     1      18.306   0.903  33.859  1.00  0.00     0.288 A 
ENDROOT
BRANCH   6  13
HETATM   13  N1  UNK     1      20.289  -4.094  36.686  1.00  0.00    -0.324 N 
HETATM   14  C11 UNK     1      19.700  -5.352  36.647  1.00  0.00     0.245 C 
HETATM   15  O4  UNK     1      18.513  -5.629  36.522  1.00  0.00    -0.268 OA
HETATM   16  H8  UNK     1      21.299  -4.034  36.794  1.00  0.00     0.169 HD
BRANCH  14  17
HETATM   17  C12 UNK     1      20.733  -6.427  36.783  1.00  0.00     0.077 C 
HETATM   18  C14 UNK     1      20.707  -7.492  35.969  1.00  0.00     0.042 C 
BRANCH  18  19
HETATM   19  C13 UNK     1      21.678  -8.599  36.011  1.00  0.00     0.075 A 
HETATM   20  O3  UNK     1      22.776  -8.491  36.750  1.00  0.00    -0.323 OA
HETATM   21  C17 UNK     1      23.429  -9.668  36.563  1.00  0.00     0.142 A 
HETATM   22  C16 UNK     1      22.722 -10.481  35.709  1.00  0.00     0.027 A 
HETATM   23  C15 UNK     1      21.559  -9.759  35.349  1.00  0.00     0.039 A 
ENDBRANCH  18  19
ENDBRANCH  14  17
ENDBRANCH   6  13
TORSDOF 3
ENDMDL
MODEL 10
REMARK VINA RESULT:      -8.0      3.221      3.847
REMARK  3 active torsions:
REMARK  status: ('A' for Active; 'I' for Inactive)
REMARK       I    between atoms: C11_16  and  N1_5 
REMARK    1  A    between atoms: C4_9  and  N1_5 
REMARK    2  A    between atoms: C11_16  and  C12_17 
REMARK    3  A    between atoms: C13_18  and  C14_19 
ROOT
HETATM    1  O1  UNK     1      21.801  -7.129  38.852  1.00  0.00    -0.275 OA
HETATM    2  O2  UNK     1      22.705  -8.438  40.494  1.00  0.00    -0.260 OA
HETATM    3  C1  UNK     1      19.888  -7.957  37.580  1.00  0.00     0.004 A 
HETATM    4  C2  UNK     1      20.829  -6.962  37.846  1.00  0.00     0.092 A 
HETATM    5  C3  UNK     1      19.928  -9.194  38.375  1.00  0.00    -0.043 A 
HETATM    6  C4  UNK     1      19.926  -5.537  36.133  1.00  0.00     0.037 A 
HETATM    7  C5  UNK     1      18.954  -7.715  36.565  1.00  0.00     0.017 A 
HETATM    8  C6  UNK     1      20.861  -5.759  37.138  1.00  0.00     0.067 A 
HETATM    9  C7  UNK     1      18.973  -6.514  35.847  1.00  0.00     0.030 A 
HETATM   10  C8  UNK     1      20.864  -9.325  39.325  1.00  0.00     0.090 A 
HETATM   11  C9  UNK     1      18.929 -10.284  38.113  1.00  0.00     0.049 C 
HETATM   12  C10 UNK     1      21.864  -8.282  39.617  1.00  0.00     0.288 A 
ENDROOT
BRANCH   6  13
HETATM   13  N1  UNK     1      19.938  -4.342  35.416  1.00  0.00    -0.324 N 
HETATM   14  C11 UNK     1      19.887  -3.063  35.959  1.00  0.00     0.245 C 
HETATM   15  O4  UNK     1      19.822  -2.744  37.140  1.00  0.00    -0.268 OA
HETATM   16  H8  UNK     1      19.992  -4.437  34.404  1.00  0.00     0.169 HD
BRANCH  14  17
HETATM   17  C12 UNK     1      19.922  -2.026  34.880  1.00  0.00     0.077 C 
HETATM   18  C14 UNK     1      19.898  -2.393  33.591  1.00  0.00     0.042 C 
BRANCH  18  19
HETATM   19  C13 UNK     1      19.920  -1.457  32.454  1.00  0.00     0.075 A 
HETATM   20  O3  UNK     1      19.176  -0.357  32.487  1.00  0.00    -0.323 OA
HETATM   21  C17 UNK     1      19.435   0.263  31.306  1.00  0.00     0.142 A 
HETATM   22  C16 UNK     1      20.335  -0.467  30.565  1.00  0.00     0.027 A 
HETATM   23  C15 UNK     1      20.650  -1.609  31.341  1.00  0.00     0.039 A 
ENDBRANCH  18  19
ENDBRANCH  14  17
ENDBRANCH   6  13
TORSDOF 3
ENDMDL
