MODEL 1
REMARK VINA RESULT:      -9.0      0.000      0.000
REMARK  1 active torsions:
REMARK  status: ('A' for Active; 'I' for Inactive)
REMARK       I    between atoms: C6_10  and  N1_4 
REMARK    1  A    between atoms: C6_10  and  C9_13 
ROOT
HETATM    1  O1  UNK     1      19.042   4.793  29.312  1.00  0.00    -0.267 OA
HETATM    2  N1  UNK     1      18.583   3.116  30.865  1.00  0.00    -0.343 N 
HETATM    3  C1  UNK     1      18.559   2.062  29.850  1.00  0.00     0.131 C 
HETATM    4  C2  UNK     1      19.464   0.903  30.247  1.00  0.00     0.059 C 
HETATM    5  C3  UNK     1      18.255   2.704  32.241  1.00  0.00     0.165 C 
HETATM    6  C4  UNK     1      19.104   0.390  31.614  1.00  0.00    -0.049 A 
HETATM    7  C5  UNK     1      18.533   1.256  32.561  1.00  0.00    -0.034 A 
HETATM    8  C6  UNK     1      18.768   4.439  30.461  1.00  0.00     0.260 C 
HETATM    9  C7  UNK     1      19.379  -0.939  31.963  1.00  0.00     0.008 A 
HETATM   10  C8  UNK     1      18.222   0.767  33.838  1.00  0.00     0.009 A 
HETATM   11  C10 UNK     1      19.064  -1.414  33.236  1.00  0.00     0.001 A 
HETATM   12  C11 UNK     1      18.484  -0.561  34.172  1.00  0.00     0.001 A 
ENDROOT
BRANCH   8  13
HETATM   13  C9  UNK     1      18.617   5.491  31.487  1.00  0.00     0.108 A 
HETATM   14  C12 UNK     1      17.363   5.782  31.854  1.00  0.00     0.037 A 
HETATM   15  C13 UNK     1      17.111   6.804  32.857  1.00  0.00    -0.001 A 
HETATM   16  C15 UNK     1      18.192   7.471  33.426  1.00  0.00     0.089 A 
HETATM   17  C16 UNK     1      15.819   7.141  33.271  1.00  0.00     0.014 A 
HETATM   18  O2  UNK     1      19.509   7.160  33.036  1.00  0.00    -0.274 OA
HETATM   19  C17 UNK     1      18.020   8.460  34.392  1.00  0.00     0.038 A 
HETATM   20  C14 UNK     1      19.782   6.187  32.078  1.00  0.00     0.304 A 
HETATM   21  O3  UNK     1      20.932   5.923  31.745  1.00  0.00    -0.259 OA
HETATM   22  C19 UNK     1      16.728   8.789  34.798  1.00  0.00     0.003 A 
HETATM   23  C18 UNK     1      15.630   8.132  34.239  1.00  0.00     0.001 A 
ENDBRANCH   8  13
TORSDOF 1
ENDMDL
MODEL 2
REMARK VINA RESULT:      -9.0     22.901     25.377
REMARK  1 active torsions:
REMARK  status: ('A' for Active; 'I' for Inactive)
REMARK       I    between atoms: C6_10  and  N1_4 
REMARK    1  A    between atoms: C6_10  and  C9_13 
ROOT
HETATM    1  O1  UNK     1      14.430   6.126  10.786  1.00  0.00    -0.267 OA
HETATM    2  N1  UNK     1      14.864   8.197   9.809  1.00  0.00    -0.343 N 
HETATM    3  C1  UNK     1      15.841   8.572  10.832  1.00  0.00     0.131 C 
HETATM    4  C2  UNK     1      17.146   9.034  10.197  1.00  0.00     0.059 C 
HETATM    5  C3  UNK     1      14.564   9.216   8.789  1.00  0.00     0.165 C 
HETATM    6  C4  UNK     1      16.896  10.141   9.210  1.00  0.00    -0.049 A 
HETATM    7  C5  UNK     1      15.665  10.218   8.539  1.00  0.00    -0.034 A 
HETATM    8  C6  UNK     1      14.185   6.984   9.936  1.00  0.00     0.260 C 
HETATM    9  C7  UNK     1      17.905  11.071   8.924  1.00  0.00     0.008 A 
HETATM   10  C8  UNK     1      15.455  11.245   7.607  1.00  0.00     0.009 A 
HETATM   11  C10 UNK     1      17.683  12.087   7.995  1.00  0.00     0.001 A 
HETATM   12  C11 UNK     1      16.458  12.176   7.339  1.00  0.00     0.001 A 
ENDROOT
BRANCH   8  13
HETATM   13  C9  UNK     1      13.089   6.716   8.982  1.00  0.00     0.108 A 
HETATM   14  C12 UNK     1      11.875   7.148   9.342  1.00  0.00     0.037 A 
HETATM   15  C13 UNK     1      10.731   6.931   8.470  1.00  0.00    -0.001 A 
HETATM   16  C15 UNK     1      10.922   6.268   7.261  1.00  0.00     0.089 A 
HETATM   17  C16 UNK     1       9.445   7.364   8.805  1.00  0.00     0.014 A 
HETATM   18  O2  UNK     1      12.202   5.817   6.888  1.00  0.00    -0.274 OA
HETATM   19  C17 UNK     1       9.868   6.029   6.381  1.00  0.00     0.038 A 
HETATM   20  C14 UNK     1      13.316   6.010   7.702  1.00  0.00     0.304 A 
HETATM   21  O3  UNK     1      14.427   5.612   7.368  1.00  0.00    -0.259 OA
HETATM   22  C19 UNK     1       8.591   6.464   6.723  1.00  0.00     0.003 A 
HETATM   23  C18 UNK     1       8.378   7.131   7.932  1.00  0.00     0.001 A 
ENDBRANCH   8  13
TORSDOF 1
ENDMDL
MODEL 3
REMARK VINA RESULT:      -8.9     22.658     24.824
REMARK  1 active torsions:
REMARK  status: ('A' for Active; 'I' for Inactive)
REMARK       I    between atoms: C6_10  and  N1_4 
REMARK    1  A    between atoms: C6_10  and  C9_13 
ROOT
HETATM    1  O1  UNK     1      15.287   5.108   8.678  1.00  0.00    -0.267 OA
HETATM    2  N1  UNK     1      15.050   7.179   9.721  1.00  0.00    -0.343 N 
HETATM    3  C1  UNK     1      16.434   7.195  10.197  1.00  0.00     0.131 C 
HETATM    4  C2  UNK     1      17.125   8.499   9.820  1.00  0.00     0.059 C 
HETATM    5  C3  UNK     1      14.203   8.307  10.143  1.00  0.00     0.165 C 
HETATM    6  C4  UNK     1      16.337   9.681  10.312  1.00  0.00    -0.049 A 
HETATM    7  C5  UNK     1      14.943   9.584  10.459  1.00  0.00    -0.034 A 
HETATM    8  C6  UNK     1      14.585   6.056   9.034  1.00  0.00     0.260 C 
HETATM    9  C7  UNK     1      16.981  10.896  10.582  1.00  0.00     0.008 A 
HETATM   10  C8  UNK     1      14.220  10.701  10.899  1.00  0.00     0.009 A 
HETATM   11  C10 UNK     1      16.251  12.000  11.020  1.00  0.00     0.001 A 
HETATM   12  C11 UNK     1      14.871  11.902  11.181  1.00  0.00     0.001 A 
ENDROOT
BRANCH   8  13
HETATM   13  C9  UNK     1      13.143   6.001   8.720  1.00  0.00     0.108 A 
HETATM   14  C12 UNK     1      12.795   6.360   7.478  1.00  0.00     0.037 A 
HETATM   15  C13 UNK     1      11.398   6.340   7.074  1.00  0.00    -0.001 A 
HETATM   16  C15 UNK     1      10.435   5.944   7.997  1.00  0.00     0.089 A 
HETATM   17  C16 UNK     1      10.989   6.705   5.788  1.00  0.00     0.014 A 
HETATM   18  O2  UNK     1      10.807   5.567   9.302  1.00  0.00    -0.274 OA
HETATM   19  C17 UNK     1       9.080   5.902   7.673  1.00  0.00     0.038 A 
HETATM   20  C14 UNK     1      12.136   5.576   9.718  1.00  0.00     0.304 A 
HETATM   21  O3  UNK     1      12.451   5.248  10.857  1.00  0.00    -0.259 OA
HETATM   22  C19 UNK     1       8.682   6.269   6.390  1.00  0.00     0.003 A 
HETATM   23  C18 UNK     1       9.633   6.669   5.449  1.00  0.00     0.001 A 
ENDBRANCH   8  13
TORSDOF 1
ENDMDL
MODEL 4
REMARK VINA RESULT:      -8.7      2.109      7.140
REMARK  1 active torsions:
REMARK  status: ('A' for Active; 'I' for Inactive)
REMARK       I    between atoms: C6_10  and  N1_4 
REMARK    1  A    between atoms: C6_10  and  C9_13 
ROOT
HETATM    1  O1  UNK     1      18.033   3.551  28.640  1.00  0.00    -0.267 OA
HETATM    2  N1  UNK     1      18.779   4.667  30.546  1.00  0.00    -0.343 N 
HETATM    3  C1  UNK     1      18.664   5.987  29.923  1.00  0.00     0.131 C 
HETATM    4  C2  UNK     1      17.864   6.937  30.805  1.00  0.00     0.059 C 
HETATM    5  C3  UNK     1      19.335   4.635  31.909  1.00  0.00     0.165 C 
HETATM    6  C4  UNK     1      18.453   7.005  32.187  1.00  0.00    -0.049 A 
HETATM    7  C5  UNK     1      19.149   5.902  32.709  1.00  0.00    -0.034 A 
HETATM    8  C6  UNK     1      18.499   3.533  29.781  1.00  0.00     0.260 C 
HETATM    9  C7  UNK     1      18.271   8.149  32.975  1.00  0.00     0.008 A 
HETATM   10  C8  UNK     1      19.674   5.974  34.007  1.00  0.00     0.009 A 
HETATM   11  C10 UNK     1      18.800   8.208  34.265  1.00  0.00     0.001 A 
HETATM   12  C11 UNK     1      19.503   7.122  34.779  1.00  0.00     0.001 A 
ENDROOT
BRANCH   8  13
HETATM   13  C9  UNK     1      18.789   2.217  30.387  1.00  0.00     0.108 A 
HETATM   14  C12 UNK     1      19.524   1.377  29.649  1.00  0.00     0.037 A 
HETATM   15  C13 UNK     1      19.862   0.057  30.159  1.00  0.00    -0.001 A 
HETATM   16  C15 UNK     1      19.407  -0.314  31.421  1.00  0.00     0.089 A 
HETATM   17  C16 UNK     1      20.627  -0.852  29.424  1.00  0.00     0.014 A 
HETATM   18  O2  UNK     1      18.634   0.575  32.193  1.00  0.00    -0.274 OA
HETATM   19  C17 UNK     1      19.696  -1.563  31.967  1.00  0.00     0.038 A 
HETATM   20  C14 UNK     1      18.295   1.844  31.731  1.00  0.00     0.304 A 
HETATM   21  O3  UNK     1      17.621   2.611  32.410  1.00  0.00    -0.259 OA
HETATM   22  C19 UNK     1      20.459  -2.463  31.227  1.00  0.00     0.003 A 
HETATM   23  C18 UNK     1      20.924  -2.110  29.959  1.00  0.00     0.001 A 
ENDBRANCH   8  13
TORSDOF 1
ENDMDL
MODEL 5
REMARK VINA RESULT:      -8.5     23.480     25.107
REMARK  1 active torsions:
REMARK  status: ('A' for Active; 'I' for Inactive)
REMARK       I    between atoms: C6_10  and  N1_4 
REMARK    1  A    between atoms: C6_10  and  C9_13 
ROOT
HETATM    1  O1  UNK     1       7.439   6.757   7.263  1.00  0.00    -0.267 OA
HETATM    2  N1  UNK     1       9.537   6.023   7.964  1.00  0.00    -0.343 N 
HETATM    3  C1  UNK     1      10.153   6.262   6.659  1.00  0.00     0.131 C 
HETATM    4  C2  UNK     1      11.420   7.096   6.799  1.00  0.00     0.059 C 
HETATM    5  C3  UNK     1      10.399   5.412   8.991  1.00  0.00     0.165 C 
HETATM    6  C4  UNK     1      12.372   6.459   7.773  1.00  0.00    -0.049 A 
HETATM    7  C5  UNK     1      11.878   5.662   8.819  1.00  0.00    -0.034 A 
HETATM    8  C6  UNK     1       8.167   6.247   8.116  1.00  0.00     0.260 C 
HETATM    9  C7  UNK     1      13.750   6.695   7.670  1.00  0.00     0.008 A 
HETATM   10  C8  UNK     1      12.777   5.092   9.731  1.00  0.00     0.009 A 
HETATM   11  C10 UNK     1      14.634   6.122   8.584  1.00  0.00     0.001 A 
HETATM   12  C11 UNK     1      14.148   5.319   9.612  1.00  0.00     0.001 A 
ENDROOT
BRANCH   8  13
HETATM   13  C9  UNK     1       7.549   5.834   9.393  1.00  0.00     0.108 A 
HETATM   14  C12 UNK     1       7.092   4.578   9.448  1.00  0.00     0.037 A 
HETATM   15  C13 UNK     1       6.466   4.079  10.663  1.00  0.00    -0.001 A 
HETATM   16  C15 UNK     1       6.350   4.928  11.759  1.00  0.00     0.089 A 
HETATM   17  C16 UNK     1       5.975   2.774  10.767  1.00  0.00     0.014 A 
HETATM   18  O2  UNK     1       6.834   6.249  11.695  1.00  0.00    -0.274 OA
HETATM   19  C17 UNK     1       5.761   4.512  12.952  1.00  0.00     0.038 A 
HETATM   20  C14 UNK     1       7.437   6.755  10.546  1.00  0.00     0.304 A 
HETATM   21  O3  UNK     1       7.854   7.907  10.498  1.00  0.00    -0.259 OA
HETATM   22  C19 UNK     1       5.275   3.210  13.045  1.00  0.00     0.003 A 
HETATM   23  C18 UNK     1       5.381   2.343  11.957  1.00  0.00     0.001 A 
ENDBRANCH   8  13
TORSDOF 1
ENDMDL
MODEL 6
REMARK VINA RESULT:      -8.5     23.182     25.514
REMARK  1 active torsions:
REMARK  status: ('A' for Active; 'I' for Inactive)
REMARK       I    between atoms: C6_10  and  N1_4 
REMARK    1  A    between atoms: C6_10  and  C9_13 
ROOT
HETATM    1  O1  UNK     1      15.602   6.879  10.312  1.00  0.00    -0.267 OA
HETATM    2  N1  UNK     1      15.598   9.070   9.517  1.00  0.00    -0.343 N 
HETATM    3  C1  UNK     1      16.920   9.366  10.073  1.00  0.00     0.131 C 
HETATM    4  C2  UNK     1      17.836   9.960   9.013  1.00  0.00     0.059 C 
HETATM    5  C3  UNK     1      14.903  10.188   8.858  1.00  0.00     0.165 C 
HETATM    6  C4  UNK     1      17.201  11.165   8.373  1.00  0.00    -0.049 A 
HETATM    7  C5  UNK     1      15.802  11.264   8.299  1.00  0.00    -0.034 A 
HETATM    8  C6  UNK     1      15.027   7.820   9.762  1.00  0.00     0.260 C 
HETATM    9  C7  UNK     1      18.001  12.169   7.811  1.00  0.00     0.008 A 
HETATM   10  C8  UNK     1      15.226  12.383   7.682  1.00  0.00     0.009 A 
HETATM   11  C10 UNK     1      17.415  13.277   7.200  1.00  0.00     0.001 A 
HETATM   12  C11 UNK     1      16.029  13.386   7.138  1.00  0.00     0.001 A 
ENDROOT
BRANCH   8  13
HETATM   13  C9  UNK     1      13.628   7.617   9.333  1.00  0.00     0.108 A 
HETATM   14  C12 UNK     1      13.454   7.102   8.110  1.00  0.00     0.037 A 
HETATM   15  C13 UNK     1      12.113   6.865   7.599  1.00  0.00    -0.001 A 
HETATM   16  C15 UNK     1      11.020   7.185   8.400  1.00  0.00     0.089 A 
HETATM   17  C16 UNK     1      11.883   6.329   6.329  1.00  0.00     0.014 A 
HETATM   18  O2  UNK     1      11.210   7.726   9.686  1.00  0.00    -0.274 OA
HETATM   19  C17 UNK     1       9.710   6.983   7.969  1.00  0.00     0.038 A 
HETATM   20  C14 UNK     1      12.481   7.964  10.202  1.00  0.00     0.304 A 
HETATM   21  O3  UNK     1      12.637   8.437  11.323  1.00  0.00    -0.259 OA
HETATM   22  C19 UNK     1       9.492   6.448   6.702  1.00  0.00     0.003 A 
HETATM   23  C18 UNK     1      10.574   6.121   5.883  1.00  0.00     0.001 A 
ENDBRANCH   8  13
TORSDOF 1
ENDMDL
MODEL 7
REMARK VINA RESULT:      -8.4      5.348      9.401
REMARK  1 active torsions:
REMARK  status: ('A' for Active; 'I' for Inactive)
REMARK       I    between atoms: C6_10  and  N1_4 
REMARK    1  A    between atoms: C6_10  and  C9_13 
ROOT
HETATM    1  O1  UNK     1      18.153  -0.448  36.348  1.00  0.00    -0.267 OA
HETATM    2  N1  UNK     1      18.684  -0.940  34.132  1.00  0.00    -0.343 N 
HETATM    3  C1  UNK     1      17.892   0.173  33.605  1.00  0.00     0.131 C 
HETATM    4  C2  UNK     1      18.716   1.022  32.647  1.00  0.00     0.059 C 
HETATM    5  C3  UNK     1      19.315  -1.821  33.135  1.00  0.00     0.165 C 
HETATM    6  C4  UNK     1      19.308   0.173  31.556  1.00  0.00    -0.049 A 
HETATM    7  C5  UNK     1      19.596  -1.180  31.798  1.00  0.00    -0.034 A 
HETATM    8  C6  UNK     1      18.678  -1.180  35.507  1.00  0.00     0.260 C 
HETATM    9  C7  UNK     1      19.617   0.738  30.311  1.00  0.00     0.008 A 
HETATM   10  C8  UNK     1      20.166  -1.954  30.777  1.00  0.00     0.009 A 
HETATM   11  C10 UNK     1      20.184  -0.042  29.304  1.00  0.00     0.001 A 
HETATM   12  C11 UNK     1      20.456  -1.388  29.536  1.00  0.00     0.001 A 
ENDROOT
BRANCH   8  13
HETATM   13  C9  UNK     1      19.347  -2.408  35.985  1.00  0.00     0.108 A 
HETATM   14  C12 UNK     1      18.548  -3.443  36.270  1.00  0.00     0.037 A 
HETATM   15  C13 UNK     1      19.114  -4.695  36.747  1.00  0.00    -0.001 A 
HETATM   16  C15 UNK     1      20.493  -4.796  36.902  1.00  0.00     0.089 A 
HETATM   17  C16 UNK     1      18.318  -5.802  37.057  1.00  0.00     0.014 A 
HETATM   18  O2  UNK     1      21.328  -3.704  36.600  1.00  0.00    -0.274 OA
HETATM   19  C17 UNK     1      21.097  -5.968  37.355  1.00  0.00     0.038 A 
HETATM   20  C14 UNK     1      20.817  -2.492  36.141  1.00  0.00     0.304 A 
HETATM   21  O3  UNK     1      21.552  -1.546  35.882  1.00  0.00    -0.259 OA
HETATM   22  C19 UNK     1      20.296  -7.065  37.662  1.00  0.00     0.003 A 
HETATM   23  C18 UNK     1      18.910  -6.984  37.513  1.00  0.00     0.001 A 
ENDBRANCH   8  13
TORSDOF 1
ENDMDL
MODEL 8
REMARK VINA RESULT:      -8.4     22.755     24.907
REMARK  1 active torsions:
REMARK  status: ('A' for Active; 'I' for Inactive)
REMARK       I    between atoms: C6_10  and  N1_4 
REMARK    1  A    between atoms: C6_10  and  C9_13 
ROOT
HETATM    1  O1  UNK     1      11.955   5.740   6.959  1.00  0.00    -0.267 OA
HETATM    2  N1  UNK     1      10.374   7.009   8.110  1.00  0.00    -0.343 N 
HETATM    3  C1  UNK     1       9.280   6.607   7.224  1.00  0.00     0.131 C 
HETATM    4  C2  UNK     1       8.093   6.091   8.025  1.00  0.00     0.059 C 
HETATM    5  C3  UNK     1      10.040   7.991   9.155  1.00  0.00     0.165 C 
HETATM    6  C4  UNK     1       7.658   7.104   9.049  1.00  0.00    -0.049 A 
HETATM    7  C5  UNK     1       8.594   8.003   9.586  1.00  0.00    -0.034 A 
HETATM    8  C6  UNK     1      11.667   6.561   7.832  1.00  0.00     0.260 C 
HETATM    9  C7  UNK     1       6.333   7.125   9.502  1.00  0.00     0.008 A 
HETATM   10  C8  UNK     1       8.178   8.929  10.554  1.00  0.00     0.009 A 
HETATM   11  C10 UNK     1       5.932   8.051  10.465  1.00  0.00     0.001 A 
HETATM   12  C11 UNK     1       6.853   8.953  10.989  1.00  0.00     0.001 A 
ENDROOT
BRANCH   8  13
HETATM   13  C9  UNK     1      12.768   7.121   8.642  1.00  0.00     0.108 A 
HETATM   14  C12 UNK     1      13.387   8.194   8.135  1.00  0.00     0.037 A 
HETATM   15  C13 UNK     1      14.485   8.817   8.858  1.00  0.00    -0.001 A 
HETATM   16  C15 UNK     1      14.878   8.278  10.080  1.00  0.00     0.089 A 
HETATM   17  C16 UNK     1      15.159   9.938   8.368  1.00  0.00     0.014 A 
HETATM   18  O2  UNK     1      14.223   7.149  10.608  1.00  0.00    -0.274 OA
HETATM   19  C17 UNK     1      15.922   8.827  10.823  1.00  0.00     0.038 A 
HETATM   20  C14 UNK     1      13.169   6.531   9.938  1.00  0.00     0.304 A 
HETATM   21  O3  UNK     1      12.605   5.548  10.405  1.00  0.00    -0.259 OA
HETATM   22  C19 UNK     1      16.588   9.944  10.326  1.00  0.00     0.003 A 
HETATM   23  C18 UNK     1      16.209  10.500   9.102  1.00  0.00     0.001 A 
ENDBRANCH   8  13
TORSDOF 1
ENDMDL
MODEL 9
REMARK VINA RESULT:      -8.4     15.931     18.584
REMARK  1 active torsions:
REMARK  status: ('A' for Active; 'I' for Inactive)
REMARK       I    between atoms: C6_10  and  N1_4 
REMARK    1  A    between atoms: C6_10  and  C9_13 
ROOT
HETATM    1  O1  UNK     1      32.120  -3.304  36.562  1.00  0.00    -0.267 OA
HETATM    2  N1  UNK     1      31.256  -5.284  37.437  1.00  0.00    -0.343 N 
HETATM    3  C1  UNK     1      30.601  -4.606  38.557  1.00  0.00     0.131 C 
HETATM    4  C2  UNK     1      29.135  -5.006  38.654  1.00  0.00     0.059 C 
HETATM    5  C3  UNK     1      31.160  -6.754  37.418  1.00  0.00     0.165 C 
HETATM    6  C4  UNK     1      28.994  -6.501  38.729  1.00  0.00    -0.049 A 
HETATM    7  C5  UNK     1      29.961  -7.328  38.133  1.00  0.00    -0.034 A 
HETATM    8  C6  UNK     1      32.034  -4.533  36.554  1.00  0.00     0.260 C 
HETATM    9  C7  UNK     1      27.877  -7.074  39.352  1.00  0.00     0.008 A 
HETATM   10  C8  UNK     1      29.804  -8.720  38.193  1.00  0.00     0.009 A 
HETATM   11  C10 UNK     1      27.734  -8.460  39.406  1.00  0.00     0.001 A 
HETATM   12  C11 UNK     1      28.698  -9.282  38.829  1.00  0.00     0.001 A 
ENDROOT
BRANCH   8  13
HETATM   13  C9  UNK     1      32.815  -5.271  35.540  1.00  0.00     0.108 A 
HETATM   14  C12 UNK     1      34.084  -5.551  35.861  1.00  0.00     0.037 A 
HETATM   15  C13 UNK     1      34.933  -6.274  34.928  1.00  0.00    -0.001 A 
HETATM   16  C15 UNK     1      34.406  -6.666  33.701  1.00  0.00     0.089 A 
HETATM   17  C16 UNK     1      36.263  -6.588  35.221  1.00  0.00     0.014 A 
HETATM   18  O2  UNK     1      33.070  -6.369  33.370  1.00  0.00    -0.274 OA
HETATM   19  C17 UNK     1      35.167  -7.361  32.763  1.00  0.00     0.038 A 
HETATM   20  C14 UNK     1      32.232  -5.679  34.242  1.00  0.00     0.304 A 
HETATM   21  O3  UNK     1      31.071  -5.423  33.944  1.00  0.00    -0.259 OA
HETATM   22  C19 UNK     1      36.491  -7.669  33.064  1.00  0.00     0.003 A 
HETATM   23  C18 UNK     1      37.039  -7.284  34.289  1.00  0.00     0.001 A 
ENDBRANCH   8  13
TORSDOF 1
ENDMDL
MODEL 10
REMARK VINA RESULT:      -8.2      4.315      8.830
REMARK  1 active torsions:
REMARK  status: ('A' for Active; 'I' for Inactive)
REMARK       I    between atoms: C6_10  and  N1_4 
REMARK    1  A    between atoms: C6_10  and  C9_13 
ROOT
HETATM    1  O1  UNK     1      14.742   7.264  34.170  1.00  0.00    -0.267 OA
HETATM    2  N1  UNK     1      15.482   9.474  34.108  1.00  0.00    -0.343 N 
HETATM    3  C1  UNK     1      14.151  10.019  34.379  1.00  0.00     0.131 C 
HETATM    4  C2  UNK     1      14.192  11.007  35.537  1.00  0.00     0.059 C 
HETATM    5  C3  UNK     1      16.551  10.457  33.859  1.00  0.00     0.165 C 
HETATM    6  C4  UNK     1      15.210  12.085  35.282  1.00  0.00    -0.049 A 
HETATM    7  C5  UNK     1      16.335  11.813  34.486  1.00  0.00    -0.034 A 
HETATM    8  C6  UNK     1      15.631   8.093  33.964  1.00  0.00     0.260 C 
HETATM    9  C7  UNK     1      15.065  13.346  35.874  1.00  0.00     0.008 A 
HETATM   10  C8  UNK     1      17.286  12.821  34.275  1.00  0.00     0.009 A 
HETATM   11  C10 UNK     1      16.018  14.341  35.656  1.00  0.00     0.001 A 
HETATM   12  C11 UNK     1      17.126  14.079  34.855  1.00  0.00     0.001 A 
ENDROOT
BRANCH   8  13
HETATM   13  C9  UNK     1      16.950   7.594  33.524  1.00  0.00     0.108 A 
HETATM   14  C12 UNK     1      17.048   7.239  32.238  1.00  0.00     0.037 A 
HETATM   15  C13 UNK     1      18.306   6.735  31.711  1.00  0.00    -0.001 A 
HETATM   16  C15 UNK     1      19.400   6.629  32.564  1.00  0.00     0.089 A 
HETATM   17  C16 UNK     1      18.455   6.352  30.375  1.00  0.00     0.014 A 
HETATM   18  O2  UNK     1      19.291   7.005  33.917  1.00  0.00    -0.274 OA
HETATM   19  C17 UNK     1      20.634   6.153  32.122  1.00  0.00     0.038 A 
HETATM   20  C14 UNK     1      18.100   7.491  34.450  1.00  0.00     0.304 A 
HETATM   21  O3  UNK     1      18.014   7.815  35.630  1.00  0.00    -0.259 OA
HETATM   22  C19 UNK     1      20.772   5.774  30.789  1.00  0.00     0.003 A 
HETATM   23  C18 UNK     1      19.686   5.873  29.917  1.00  0.00     0.001 A 
ENDBRANCH   8  13
TORSDOF 1
ENDMDL
