MODEL 1
REMARK VINA RESULT:      -8.9      0.000      0.000
REMARK  4 active torsions:
REMARK  status: ('A' for Active; 'I' for Inactive)
REMARK    1  A    between atoms: C11_18  and  N1_5 
REMARK    2  A    between atoms: C4_11  and  N1_5 
REMARK    3  A    between atoms: C11_18  and  N2_6 
REMARK    4  A    between atoms: C12_19  and  N2_6 
ROOT
HETATM    1  N1  UNK     1      19.399  -4.848  35.672  1.00  0.00    -0.333 N 
HETATM    2  H8  UNK     1      18.979  -4.754  34.749  1.00  0.00     0.168 HD
ENDROOT
BRANCH   1   3
HETATM    3  C11 UNK     1      19.867  -3.634  36.193  1.00  0.00     0.177 C 
HETATM    4  S1  UNK     1      20.845  -3.706  37.564  1.00  0.00    -0.040 SA
BRANCH   3   5
HETATM    5  N2  UNK     1      19.569  -2.507  35.450  1.00  0.00    -0.318 N 
HETATM    6  H9  UNK     1      19.276  -1.683  35.956  1.00  0.00     0.170 HD
BRANCH   5   7
HETATM    7  C12 UNK     1      19.777  -2.213  34.079  1.00  0.00     0.129 A 
HETATM    8  N3  UNK     1      20.793  -2.831  33.452  1.00  0.00    -0.242 NA
HETATM    9  C16 UNK     1      20.951  -2.520  32.146  1.00  0.00     0.138 A 
HETATM   10  C15 UNK     1      20.145  -1.628  31.457  1.00  0.00     0.028 A 
HETATM   11 Br1  UNK     1      20.440  -1.259  29.634  1.00  0.00    -0.050 Br
HETATM   12  C14 UNK     1      19.107  -1.018  32.153  1.00  0.00     0.024 A 
HETATM   13  C13 UNK     1      18.913  -1.311  33.498  1.00  0.00     0.052 A 
ENDBRANCH   5   7
ENDBRANCH   3   5
ENDBRANCH   1   3
BRANCH   1  14
HETATM   14  C4  UNK     1      19.572  -6.169  36.087  1.00  0.00     0.036 A 
HETATM   15  C6  UNK     1      20.480  -6.994  35.433  1.00  0.00     0.067 A 
HETATM   16  C2  UNK     1      20.638  -8.312  35.866  1.00  0.00     0.092 A 
HETATM   17  C1  UNK     1      19.915  -8.837  36.938  1.00  0.00     0.004 A 
HETATM   18  O1  UNK     1      21.573  -9.099  35.164  1.00  0.00    -0.275 OA
HETATM   19  C3  UNK     1      20.145 -10.234  37.326  1.00  0.00    -0.043 A 
HETATM   20  C5  UNK     1      19.004  -7.989  37.585  1.00  0.00     0.017 A 
HETATM   21  C8  UNK     1      21.040 -10.959  36.640  1.00  0.00     0.090 A 
HETATM   22  C9  UNK     1      19.383 -10.828  38.475  1.00  0.00     0.049 C 
HETATM   23  C10 UNK     1      21.812 -10.420  35.508  1.00  0.00     0.288 A 
HETATM   24  O2  UNK     1      22.623 -11.114  34.903  1.00  0.00    -0.260 OA
HETATM   25  C7  UNK     1      18.835  -6.666  37.162  1.00  0.00     0.030 A 
ENDBRANCH   1  14
TORSDOF 4
ENDMDL
MODEL 2
REMARK VINA RESULT:      -8.9      1.710      1.928
REMARK  4 active torsions:
REMARK  status: ('A' for Active; 'I' for Inactive)
REMARK    1  A    between atoms: C11_18  and  N1_5 
REMARK    2  A    between atoms: C4_11  and  N1_5 
REMARK    3  A    between atoms: C11_18  and  N2_6 
REMARK    4  A    between atoms: C12_19  and  N2_6 
ROOT
HETATM    1  N1  UNK     1      18.726  -3.991  36.548  1.00  0.00    -0.333 N 
HETATM    2  H8  UNK     1      17.798  -4.301  36.267  1.00  0.00     0.168 HD
ENDROOT
BRANCH   1   3
HETATM    3  C11 UNK     1      18.892  -2.602  36.465  1.00  0.00     0.177 C 
HETATM    4  S1  UNK     1      17.927  -1.647  37.465  1.00  0.00    -0.040 SA
BRANCH   3   5
HETATM    5  N2  UNK     1      19.921  -2.167  35.651  1.00  0.00    -0.318 N 
HETATM    6  H9  UNK     1      20.826  -2.032  36.079  1.00  0.00     0.170 HD
BRANCH   5   7
HETATM    7  C12 UNK     1      20.004  -2.041  34.241  1.00  0.00     0.129 A 
HETATM    8  N3  UNK     1      21.046  -2.620  33.620  1.00  0.00    -0.242 NA
HETATM    9  C16 UNK     1      21.082  -2.474  32.277  1.00  0.00     0.138 A 
HETATM   10  C15 UNK     1      20.130  -1.781  31.545  1.00  0.00     0.028 A 
HETATM   11 Br1  UNK     1      20.262  -1.633  29.673  1.00  0.00    -0.050 Br
HETATM   12  C14 UNK     1      19.072  -1.203  32.238  1.00  0.00     0.024 A 
HETATM   13  C13 UNK     1      19.001  -1.330  33.620  1.00  0.00     0.052 A 
ENDBRANCH   5   7
ENDBRANCH   3   5
ENDBRANCH   1   3
BRANCH   1  14
HETATM   14  C4  UNK     1      19.636  -5.028  36.751  1.00  0.00     0.036 A 
HETATM   15  C6  UNK     1      19.730  -6.066  35.830  1.00  0.00     0.067 A 
HETATM   16  C2  UNK     1      20.650  -7.094  36.053  1.00  0.00     0.092 A 
HETATM   17  C1  UNK     1      21.484  -7.118  37.171  1.00  0.00     0.004 A 
HETATM   18  O1  UNK     1      20.699  -8.117  35.085  1.00  0.00    -0.275 OA
HETATM   19  C3  UNK     1      22.422  -8.238  37.325  1.00  0.00    -0.043 A 
HETATM   20  C5  UNK     1      21.374  -6.062  38.087  1.00  0.00     0.017 A 
HETATM   21  C8  UNK     1      22.447  -9.197  36.390  1.00  0.00     0.090 A 
HETATM   22  C9  UNK     1      23.332  -8.293  38.517  1.00  0.00     0.049 C 
HETATM   23  C10 UNK     1      21.573  -9.185  35.204  1.00  0.00     0.288 A 
HETATM   24  O2  UNK     1      21.624 -10.081  34.368  1.00  0.00    -0.260 OA
HETATM   25  C7  UNK     1      20.458  -5.026  37.877  1.00  0.00     0.030 A 
ENDBRANCH   1  14
TORSDOF 4
ENDMDL
MODEL 3
REMARK VINA RESULT:      -8.8      8.591     12.910
REMARK  4 active torsions:
REMARK  status: ('A' for Active; 'I' for Inactive)
REMARK    1  A    between atoms: C11_18  and  N1_5 
REMARK    2  A    between atoms: C4_11  and  N1_5 
REMARK    3  A    between atoms: C11_18  and  N2_6 
REMARK    4  A    between atoms: C12_19  and  N2_6 
ROOT
HETATM    1  N1  UNK     1      19.232   3.819  30.019  1.00  0.00    -0.333 N 
HETATM    2  H8  UNK     1      19.504   4.163  29.100  1.00  0.00     0.168 HD
ENDROOT
BRANCH   1   3
HETATM    3  C11 UNK     1      18.863   2.468  30.016  1.00  0.00     0.177 C 
HETATM    4  S1  UNK     1      17.873   1.939  28.759  1.00  0.00    -0.040 SA
BRANCH   3   5
HETATM    5  N2  UNK     1      19.453   1.681  30.989  1.00  0.00    -0.318 N 
HETATM    6  H9  UNK     1      20.462   1.622  30.989  1.00  0.00     0.170 HD
BRANCH   5   7
HETATM    7  C12 UNK     1      18.909   1.061  32.142  1.00  0.00     0.129 A 
HETATM    8  N3  UNK     1      19.004  -0.276  32.239  1.00  0.00    -0.242 NA
HETATM    9  C16 UNK     1      18.472  -0.822  33.356  1.00  0.00     0.138 A 
HETATM   10  C15 UNK     1      17.860  -0.091  34.361  1.00  0.00     0.028 A 
HETATM   11 Br1  UNK     1      17.149  -0.939  35.884  1.00  0.00    -0.050 Br
HETATM   12  C14 UNK     1      17.789   1.290  34.210  1.00  0.00     0.024 A 
HETATM   13  C13 UNK     1      18.324   1.888  33.075  1.00  0.00     0.052 A 
ENDBRANCH   5   7
ENDBRANCH   3   5
ENDBRANCH   1   3
BRANCH   1  14
HETATM   14  C4  UNK     1      19.112   4.816  30.988  1.00  0.00     0.036 A 
HETATM   15  C6  UNK     1      17.867   5.116  31.530  1.00  0.00     0.067 A 
HETATM   16  C2  UNK     1      17.770   6.117  32.500  1.00  0.00     0.092 A 
HETATM   17  C1  UNK     1      18.882   6.832  32.948  1.00  0.00     0.004 A 
HETATM   18  O1  UNK     1      16.483   6.376  33.013  1.00  0.00    -0.275 OA
HETATM   19  C3  UNK     1      18.687   7.867  33.971  1.00  0.00    -0.043 A 
HETATM   20  C5  UNK     1      20.128   6.514  32.388  1.00  0.00     0.017 A 
HETATM   21  C8  UNK     1      17.452   8.092  34.440  1.00  0.00     0.090 A 
HETATM   22  C9  UNK     1      19.863   8.654  34.473  1.00  0.00     0.049 C 
HETATM   23  C10 UNK     1      16.269   7.346  33.979  1.00  0.00     0.288 A 
HETATM   24  O2  UNK     1      15.154   7.580  34.431  1.00  0.00    -0.260 OA
HETATM   25  C7  UNK     1      20.240   5.513  31.416  1.00  0.00     0.030 A 
ENDBRANCH   1  14
TORSDOF 4
ENDMDL
MODEL 4
REMARK VINA RESULT:      -8.8      8.275     12.869
REMARK  4 active torsions:
REMARK  status: ('A' for Active; 'I' for Inactive)
REMARK    1  A    between atoms: C11_18  and  N1_5 
REMARK    2  A    between atoms: C4_11  and  N1_5 
REMARK    3  A    between atoms: C11_18  and  N2_6 
REMARK    4  A    between atoms: C12_19  and  N2_6 
ROOT
HETATM    1  N1  UNK     1      19.075   3.835  30.142  1.00  0.00    -0.333 N 
HETATM    2  H8  UNK     1      19.466   4.124  29.248  1.00  0.00     0.168 HD
ENDROOT
BRANCH   1   3
HETATM    3  C11 UNK     1      18.538   2.541  30.116  1.00  0.00     0.177 C 
HETATM    4  S1  UNK     1      17.878   2.006  28.660  1.00  0.00    -0.040 SA
BRANCH   3   5
HETATM    5  N2  UNK     1      18.714   1.793  31.266  1.00  0.00    -0.318 N 
HETATM    6  H9  UNK     1      18.260   2.122  32.107  1.00  0.00     0.170 HD
BRANCH   5   7
HETATM    7  C12 UNK     1      19.279   0.508  31.464  1.00  0.00     0.129 A 
HETATM    8  N3  UNK     1      18.775  -0.252  32.452  1.00  0.00    -0.242 NA
HETATM    9  C16 UNK     1      19.345  -1.469  32.602  1.00  0.00     0.138 A 
HETATM   10  C15 UNK     1      20.382  -1.943  31.815  1.00  0.00     0.028 A 
HETATM   11 Br1  UNK     1      21.112  -3.656  32.098  1.00  0.00    -0.050 Br
HETATM   12  C14 UNK     1      20.865  -1.116  30.807  1.00  0.00     0.024 A 
HETATM   13  C13 UNK     1      20.306   0.143  30.622  1.00  0.00     0.052 A 
ENDBRANCH   5   7
ENDBRANCH   3   5
ENDBRANCH   1   3
BRANCH   1  14
HETATM   14  C4  UNK     1      19.001   4.855  31.089  1.00  0.00     0.036 A 
HETATM   15  C6  UNK     1      17.776   5.206  31.646  1.00  0.00     0.067 A 
HETATM   16  C2  UNK     1      17.725   6.230  32.594  1.00  0.00     0.092 A 
HETATM   17  C1  UNK     1      18.866   6.920  33.008  1.00  0.00     0.004 A 
HETATM   18  O1  UNK     1      16.456   6.539  33.122  1.00  0.00    -0.275 OA
HETATM   19  C3  UNK     1      18.720   7.983  34.010  1.00  0.00    -0.043 A 
HETATM   20  C5  UNK     1      20.092   6.552  32.435  1.00  0.00     0.017 A 
HETATM   21  C8  UNK     1      17.501   8.256  34.494  1.00  0.00     0.090 A 
HETATM   22  C9  UNK     1      19.928   8.744  34.475  1.00  0.00     0.049 C 
HETATM   23  C10 UNK     1      16.288   7.537  34.069  1.00  0.00     0.288 A 
HETATM   24  O2  UNK     1      15.188   7.814  34.534  1.00  0.00    -0.260 OA
HETATM   25  C7  UNK     1      20.157   5.527  31.484  1.00  0.00     0.030 A 
ENDBRANCH   1  14
TORSDOF 4
ENDMDL
MODEL 5
REMARK VINA RESULT:      -8.5      5.235      7.192
REMARK  4 active torsions:
REMARK  status: ('A' for Active; 'I' for Inactive)
REMARK    1  A    between atoms: C11_18  and  N1_5 
REMARK    2  A    between atoms: C4_11  and  N1_5 
REMARK    3  A    between atoms: C11_18  and  N2_6 
REMARK    4  A    between atoms: C12_19  and  N2_6 
ROOT
HETATM    1  N1  UNK     1      18.615  -0.696  31.574  1.00  0.00    -0.333 N 
HETATM    2  H8  UNK     1      18.287  -1.477  31.009  1.00  0.00     0.168 HD
ENDROOT
BRANCH   1   3
HETATM    3  C11 UNK     1      19.114   0.367  30.809  1.00  0.00     0.177 C 
HETATM    4  S1  UNK     1      20.574   0.122  30.003  1.00  0.00    -0.040 SA
BRANCH   3   5
HETATM    5  N2  UNK     1      18.288   1.471  30.703  1.00  0.00    -0.318 N 
HETATM    6  H9  UNK     1      17.360   1.322  30.331  1.00  0.00     0.170 HD
BRANCH   5   7
HETATM    7  C12 UNK     1      18.428   2.791  31.202  1.00  0.00     0.129 A 
HETATM    8  N3  UNK     1      18.013   3.034  32.457  1.00  0.00    -0.242 NA
HETATM    9  C16 UNK     1      18.167   4.306  32.889  1.00  0.00     0.138 A 
HETATM   10  C15 UNK     1      18.711   5.325  32.124  1.00  0.00     0.028 A 
HETATM   11 Br1  UNK     1      18.889   7.068  32.812  1.00  0.00    -0.050 Br
HETATM   12  C14 UNK     1      19.125   5.018  30.832  1.00  0.00     0.024 A 
HETATM   13  C13 UNK     1      18.982   3.722  30.351  1.00  0.00     0.052 A 
ENDBRANCH   5   7
ENDBRANCH   3   5
ENDBRANCH   1   3
BRANCH   1  14
HETATM   14  C4  UNK     1      18.664  -0.962  32.942  1.00  0.00     0.036 A 
HETATM   15  C6  UNK     1      19.528  -1.934  33.435  1.00  0.00     0.067 A 
HETATM   16  C2  UNK     1      19.561  -2.183  34.809  1.00  0.00     0.092 A 
HETATM   17  C1  UNK     1      18.754  -1.490  35.712  1.00  0.00     0.004 A 
HETATM   18  O1  UNK     1      20.457  -3.179  35.248  1.00  0.00    -0.275 OA
HETATM   19  C3  UNK     1      18.855  -1.817  37.140  1.00  0.00    -0.043 A 
HETATM   20  C5  UNK     1      17.890  -0.515  35.195  1.00  0.00     0.017 A 
HETATM   21  C8  UNK     1      19.715  -2.769  37.529  1.00  0.00     0.090 A 
HETATM   22  C9  UNK     1      18.000  -1.090  38.137  1.00  0.00     0.049 C 
HETATM   23  C10 UNK     1      20.574  -3.508  36.588  1.00  0.00     0.288 A 
HETATM   24  O2  UNK     1      21.350  -4.373  36.981  1.00  0.00    -0.260 OA
HETATM   25  C7  UNK     1      17.846  -0.254  33.821  1.00  0.00     0.030 A 
ENDBRANCH   1  14
TORSDOF 4
ENDMDL
MODEL 6
REMARK VINA RESULT:      -8.5      2.144      2.459
REMARK  4 active torsions:
REMARK  status: ('A' for Active; 'I' for Inactive)
REMARK    1  A    between atoms: C11_18  and  N1_5 
REMARK    2  A    between atoms: C4_11  and  N1_5 
REMARK    3  A    between atoms: C11_18  and  N2_6 
REMARK    4  A    between atoms: C12_19  and  N2_6 
ROOT
HETATM    1  N1  UNK     1      18.718  -3.987  36.862  1.00  0.00    -0.333 N 
HETATM    2  H8  UNK     1      17.752  -4.176  37.123  1.00  0.00     0.168 HD
ENDROOT
BRANCH   1   3
HETATM    3  C11 UNK     1      18.952  -2.642  36.547  1.00  0.00     0.177 C 
HETATM    4  S1  UNK     1      18.003  -1.488  37.329  1.00  0.00    -0.040 SA
BRANCH   3   5
HETATM    5  N2  UNK     1      20.024  -2.398  35.708  1.00  0.00    -0.318 N 
HETATM    6  H9  UNK     1      20.950  -2.504  36.098  1.00  0.00     0.170 HD
BRANCH   5   7
HETATM    7  C12 UNK     1      20.083  -2.196  34.306  1.00  0.00     0.129 A 
HETATM    8  N3  UNK     1      21.139  -2.700  33.645  1.00  0.00    -0.242 NA
HETATM    9  C16 UNK     1      21.152  -2.484  32.311  1.00  0.00     0.138 A 
HETATM   10  C15 UNK     1      20.164  -1.794  31.626  1.00  0.00     0.028 A 
HETATM   11 Br1  UNK     1      20.266  -1.544  29.763  1.00  0.00    -0.050 Br
HETATM   12  C14 UNK     1      19.093  -1.294  32.359  1.00  0.00     0.024 A 
HETATM   13  C13 UNK     1      19.045  -1.496  33.734  1.00  0.00     0.052 A 
ENDBRANCH   5   7
ENDBRANCH   3   5
ENDBRANCH   1   3
BRANCH   1  14
HETATM   14  C4  UNK     1      19.498  -5.131  36.699  1.00  0.00     0.036 A 
HETATM   15  C6  UNK     1      20.551  -5.389  37.570  1.00  0.00     0.067 A 
HETATM   16  C2  UNK     1      21.319  -6.542  37.390  1.00  0.00     0.092 A 
HETATM   17  C1  UNK     1      21.068  -7.451  36.361  1.00  0.00     0.004 A 
HETATM   18  O1  UNK     1      22.371  -6.749  38.304  1.00  0.00    -0.275 OA
HETATM   19  C3  UNK     1      21.926  -8.637  36.246  1.00  0.00    -0.043 A 
HETATM   20  C5  UNK     1      20.003  -7.173  35.493  1.00  0.00     0.017 A 
HETATM   21  C8  UNK     1      22.919  -8.809  37.129  1.00  0.00     0.090 A 
HETATM   22  C9  UNK     1      21.683  -9.634  35.150  1.00  0.00     0.049 C 
HETATM   23  C10 UNK     1      23.196  -7.859  38.221  1.00  0.00     0.288 A 
HETATM   24  O2  UNK     1      24.114  -8.049  39.011  1.00  0.00    -0.260 OA
HETATM   25  C7  UNK     1      19.225  -6.022  35.662  1.00  0.00     0.030 A 
ENDBRANCH   1  14
TORSDOF 4
ENDMDL
MODEL 7
REMARK VINA RESULT:      -8.4      9.936     14.214
REMARK  4 active torsions:
REMARK  status: ('A' for Active; 'I' for Inactive)
REMARK    1  A    between atoms: C11_18  and  N1_5 
REMARK    2  A    between atoms: C4_11  and  N1_5 
REMARK    3  A    between atoms: C11_18  and  N2_6 
REMARK    4  A    between atoms: C12_19  and  N2_6 
ROOT
HETATM    1  N1  UNK     1      17.479   4.584  32.409  1.00  0.00    -0.333 N 
HETATM    2  H8  UNK     1      16.565   4.347  32.791  1.00  0.00     0.168 HD
ENDROOT
BRANCH   1   3
HETATM    3  C11 UNK     1      18.072   3.529  31.702  1.00  0.00     0.177 C 
HETATM    4  S1  UNK     1      18.959   3.924  30.324  1.00  0.00    -0.040 SA
BRANCH   3   5
HETATM    5  N2  UNK     1      17.962   2.279  32.282  1.00  0.00    -0.318 N 
HETATM    6  H9  UNK     1      18.092   1.476  31.682  1.00  0.00     0.170 HD
BRANCH   5   7
HETATM    7  C12 UNK     1      17.878   1.887  33.642  1.00  0.00     0.129 A 
HETATM    8  N3  UNK     1      16.949   0.974  33.975  1.00  0.00    -0.242 NA
HETATM    9  C16 UNK     1      16.908   0.631  35.283  1.00  0.00     0.138 A 
HETATM   10  C15 UNK     1      17.747   1.160  36.251  1.00  0.00     0.028 A 
HETATM   11 Br1  UNK     1      17.617   0.619  38.049  1.00  0.00    -0.050 Br
HETATM   12  C14 UNK     1      18.690   2.100  35.851  1.00  0.00     0.024 A 
HETATM   13  C13 UNK     1      18.763   2.479  34.516  1.00  0.00     0.052 A 
ENDBRANCH   5   7
ENDBRANCH   3   5
ENDBRANCH   1   3
BRANCH   1  14
HETATM   14  C4  UNK     1      17.979   5.810  32.846  1.00  0.00     0.036 A 
HETATM   15  C6  UNK     1      17.159   6.933  32.865  1.00  0.00     0.067 A 
HETATM   16  C2  UNK     1      17.680   8.150  33.308  1.00  0.00     0.092 A 
HETATM   17  C1  UNK     1      19.002   8.284  33.737  1.00  0.00     0.004 A 
HETATM   18  O1  UNK     1      16.801   9.252  33.305  1.00  0.00    -0.275 OA
HETATM   19  C3  UNK     1      19.466   9.602  34.186  1.00  0.00    -0.043 A 
HETATM   20  C5  UNK     1      19.812   7.140  33.710  1.00  0.00     0.017 A 
HETATM   21  C8  UNK     1      18.609  10.632  34.172  1.00  0.00     0.090 A 
HETATM   22  C9  UNK     1      20.882   9.779  34.653  1.00  0.00     0.049 C 
HETATM   23  C10 UNK     1      17.211  10.508  33.724  1.00  0.00     0.288 A 
HETATM   24  O2  UNK     1      16.454  11.473  33.725  1.00  0.00    -0.260 OA
HETATM   25  C7  UNK     1      19.304   5.914  33.269  1.00  0.00     0.030 A 
ENDBRANCH   1  14
TORSDOF 4
ENDMDL
MODEL 8
REMARK VINA RESULT:      -8.4      7.835     11.206
REMARK  4 active torsions:
REMARK  status: ('A' for Active; 'I' for Inactive)
REMARK    1  A    between atoms: C11_18  and  N1_5 
REMARK    2  A    between atoms: C4_11  and  N1_5 
REMARK    3  A    between atoms: C11_18  and  N2_6 
REMARK    4  A    between atoms: C12_19  and  N2_6 
ROOT
HETATM    1  N1  UNK     1      18.751  -0.292  30.969  1.00  0.00    -0.333 N 
HETATM    2  H8  UNK     1      18.308  -0.734  30.165  1.00  0.00     0.168 HD
ENDROOT
BRANCH   1   3
HETATM    3  C11 UNK     1      19.092  -1.201  31.980  1.00  0.00     0.177 C 
HETATM    4  S1  UNK     1      20.641  -1.865  31.934  1.00  0.00    -0.040 SA
BRANCH   3   5
HETATM    5  N2  UNK     1      18.152  -1.368  32.980  1.00  0.00    -0.318 N 
HETATM    6  H9  UNK     1      17.526  -2.158  32.902  1.00  0.00     0.170 HD
BRANCH   5   7
HETATM    7  C12 UNK     1      18.006  -0.728  34.237  1.00  0.00     0.129 A 
HETATM    8  N3  UNK     1      19.107  -0.214  34.810  1.00  0.00    -0.242 NA
HETATM    9  C16 UNK     1      18.919   0.386  36.007  1.00  0.00     0.138 A 
HETATM   10  C15 UNK     1      17.690   0.488  36.639  1.00  0.00     0.028 A 
HETATM   11 Br1  UNK     1      17.523   1.346  38.307  1.00  0.00    -0.050 Br
HETATM   12  C14 UNK     1      16.583  -0.061  36.001  1.00  0.00     0.024 A 
HETATM   13  C13 UNK     1      16.736  -0.687  34.770  1.00  0.00     0.052 A 
ENDBRANCH   5   7
ENDBRANCH   3   5
ENDBRANCH   1   3
BRANCH   1  14
HETATM   14  C4  UNK     1      18.728   1.102  30.939  1.00  0.00     0.036 A 
HETATM   15  C6  UNK     1      18.383   1.820  32.079  1.00  0.00     0.067 A 
HETATM   16  C2  UNK     1      18.367   3.215  32.027  1.00  0.00     0.092 A 
HETATM   17  C1  UNK     1      18.686   3.922  30.866  1.00  0.00     0.004 A 
HETATM   18  O1  UNK     1      18.011   3.887  33.213  1.00  0.00    -0.275 OA
HETATM   19  C3  UNK     1      18.643   5.389  30.902  1.00  0.00    -0.043 A 
HETATM   20  C5  UNK     1      19.031   3.180  29.728  1.00  0.00     0.017 A 
HETATM   21  C8  UNK     1      18.301   6.002  32.043  1.00  0.00     0.090 A 
HETATM   22  C9  UNK     1      18.981   6.178  29.670  1.00  0.00     0.049 C 
HETATM   23  C10 UNK     1      17.962   5.270  33.277  1.00  0.00     0.288 A 
HETATM   24  O2  UNK     1      17.653   5.865  34.304  1.00  0.00    -0.260 OA
HETATM   25  C7  UNK     1      19.051   1.781  29.765  1.00  0.00     0.030 A 
ENDBRANCH   1  14
TORSDOF 4
ENDMDL
MODEL 9
REMARK VINA RESULT:      -8.3      8.262     11.436
REMARK  4 active torsions:
REMARK  status: ('A' for Active; 'I' for Inactive)
REMARK    1  A    between atoms: C11_18  and  N1_5 
REMARK    2  A    between atoms: C4_11  and  N1_5 
REMARK    3  A    between atoms: C11_18  and  N2_6 
REMARK    4  A    between atoms: C12_19  and  N2_6 
ROOT
HETATM    1  N1  UNK     1      17.583   4.649  31.962  1.00  0.00    -0.333 N 
HETATM    2  H8  UNK     1      16.600   4.602  32.222  1.00  0.00     0.168 HD
ENDROOT
BRANCH   1   3
HETATM    3  C11 UNK     1      18.081   5.958  31.918  1.00  0.00     0.177 C 
HETATM    4  S1  UNK     1      19.752   6.154  32.012  1.00  0.00    -0.040 SA
BRANCH   3   5
HETATM    5  N2  UNK     1      17.146   6.950  31.683  1.00  0.00    -0.318 N 
HETATM    6  H9  UNK     1      16.738   6.993  30.760  1.00  0.00     0.170 HD
BRANCH   5   7
HETATM    7  C12 UNK     1      16.487   7.838  32.570  1.00  0.00     0.129 A 
HETATM    8  N3  UNK     1      17.159   8.927  32.980  1.00  0.00    -0.242 NA
HETATM    9  C16 UNK     1      16.491   9.745  33.824  1.00  0.00     0.138 A 
HETATM   10  C15 UNK     1      15.197   9.516  34.264  1.00  0.00     0.028 A 
HETATM   11 Br1  UNK     1      14.344  10.715  35.439  1.00  0.00    -0.050 Br
HETATM   12  C14 UNK     1      14.547   8.375  33.808  1.00  0.00     0.024 A 
HETATM   13  C13 UNK     1      15.202   7.509  32.940  1.00  0.00     0.052 A 
ENDBRANCH   5   7
ENDBRANCH   3   5
ENDBRANCH   1   3
BRANCH   1  14
HETATM   14  C4  UNK     1      18.118   3.434  31.534  1.00  0.00     0.036 A 
HETATM   15  C6  UNK     1      18.279   2.386  32.433  1.00  0.00     0.067 A 
HETATM   16  C2  UNK     1      18.816   1.178  31.982  1.00  0.00     0.092 A 
HETATM   17  C1  UNK     1      19.199   0.981  30.655  1.00  0.00     0.004 A 
HETATM   18  O1  UNK     1      18.954   0.152  32.939  1.00  0.00    -0.275 OA
HETATM   19  C3  UNK     1      19.754  -0.322  30.269  1.00  0.00    -0.043 A 
HETATM   20  C5  UNK     1      19.029   2.050  29.764  1.00  0.00     0.017 A 
HETATM   21  C8  UNK     1      19.875  -1.279  31.200  1.00  0.00     0.090 A 
HETATM   22  C9  UNK     1      20.177  -0.565  28.848  1.00  0.00     0.049 C 
HETATM   23  C10 UNK     1      19.474  -1.087  32.604  1.00  0.00     0.288 A 
HETATM   24  O2  UNK     1      19.599  -1.986  33.429  1.00  0.00    -0.260 OA
HETATM   25  C7  UNK     1      18.492   3.266  30.201  1.00  0.00     0.030 A 
ENDBRANCH   1  14
TORSDOF 4
ENDMDL
MODEL 10
REMARK VINA RESULT:      -8.1      6.795      8.999
REMARK  4 active torsions:
REMARK  status: ('A' for Active; 'I' for Inactive)
REMARK    1  A    between atoms: C11_18  and  N1_5 
REMARK    2  A    between atoms: C4_11  and  N1_5 
REMARK    3  A    between atoms: C11_18  and  N2_6 
REMARK    4  A    between atoms: C12_19  and  N2_6 
ROOT
HETATM    1  N1  UNK     1      19.038   0.312  30.609  1.00  0.00    -0.333 N 
HETATM    2  H8  UNK     1      19.449  -0.385  29.991  1.00  0.00     0.168 HD
ENDROOT
BRANCH   1   3
HETATM    3  C11 UNK     1      18.850   1.556  29.993  1.00  0.00     0.177 C 
HETATM    4  S1  UNK     1      17.858   1.602  28.630  1.00  0.00    -0.040 SA
BRANCH   3   5
HETATM    5  N2  UNK     1      19.409   2.640  30.643  1.00  0.00    -0.318 N 
HETATM    6  H9  UNK     1      20.411   2.637  30.773  1.00  0.00     0.170 HD
BRANCH   5   7
HETATM    7  C12 UNK     1      18.854   3.890  31.017  1.00  0.00     0.129 A 
HETATM    8  N3  UNK     1      18.006   3.913  32.058  1.00  0.00    -0.242 NA
HETATM    9  C16 UNK     1      17.503   5.127  32.378  1.00  0.00     0.138 A 
HETATM   10  C15 UNK     1      17.813   6.297  31.704  1.00  0.00     0.028 A 
HETATM   11 Br1  UNK     1      17.064   7.945  32.223  1.00  0.00    -0.050 Br
HETATM   12  C14 UNK     1      18.697   6.217  30.634  1.00  0.00     0.024 A 
HETATM   13  C13 UNK     1      19.235   4.987  30.275  1.00  0.00     0.052 A 
ENDBRANCH   5   7
ENDBRANCH   3   5
ENDBRANCH   1   3
BRANCH   1  14
HETATM   14  C4  UNK     1      18.951  -0.090  31.942  1.00  0.00     0.036 A 
HETATM   15  C6  UNK     1      18.346   0.736  32.883  1.00  0.00     0.067 A 
HETATM   16  C2  UNK     1      18.269   0.313  34.212  1.00  0.00     0.092 A 
HETATM   17  C1  UNK     1      18.779  -0.916  34.634  1.00  0.00     0.004 A 
HETATM   18  O1  UNK     1      17.644   1.192  35.119  1.00  0.00    -0.275 OA
HETATM   19  C3  UNK     1      18.654  -1.279  36.051  1.00  0.00    -0.043 A 
HETATM   20  C5  UNK     1      19.385  -1.733  33.670  1.00  0.00     0.017 A 
HETATM   21  C8  UNK     1      18.056  -0.424  36.892  1.00  0.00     0.090 A 
HETATM   22  C9  UNK     1      19.193  -2.594  36.537  1.00  0.00     0.049 C 
HETATM   23  C10 UNK     1      17.511   0.876  36.461  1.00  0.00     0.288 A 
HETATM   24  O2  UNK     1      16.970   1.634  37.259  1.00  0.00    -0.260 OA
HETATM   25  C7  UNK     1      19.470  -1.323  32.335  1.00  0.00     0.030 A 
ENDBRANCH   1  14
TORSDOF 4
ENDMDL
