MODEL 1
REMARK VINA RESULT:      -8.3      0.000      0.000
REMARK  3 active torsions:
REMARK  status: ('A' for Active; 'I' for Inactive)
REMARK    1  A    between atoms: C12_16  and  O2_2 
REMARK    2  A    between atoms: C11_15  and  O4_4 
REMARK    3  A    between atoms: C2_6  and  C4_8 
ROOT
HETATM    1  O1  UNK     1      18.829   0.480  33.352  1.00  0.00    -0.309 OA
HETATM    2  O3  UNK     1      19.469  -2.669  35.856  1.00  0.00    -0.287 OA
HETATM    3  C1  UNK     1      18.749  -0.433  35.602  1.00  0.00     0.051 A 
HETATM    4  C2  UNK     1      19.332  -0.727  32.890  1.00  0.00     0.090 A 
HETATM    5  C3  UNK     1      18.553   0.603  34.690  1.00  0.00     0.090 A 
HETATM    6  C5  UNK     1      19.275  -1.717  35.114  1.00  0.00     0.187 A 
HETATM    7  C6  UNK     1      19.558  -1.799  33.666  1.00  0.00     0.093 A 
HETATM    8  C7  UNK     1      18.449  -0.251  36.954  1.00  0.00     0.054 A 
HETATM    9  C8  UNK     1      18.053   1.831  35.127  1.00  0.00     0.041 A 
HETATM   10  C11 UNK     1      17.950   0.978  37.387  1.00  0.00     0.066 A 
HETATM   11  C13 UNK     1      17.753   2.016  36.476  1.00  0.00     0.039 A 
ENDROOT
BRANCH   4  12
HETATM   12  C4  UNK     1      19.587  -0.754  31.435  1.00  0.00     0.001 A 
HETATM   13  C10 UNK     1      20.217  -1.856  30.854  1.00  0.00     0.014 A 
HETATM   14  C14 UNK     1      20.457  -1.882  29.480  1.00  0.00     0.004 A 
HETATM   15  C15 UNK     1      20.069  -0.805  28.683  1.00  0.00     0.037 A 
HETATM   16  C12 UNK     1      19.440   0.298  29.261  1.00  0.00     0.069 A 
HETATM   17  C9  UNK     1      19.199   0.324  30.635  1.00  0.00     0.051 A 
BRANCH  16  18
HETATM   18  O2  UNK     1      19.061   1.350  28.484  1.00  0.00    -0.356 OA
HETATM   19  C16 UNK     1      17.906   2.078  28.896  1.00  0.00     0.210 C 
ENDBRANCH  16  18
ENDBRANCH   4  12
BRANCH  10  20
HETATM   20  O4  UNK     1      17.654   1.165  38.702  1.00  0.00    -0.361 OA
HETATM   21  H9  UNK     1      18.265   1.824  39.074  1.00  0.00     0.217 HD
ENDBRANCH  10  20
TORSDOF 3
ENDMDL
MODEL 2
REMARK VINA RESULT:      -8.3      3.411      6.354
REMARK  3 active torsions:
REMARK  status: ('A' for Active; 'I' for Inactive)
REMARK    1  A    between atoms: C12_16  and  O2_2 
REMARK    2  A    between atoms: C11_15  and  O4_4 
REMARK    3  A    between atoms: C2_6  and  C4_8 
ROOT
HETATM    1  O1  UNK     1      19.284   2.117  30.353  1.00  0.00    -0.309 OA
HETATM    2  O3  UNK     1      18.597  -0.103  33.699  1.00  0.00    -0.287 OA
HETATM    3  C1  UNK     1      19.396  -0.034  31.477  1.00  0.00     0.051 A 
HETATM    4  C2  UNK     1      18.720   2.672  31.492  1.00  0.00     0.090 A 
HETATM    5  C3  UNK     1      19.605   0.784  30.367  1.00  0.00     0.090 A 
HETATM    6  C5  UNK     1      18.805   0.554  32.689  1.00  0.00     0.187 A 
HETATM    7  C6  UNK     1      18.475   1.992  32.623  1.00  0.00     0.093 A 
HETATM    8  C7  UNK     1      19.744  -1.386  31.434  1.00  0.00     0.054 A 
HETATM    9  C8  UNK     1      20.166   0.251  29.204  1.00  0.00     0.041 A 
HETATM   10  C11 UNK     1      20.304  -1.915  30.270  1.00  0.00     0.066 A 
HETATM   11  C13 UNK     1      20.514  -1.098  29.159  1.00  0.00     0.039 A 
ENDROOT
BRANCH   4  12
HETATM   12  C4  UNK     1      18.420   4.113  31.372  1.00  0.00     0.001 A 
HETATM   13  C10 UNK     1      18.969   4.860  30.327  1.00  0.00     0.014 A 
HETATM   14  C14 UNK     1      18.684   6.220  30.213  1.00  0.00     0.004 A 
HETATM   15  C15 UNK     1      17.851   6.840  31.145  1.00  0.00     0.037 A 
HETATM   16  C12 UNK     1      17.302   6.097  32.191  1.00  0.00     0.069 A 
HETATM   17  C9  UNK     1      17.586   4.736  32.304  1.00  0.00     0.051 A 
BRANCH  16  18
HETATM   18  O2  UNK     1      16.489   6.701  33.101  1.00  0.00    -0.356 OA
HETATM   19  C16 UNK     1      17.009   6.882  34.417  1.00  0.00     0.210 C 
ENDBRANCH  16  18
ENDBRANCH   4  12
BRANCH  10  20
HETATM   20  O4  UNK     1      20.647  -3.231  30.220  1.00  0.00    -0.361 OA
HETATM   21  H9  UNK     1      20.139  -3.664  29.512  1.00  0.00     0.217 HD
ENDBRANCH  10  20
TORSDOF 3
ENDMDL
MODEL 3
REMARK VINA RESULT:      -7.9     24.529     26.512
REMARK  3 active torsions:
REMARK  status: ('A' for Active; 'I' for Inactive)
REMARK    1  A    between atoms: C12_16  and  O2_2 
REMARK    2  A    between atoms: C11_15  and  O4_4 
REMARK    3  A    between atoms: C2_6  and  C4_8 
ROOT
HETATM    1  O1  UNK     1      13.150   7.454   8.433  1.00  0.00    -0.309 OA
HETATM    2  O3  UNK     1      15.203   4.151   9.644  1.00  0.00    -0.287 OA
HETATM    3  C1  UNK     1      15.160   6.501   9.407  1.00  0.00     0.051 A 
HETATM    4  C2  UNK     1      12.618   6.180   8.307  1.00  0.00     0.090 A 
HETATM    5  C3  UNK     1      14.403   7.588   8.973  1.00  0.00     0.090 A 
HETATM    6  C5  UNK     1      14.596   5.148   9.281  1.00  0.00     0.187 A 
HETATM    7  C6  UNK     1      13.245   5.057   8.692  1.00  0.00     0.093 A 
HETATM    8  C7  UNK     1      16.432   6.697   9.951  1.00  0.00     0.054 A 
HETATM    9  C8  UNK     1      14.914   8.882   9.083  1.00  0.00     0.041 A 
HETATM   10  C11 UNK     1      16.940   7.993  10.059  1.00  0.00     0.066 A 
HETATM   11  C13 UNK     1      16.184   9.082   9.625  1.00  0.00     0.039 A 
ENDROOT
BRANCH   4  12
HETATM   12  C4  UNK     1      11.262   6.150   7.720  1.00  0.00     0.001 A 
HETATM   13  C10 UNK     1      11.095   6.224   6.335  1.00  0.00     0.014 A 
HETATM   14  C14 UNK     1       9.816   6.195   5.782  1.00  0.00     0.004 A 
HETATM   15  C15 UNK     1       8.698   6.092   6.611  1.00  0.00     0.037 A 
HETATM   16  C12 UNK     1       8.861   6.018   7.995  1.00  0.00     0.069 A 
HETATM   17  C9  UNK     1      10.142   6.047   8.548  1.00  0.00     0.051 A 
BRANCH  16  18
HETATM   18  O2  UNK     1       7.772   5.918   8.804  1.00  0.00    -0.356 OA
HETATM   19  C16 UNK     1       7.622   4.708   9.544  1.00  0.00     0.210 C 
ENDBRANCH  16  18
ENDBRANCH   4  12
BRANCH  10  20
HETATM   20  O4  UNK     1      18.178   8.194  10.588  1.00  0.00    -0.361 OA
HETATM   21  H9  UNK     1      18.846   8.037   9.899  1.00  0.00     0.217 HD
ENDBRANCH  10  20
TORSDOF 3
ENDMDL
MODEL 4
REMARK VINA RESULT:      -7.9      2.707      6.838
REMARK  3 active torsions:
REMARK  status: ('A' for Active; 'I' for Inactive)
REMARK    1  A    between atoms: C12_16  and  O2_2 
REMARK    2  A    between atoms: C11_15  and  O4_4 
REMARK    3  A    between atoms: C2_6  and  C4_8 
ROOT
HETATM    1  O1  UNK     1      18.242   3.325  34.148  1.00  0.00    -0.309 OA
HETATM    2  O3  UNK     1      18.622   1.422  30.566  1.00  0.00    -0.287 OA
HETATM    3  C1  UNK     1      18.516   3.470  31.738  1.00  0.00     0.051 A 
HETATM    4  C2  UNK     1      18.226   1.942  34.053  1.00  0.00     0.090 A 
HETATM    5  C3  UNK     1      18.382   4.057  32.996  1.00  0.00     0.090 A 
HETATM    6  C5  UNK     1      18.507   2.003  31.636  1.00  0.00     0.187 A 
HETATM    7  C6  UNK     1      18.351   1.261  32.903  1.00  0.00     0.093 A 
HETATM    8  C7  UNK     1      18.657   4.266  30.599  1.00  0.00     0.054 A 
HETATM    9  C8  UNK     1      18.390   5.447  33.122  1.00  0.00     0.041 A 
HETATM   10  C11 UNK     1      18.664   5.656  30.728  1.00  0.00     0.066 A 
HETATM   11  C13 UNK     1      18.530   6.244  31.986  1.00  0.00     0.039 A 
ENDROOT
BRANCH   4  12
HETATM   12  C4  UNK     1      18.077   1.253  35.352  1.00  0.00     0.001 A 
HETATM   13  C10 UNK     1      17.604   1.950  36.466  1.00  0.00     0.014 A 
HETATM   14  C14 UNK     1      17.464   1.299  37.691  1.00  0.00     0.004 A 
HETATM   15  C15 UNK     1      17.795  -0.051  37.807  1.00  0.00     0.037 A 
HETATM   16  C12 UNK     1      18.269  -0.750  36.696  1.00  0.00     0.069 A 
HETATM   17  C9  UNK     1      18.409  -0.099  35.470  1.00  0.00     0.051 A 
BRANCH  16  18
HETATM   18  O2  UNK     1      18.593  -2.068  36.808  1.00  0.00    -0.356 OA
HETATM   19  C16 UNK     1      19.882  -2.461  36.342  1.00  0.00     0.210 C 
ENDBRANCH  16  18
ENDBRANCH   4  12
BRANCH  10  20
HETATM   20  O4  UNK     1      18.801   6.439  29.624  1.00  0.00    -0.361 OA
HETATM   21  H9  UNK     1      18.165   7.173  29.675  1.00  0.00     0.217 HD
ENDBRANCH  10  20
TORSDOF 3
ENDMDL
MODEL 5
REMARK VINA RESULT:      -7.8      1.369      2.418
REMARK  3 active torsions:
REMARK  status: ('A' for Active; 'I' for Inactive)
REMARK    1  A    between atoms: C12_16  and  O2_2 
REMARK    2  A    between atoms: C11_15  and  O4_4 
REMARK    3  A    between atoms: C2_6  and  C4_8 
ROOT
HETATM    1  O1  UNK     1      19.691  -1.602  33.510  1.00  0.00    -0.309 OA
HETATM    2  O3  UNK     1      17.315   1.231  35.220  1.00  0.00    -0.287 OA
HETATM    3  C1  UNK     1      18.617  -0.720  35.502  1.00  0.00     0.051 A 
HETATM    4  C2  UNK     1      19.131  -0.576  32.764  1.00  0.00     0.090 A 
HETATM    5  C3  UNK     1      19.422  -1.656  34.853  1.00  0.00     0.090 A 
HETATM    6  C5  UNK     1      18.027   0.374  34.716  1.00  0.00     0.187 A 
HETATM    7  C6  UNK     1      18.345   0.387  33.274  1.00  0.00     0.093 A 
HETATM    8  C7  UNK     1      18.378  -0.824  36.874  1.00  0.00     0.054 A 
HETATM    9  C8  UNK     1      19.995  -2.703  35.576  1.00  0.00     0.041 A 
HETATM   10  C11 UNK     1      18.952  -1.873  37.594  1.00  0.00     0.066 A 
HETATM   11  C13 UNK     1      19.758  -2.810  36.947  1.00  0.00     0.039 A 
ENDROOT
BRANCH   4  12
HETATM   12  C4  UNK     1      19.490  -0.608  31.332  1.00  0.00     0.001 A 
HETATM   13  C10 UNK     1      20.273  -1.649  30.828  1.00  0.00     0.014 A 
HETATM   14  C14 UNK     1      20.612  -1.679  29.476  1.00  0.00     0.004 A 
HETATM   15  C15 UNK     1      20.168  -0.669  28.622  1.00  0.00     0.037 A 
HETATM   16  C12 UNK     1      19.386   0.373  29.122  1.00  0.00     0.069 A 
HETATM   17  C9  UNK     1      19.048   0.403  30.475  1.00  0.00     0.051 A 
BRANCH  16  18
HETATM   18  O2  UNK     1      18.954   1.359  28.289  1.00  0.00    -0.356 OA
HETATM   19  C16 UNK     1      17.879   2.175  28.753  1.00  0.00     0.210 C 
ENDBRANCH  16  18
ENDBRANCH   4  12
BRANCH  10  20
HETATM   20  O4  UNK     1      18.726  -1.981  38.932  1.00  0.00    -0.361 OA
HETATM   21  H9  UNK     1      18.072  -2.685  39.086  1.00  0.00     0.217 HD
ENDBRANCH  10  20
TORSDOF 3
ENDMDL
MODEL 6
REMARK VINA RESULT:      -7.8      1.476      7.114
REMARK  3 active torsions:
REMARK  status: ('A' for Active; 'I' for Inactive)
REMARK    1  A    between atoms: C12_16  and  O2_2 
REMARK    2  A    between atoms: C11_15  and  O4_4 
REMARK    3  A    between atoms: C2_6  and  C4_8 
ROOT
HETATM    1  O1  UNK     1      19.037  -0.373  33.302  1.00  0.00    -0.309 OA
HETATM    2  O3  UNK     1      18.347   2.928  31.017  1.00  0.00    -0.287 OA
HETATM    3  C1  UNK     1      19.143   0.706  31.128  1.00  0.00     0.051 A 
HETATM    4  C2  UNK     1      18.495   0.784  33.840  1.00  0.00     0.090 A 
HETATM    5  C3  UNK     1      19.352  -0.387  31.967  1.00  0.00     0.090 A 
HETATM    6  C5  UNK     1      18.561   1.933  31.694  1.00  0.00     0.187 A 
HETATM    7  C6  UNK     1      18.241   1.899  33.136  1.00  0.00     0.093 A 
HETATM    8  C7  UNK     1      19.482   0.634  29.776  1.00  0.00     0.054 A 
HETATM    9  C8  UNK     1      19.902  -1.564  31.455  1.00  0.00     0.041 A 
HETATM   10  C11 UNK     1      20.032  -0.544  29.266  1.00  0.00     0.066 A 
HETATM   11  C13 UNK     1      20.241  -1.639  30.105  1.00  0.00     0.039 A 
ENDROOT
BRANCH   4  12
HETATM   12  C4  UNK     1      18.187   0.690  35.282  1.00  0.00     0.001 A 
HETATM   13  C10 UNK     1      17.629   1.780  35.953  1.00  0.00     0.014 A 
HETATM   14  C14 UNK     1      17.338   1.691  37.314  1.00  0.00     0.004 A 
HETATM   15  C15 UNK     1      17.605   0.510  38.009  1.00  0.00     0.037 A 
HETATM   16  C12 UNK     1      18.163  -0.580  37.342  1.00  0.00     0.069 A 
HETATM   17  C9  UNK     1      18.454  -0.491  35.980  1.00  0.00     0.051 A 
BRANCH  16  18
HETATM   18  O2  UNK     1      18.424  -1.732  38.019  1.00  0.00    -0.356 OA
HETATM   19  C16 UNK     1      19.386  -2.617  37.448  1.00  0.00     0.210 C 
ENDBRANCH  16  18
ENDBRANCH   4  12
BRANCH  10  20
HETATM   20  O4  UNK     1      20.364  -0.624  27.949  1.00  0.00    -0.361 OA
HETATM   21  H9  UNK     1      20.132   0.214  27.513  1.00  0.00     0.217 HD
ENDBRANCH  10  20
TORSDOF 3
ENDMDL
MODEL 7
REMARK VINA RESULT:      -7.8      4.591      6.555
REMARK  3 active torsions:
REMARK  status: ('A' for Active; 'I' for Inactive)
REMARK    1  A    between atoms: C12_16  and  O2_2 
REMARK    2  A    between atoms: C11_15  and  O4_4 
REMARK    3  A    between atoms: C2_6  and  C4_8 
ROOT
HETATM    1  O1  UNK     1      18.375   3.886  34.490  1.00  0.00    -0.309 OA
HETATM    2  O3  UNK     1      18.197   1.744  31.029  1.00  0.00    -0.287 OA
HETATM    3  C1  UNK     1      18.336   1.722  33.387  1.00  0.00     0.051 A 
HETATM    4  C2  UNK     1      18.304   4.507  33.252  1.00  0.00     0.090 A 
HETATM    5  C3  UNK     1      18.393   2.515  34.532  1.00  0.00     0.090 A 
HETATM    6  C5  UNK     1      18.253   2.378  32.074  1.00  0.00     0.187 A 
HETATM    7  C6  UNK     1      18.239   3.855  32.081  1.00  0.00     0.093 A 
HETATM    8  C7  UNK     1      18.358   0.329  33.491  1.00  0.00     0.054 A 
HETATM    9  C8  UNK     1      18.471   1.918  35.792  1.00  0.00     0.041 A 
HETATM   10  C11 UNK     1      18.435  -0.265  34.752  1.00  0.00     0.066 A 
HETATM   11  C13 UNK     1      18.492   0.528  35.898  1.00  0.00     0.039 A 
ENDROOT
BRANCH   4  12
HETATM   12  C4  UNK     1      18.283   5.983  33.321  1.00  0.00     0.001 A 
HETATM   13  C10 UNK     1      19.235   6.663  34.085  1.00  0.00     0.014 A 
HETATM   14  C14 UNK     1      19.215   8.056  34.149  1.00  0.00     0.004 A 
HETATM   15  C15 UNK     1      18.244   8.774  33.450  1.00  0.00     0.037 A 
HETATM   16  C12 UNK     1      17.291   8.097  32.687  1.00  0.00     0.069 A 
HETATM   17  C9  UNK     1      17.311   6.704  32.623  1.00  0.00     0.051 A 
BRANCH  16  18
HETATM   18  O2  UNK     1      16.343   8.797  32.006  1.00  0.00    -0.356 OA
HETATM   19  C16 UNK     1      15.205   9.236  32.745  1.00  0.00     0.210 C 
ENDBRANCH  16  18
ENDBRANCH   4  12
BRANCH  10  20
HETATM   20  O4  UNK     1      18.456  -1.621  34.863  1.00  0.00    -0.361 OA
HETATM   21  H9  UNK     1      19.377  -1.918  34.956  1.00  0.00     0.217 HD
ENDBRANCH  10  20
TORSDOF 3
ENDMDL
MODEL 8
REMARK VINA RESULT:      -7.8     24.466     26.777
REMARK  3 active torsions:
REMARK  status: ('A' for Active; 'I' for Inactive)
REMARK    1  A    between atoms: C12_16  and  O2_2 
REMARK    2  A    between atoms: C11_15  and  O4_4 
REMARK    3  A    between atoms: C2_6  and  C4_8 
ROOT
HETATM    1  O1  UNK     1      12.917   6.435   8.536  1.00  0.00    -0.309 OA
HETATM    2  O3  UNK     1      13.921  10.159   9.846  1.00  0.00    -0.287 OA
HETATM    3  C1  UNK     1      14.580   7.916   9.505  1.00  0.00     0.051 A 
HETATM    4  C2  UNK     1      12.016   7.487   8.497  1.00  0.00     0.090 A 
HETATM    5  C3  UNK     1      14.171   6.668   9.040  1.00  0.00     0.090 A 
HETATM    6  C5  UNK     1      13.629   9.037   9.458  1.00  0.00     0.187 A 
HETATM    7  C6  UNK     1      12.291   8.735   8.910  1.00  0.00     0.093 A 
HETATM    8  C7  UNK     1      15.871   8.095  10.007  1.00  0.00     0.054 A 
HETATM    9  C8  UNK     1      15.055   5.587   9.072  1.00  0.00     0.041 A 
HETATM   10  C11 UNK     1      16.753   7.013  10.038  1.00  0.00     0.066 A 
HETATM   11  C13 UNK     1      16.345   5.763   9.572  1.00  0.00     0.039 A 
ENDROOT
BRANCH   4  12
HETATM   12  C4  UNK     1      10.698   7.130   7.931  1.00  0.00     0.001 A 
HETATM   13  C10 UNK     1      10.614   6.551   6.663  1.00  0.00     0.014 A 
HETATM   14  C14 UNK     1       9.370   6.213   6.129  1.00  0.00     0.004 A 
HETATM   15  C15 UNK     1       8.207   6.453   6.862  1.00  0.00     0.037 A 
HETATM   16  C12 UNK     1       8.289   7.032   8.129  1.00  0.00     0.069 A 
HETATM   17  C9  UNK     1       9.533   7.370   8.663  1.00  0.00     0.051 A 
BRANCH  16  18
HETATM   18  O2  UNK     1       7.154   7.267   8.844  1.00  0.00    -0.356 OA
HETATM   19  C16 UNK     1       7.314   7.625  10.215  1.00  0.00     0.210 C 
ENDBRANCH  16  18
ENDBRANCH   4  12
BRANCH  10  20
HETATM   20  O4  UNK     1      18.013   7.179  10.524  1.00  0.00    -0.361 OA
HETATM   21  H9  UNK     1      18.601   7.445   9.796  1.00  0.00     0.217 HD
ENDBRANCH  10  20
TORSDOF 3
ENDMDL
MODEL 9
REMARK VINA RESULT:      -7.7      3.364      5.094
REMARK  3 active torsions:
REMARK  status: ('A' for Active; 'I' for Inactive)
REMARK    1  A    between atoms: C12_16  and  O2_2 
REMARK    2  A    between atoms: C11_15  and  O4_4 
REMARK    3  A    between atoms: C2_6  and  C4_8 
ROOT
HETATM    1  O1  UNK     1      18.066   2.805  35.057  1.00  0.00    -0.309 OA
HETATM    2  O3  UNK     1      18.320  -0.686  32.974  1.00  0.00    -0.287 OA
HETATM    3  C1  UNK     1      18.072   0.376  35.070  1.00  0.00     0.051 A 
HETATM    4  C2  UNK     1      18.236   2.790  33.682  1.00  0.00     0.090 A 
HETATM    5  C3  UNK     1      17.992   1.607  35.720  1.00  0.00     0.090 A 
HETATM    6  C5  UNK     1      18.245   0.356  33.609  1.00  0.00     0.187 A 
HETATM    7  C6  UNK     1      18.321   1.672  32.943  1.00  0.00     0.093 A 
HETATM    8  C7  UNK     1      17.990  -0.814  35.797  1.00  0.00     0.054 A 
HETATM    9  C8  UNK     1      17.826   1.654  37.105  1.00  0.00     0.041 A 
HETATM   10  C11 UNK     1      17.824  -0.763  37.182  1.00  0.00     0.066 A 
HETATM   11  C13 UNK     1      17.744   0.468  37.834  1.00  0.00     0.039 A 
ENDROOT
BRANCH   4  12
HETATM   12  C4  UNK     1      18.296   4.132  33.068  1.00  0.00     0.001 A 
HETATM   13  C10 UNK     1      18.487   4.266  31.691  1.00  0.00     0.014 A 
HETATM   14  C14 UNK     1      18.543   5.534  31.112  1.00  0.00     0.004 A 
HETATM   15  C15 UNK     1      18.409   6.672  31.908  1.00  0.00     0.037 A 
HETATM   16  C12 UNK     1      18.219   6.541  33.284  1.00  0.00     0.069 A 
HETATM   17  C9  UNK     1      18.163   5.273  33.863  1.00  0.00     0.051 A 
BRANCH  16  18
HETATM   18  O2  UNK     1      18.088   7.651  34.061  1.00  0.00    -0.356 OA
HETATM   19  C16 UNK     1      17.040   7.646  35.029  1.00  0.00     0.210 C 
ENDBRANCH  16  18
ENDBRANCH   4  12
BRANCH  10  20
HETATM   20  O4  UNK     1      17.742  -1.917  37.898  1.00  0.00    -0.361 OA
HETATM   21  H9  UNK     1      18.611  -2.354  37.896  1.00  0.00     0.217 HD
ENDBRANCH  10  20
TORSDOF 3
ENDMDL
MODEL 10
REMARK VINA RESULT:      -7.7     13.470     17.376
REMARK  3 active torsions:
REMARK  status: ('A' for Active; 'I' for Inactive)
REMARK    1  A    between atoms: C12_16  and  O2_2 
REMARK    2  A    between atoms: C11_15  and  O4_4 
REMARK    3  A    between atoms: C2_6  and  C4_8 
ROOT
HETATM    1  O1  UNK     1      19.122  -1.105  16.825  1.00  0.00    -0.309 OA
HETATM    2  O3  UNK     1      19.361   2.797  15.683  1.00  0.00    -0.287 OA
HETATM    3  C1  UNK     1      19.162   1.242  17.450  1.00  0.00     0.051 A 
HETATM    4  C2  UNK     1      19.232  -0.743  15.492  1.00  0.00     0.090 A 
HETATM    5  C3  UNK     1      19.086  -0.113  17.771  1.00  0.00     0.090 A 
HETATM    6  C5  UNK     1      19.286   1.629  16.036  1.00  0.00     0.187 A 
HETATM    7  C6  UNK     1      19.319   0.524  15.057  1.00  0.00     0.093 A 
HETATM    8  C7  UNK     1      19.121   2.210  18.456  1.00  0.00     0.054 A 
HETATM    9  C8  UNK     1      18.969  -0.508  19.105  1.00  0.00     0.041 A 
HETATM   10  C11 UNK     1      19.005   1.812  19.789  1.00  0.00     0.066 A 
HETATM   11  C13 UNK     1      18.929   0.457  20.112  1.00  0.00     0.039 A 
ENDROOT
BRANCH   4  12
HETATM   12  C4  UNK     1      19.269  -1.888  14.559  1.00  0.00     0.001 A 
HETATM   13  C10 UNK     1      20.158  -1.887  13.482  1.00  0.00     0.014 A 
HETATM   14  C14 UNK     1      20.194  -2.969  12.602  1.00  0.00     0.004 A 
HETATM   15  C15 UNK     1      19.339  -4.055  12.796  1.00  0.00     0.037 A 
HETATM   16  C12 UNK     1      18.449  -4.058  13.870  1.00  0.00     0.069 A 
HETATM   17  C9  UNK     1      18.414  -2.976  14.750  1.00  0.00     0.051 A 
BRANCH  16  18
HETATM   18  O2  UNK     1      17.614  -5.117  14.058  1.00  0.00    -0.356 OA
HETATM   19  C16 UNK     1      17.670  -5.769  15.326  1.00  0.00     0.210 C 
ENDBRANCH  16  18
ENDBRANCH   4  12
BRANCH  10  20
HETATM   20  O4  UNK     1      18.965   2.748  20.775  1.00  0.00    -0.361 OA
HETATM   21  H9  UNK     1      18.051   2.830  21.097  1.00  0.00     0.217 HD
ENDBRANCH  10  20
TORSDOF 3
ENDMDL
