MODEL 1
REMARK VINA RESULT:      -8.8      0.000      0.000
REMARK  3 active torsions:
REMARK  status: ('A' for Active; 'I' for Inactive)
REMARK    1  A    between atoms: C8_16  and  N1_6 
REMARK    2  A    between atoms: C16_24  and  N2_7 
REMARK    3  A    between atoms: C1_9  and  C4_12 
ROOT
HETATM    1  O1  UNK     1      17.008   8.241   9.804  1.00  0.00    -0.291 OA
HETATM    2  O2  UNK     1      14.043  10.537  11.659  1.00  0.00    -0.274 OA
HETATM    3  O3  UNK     1      12.725   8.687  11.850  1.00  0.00    -0.259 OA
HETATM    4  N3  UNK     1      15.712   3.602   9.870  1.00  0.00    -0.191 NA
HETATM    5  C1  UNK     1      14.549   6.926  10.484  1.00  0.00     0.108 C 
HETATM    6  C2  UNK     1      14.819   8.392  10.762  1.00  0.00     0.066 A 
HETATM    7  C3  UNK     1      15.987   8.951  10.410  1.00  0.00     0.104 A 
HETATM    8  C5  UNK     1      15.799   6.188  10.014  1.00  0.00     0.086 C 
HETATM    9  C6  UNK     1      16.248  10.369  10.644  1.00  0.00     0.033 A 
HETATM   10  C7  UNK     1      13.776   9.187  11.461  1.00  0.00     0.298 A 
HETATM   11  C8  UNK     1      16.933   6.854   9.696  1.00  0.00     0.159 C 
HETATM   12  C9  UNK     1      15.258  11.127  11.261  1.00  0.00     0.092 A 
HETATM   13  C12 UNK     1      17.438  11.009  10.278  1.00  0.00     0.017 A 
HETATM   14  C13 UNK     1      15.419  12.488  11.520  1.00  0.00     0.038 A 
HETATM   15  C17 UNK     1      15.751   4.760   9.935  1.00  0.00     0.100 C 
HETATM   16  C18 UNK     1      17.616  12.373  10.530  1.00  0.00     0.001 A 
HETATM   17  C19 UNK     1      16.607  13.112  11.151  1.00  0.00     0.003 A 
ENDROOT
BRANCH   5  18
HETATM   18  C4  UNK     1      13.449   6.776   9.472  1.00  0.00    -0.044 A 
HETATM   19  C10 UNK     1      13.519   7.476   8.273  1.00  0.00     0.011 A 
HETATM   20  C14 UNK     1      12.498   7.336   7.334  1.00  0.00     0.036 A 
HETATM   21  C16 UNK     1      11.415   6.499   7.600  1.00  0.00     0.102 A 
HETATM   22  C15 UNK     1      11.353   5.800   8.806  1.00  0.00     0.036 A 
HETATM   23  C11 UNK     1      12.374   5.940   9.746  1.00  0.00     0.011 A 
BRANCH  21  24
HETATM   24  N2  UNK     1      10.376   6.356   6.643  1.00  0.00    -0.116 N 
HETATM   25  O4  UNK     1       9.389   5.631   6.918  1.00  0.00    -0.532 OA
HETATM   26  O5  UNK     1      10.474   6.959   5.547  1.00  0.00    -0.532 OA
ENDBRANCH  21  24
ENDBRANCH   5  18
BRANCH  11  27
HETATM   27  N1  UNK     1      18.089   6.273   9.252  1.00  0.00    -0.379 N 
HETATM   28  H10 UNK     1      18.985   6.724   9.388  1.00  0.00     0.158 HD
HETATM   29  H11 UNK     1      18.036   5.378   8.783  1.00  0.00     0.158 HD
ENDBRANCH  11  27
TORSDOF 3
ENDMDL
MODEL 2
REMARK VINA RESULT:      -8.1     32.052     34.272
REMARK  3 active torsions:
REMARK  status: ('A' for Active; 'I' for Inactive)
REMARK    1  A    between atoms: C8_16  and  N1_6 
REMARK    2  A    between atoms: C16_24  and  N2_7 
REMARK    3  A    between atoms: C1_9  and  C4_12 
ROOT
HETATM    1  O1  UNK     1      30.620  -5.105  37.079  1.00  0.00    -0.291 OA
HETATM    2  O2  UNK     1      30.559  -9.289  37.011  1.00  0.00    -0.274 OA
HETATM    3  O3  UNK     1      32.296  -9.293  35.534  1.00  0.00    -0.259 OA
HETATM    4  N3  UNK     1      34.379  -3.521  34.517  1.00  0.00    -0.191 NA
HETATM    5  C1  UNK     1      32.454  -6.427  35.309  1.00  0.00     0.108 C 
HETATM    6  C2  UNK     1      31.479  -7.163  36.207  1.00  0.00     0.066 A 
HETATM    7  C3  UNK     1      30.639  -6.487  37.005  1.00  0.00     0.104 A 
HETATM    8  C5  UNK     1      32.504  -4.933  35.615  1.00  0.00     0.086 C 
HETATM    9  C6  UNK     1      29.675  -7.184  37.852  1.00  0.00     0.033 A 
HETATM   10  C7  UNK     1      31.497  -8.650  36.207  1.00  0.00     0.298 A 
HETATM   11  C8  UNK     1      31.611  -4.354  36.451  1.00  0.00     0.159 C 
HETATM   12  C9  UNK     1      29.659  -8.575  37.825  1.00  0.00     0.092 A 
HETATM   13  C12 UNK     1      28.760  -6.529  38.687  1.00  0.00     0.017 A 
HETATM   14  C13 UNK     1      28.770  -9.322  38.596  1.00  0.00     0.038 A 
HETATM   15  C17 UNK     1      33.540  -4.153  35.008  1.00  0.00     0.100 C 
HETATM   16  C18 UNK     1      27.862  -7.264  39.468  1.00  0.00     0.001 A 
HETATM   17  C19 UNK     1      27.867  -8.659  39.422  1.00  0.00     0.003 A 
ENDROOT
BRANCH   5  18
HETATM   18  C4  UNK     1      32.108  -6.646  33.865  1.00  0.00    -0.044 A 
HETATM   19  C10 UNK     1      30.852  -6.280  33.395  1.00  0.00     0.011 A 
HETATM   20  C14 UNK     1      30.531  -6.484  32.054  1.00  0.00     0.036 A 
HETATM   21  C16 UNK     1      31.468  -7.053  31.191  1.00  0.00     0.102 A 
HETATM   22  C15 UNK     1      32.726  -7.419  31.670  1.00  0.00     0.036 A 
HETATM   23  C11 UNK     1      33.047  -7.214  33.013  1.00  0.00     0.011 A 
BRANCH  21  24
HETATM   24  N2  UNK     1      31.141  -7.260  29.825  1.00  0.00    -0.116 N 
HETATM   25  O4  UNK     1      29.965  -7.575  29.521  1.00  0.00    -0.532 OA
HETATM   26  O5  UNK     1      32.037  -7.122  28.958  1.00  0.00    -0.532 OA
ENDBRANCH  21  24
ENDBRANCH   5  18
BRANCH  11  27
HETATM   27  N1  UNK     1      31.575  -3.023  36.766  1.00  0.00    -0.379 N 
HETATM   28  H10 UNK     1      30.967  -2.386  36.268  1.00  0.00     0.158 HD
HETATM   29  H11 UNK     1      32.170  -2.682  37.510  1.00  0.00     0.158 HD
ENDBRANCH  11  27
TORSDOF 3
ENDMDL
MODEL 3
REMARK VINA RESULT:      -8.0     31.204     33.621
REMARK  3 active torsions:
REMARK  status: ('A' for Active; 'I' for Inactive)
REMARK    1  A    between atoms: C8_16  and  N1_6 
REMARK    2  A    between atoms: C16_24  and  N2_7 
REMARK    3  A    between atoms: C1_9  and  C4_12 
ROOT
HETATM    1  O1  UNK     1      32.176  -8.564  33.334  1.00  0.00    -0.291 OA
HETATM    2  O2  UNK     1      29.597  -5.831  31.495  1.00  0.00    -0.274 OA
HETATM    3  O3  UNK     1      30.437  -4.158  32.795  1.00  0.00    -0.259 OA
HETATM    4  N3  UNK     1      35.144  -6.207  36.307  1.00  0.00    -0.191 NA
HETATM    5  C1  UNK     1      32.210  -5.859  34.296  1.00  0.00     0.108 C 
HETATM    6  C2  UNK     1      31.314  -6.337  33.169  1.00  0.00     0.066 A 
HETATM    7  C3  UNK     1      31.338  -7.618  32.772  1.00  0.00     0.104 A 
HETATM    8  C5  UNK     1      33.236  -6.912  34.702  1.00  0.00     0.086 C 
HETATM    9  C6  UNK     1      30.459  -8.096  31.708  1.00  0.00     0.033 A 
HETATM   10  C7  UNK     1      30.434  -5.347  32.494  1.00  0.00     0.298 A 
HETATM   11  C8  UNK     1      33.174  -8.178  34.228  1.00  0.00     0.159 C 
HETATM   12  C9  UNK     1      29.603  -7.183  31.101  1.00  0.00     0.092 A 
HETATM   13  C12 UNK     1      30.426  -9.426  31.269  1.00  0.00     0.017 A 
HETATM   14  C13 UNK     1      28.727  -7.552  30.081  1.00  0.00     0.038 A 
HETATM   15  C17 UNK     1      34.290  -6.522  35.589  1.00  0.00     0.100 C 
HETATM   16  C18 UNK     1      29.553  -9.812  30.247  1.00  0.00     0.001 A 
HETATM   17  C19 UNK     1      28.705  -8.877  29.654  1.00  0.00     0.003 A 
ENDROOT
BRANCH   5  18
HETATM   18  C4  UNK     1      31.388  -5.454  35.486  1.00  0.00    -0.044 A 
HETATM   19  C10 UNK     1      30.347  -6.272  35.913  1.00  0.00     0.011 A 
HETATM   20  C14 UNK     1      29.585  -5.895  37.017  1.00  0.00     0.036 A 
HETATM   21  C16 UNK     1      29.867  -4.705  37.687  1.00  0.00     0.102 A 
HETATM   22  C15 UNK     1      30.913  -3.890  37.253  1.00  0.00     0.036 A 
HETATM   23  C11 UNK     1      31.676  -4.267  36.147  1.00  0.00     0.011 A 
BRANCH  21  24
HETATM   24  N2  UNK     1      29.091  -4.323  38.813  1.00  0.00    -0.116 N 
HETATM   25  O4  UNK     1      27.848  -4.497  38.783  1.00  0.00    -0.532 OA
HETATM   26  O5  UNK     1      29.668  -3.822  39.808  1.00  0.00    -0.532 OA
ENDBRANCH  21  24
ENDBRANCH   5  18
BRANCH  11  27
HETATM   27  N1  UNK     1      34.041  -9.184  34.552  1.00  0.00    -0.379 N 
HETATM   28  H10 UNK     1      33.702 -10.106  34.797  1.00  0.00     0.158 HD
HETATM   29  H11 UNK     1      35.035  -8.994  34.543  1.00  0.00     0.158 HD
ENDBRANCH  11  27
TORSDOF 3
ENDMDL
MODEL 4
REMARK VINA RESULT:      -7.8      3.095      7.057
REMARK  3 active torsions:
REMARK  status: ('A' for Active; 'I' for Inactive)
REMARK    1  A    between atoms: C8_16  and  N1_6 
REMARK    2  A    between atoms: C16_24  and  N2_7 
REMARK    3  A    between atoms: C1_9  and  C4_12 
ROOT
HETATM    1  O1  UNK     1      11.245   8.965  10.120  1.00  0.00    -0.291 OA
HETATM    2  O2  UNK     1      13.152   6.014   7.850  1.00  0.00    -0.274 OA
HETATM    3  O3  UNK     1      15.057   6.303   9.068  1.00  0.00    -0.259 OA
HETATM    4  N3  UNK     1      14.154  10.358  13.698  1.00  0.00    -0.191 NA
HETATM    5  C1  UNK     1      14.013   8.449  10.679  1.00  0.00     0.108 C 
HETATM    6  C2  UNK     1      13.221   7.712   9.615  1.00  0.00     0.066 A 
HETATM    7  C3  UNK     1      11.931   8.008   9.395  1.00  0.00     0.104 A 
HETATM    8  C5  UNK     1      13.123   9.324  11.557  1.00  0.00     0.086 C 
HETATM    9  C6  UNK     1      11.167   7.327   8.354  1.00  0.00     0.033 A 
HETATM   10  C7  UNK     1      13.897   6.635   8.845  1.00  0.00     0.298 A 
HETATM   11  C8  UNK     1      11.824   9.544  11.247  1.00  0.00     0.159 C 
HETATM   12  C9  UNK     1      11.807   6.347   7.602  1.00  0.00     0.092 A 
HETATM   13  C12 UNK     1       9.826   7.610   8.065  1.00  0.00     0.017 A 
HETATM   14  C13 UNK     1      11.156   5.650   6.584  1.00  0.00     0.038 A 
HETATM   15  C17 UNK     1      13.693   9.895  12.740  1.00  0.00     0.100 C 
HETATM   16  C18 UNK     1       9.159   6.920   7.049  1.00  0.00     0.001 A 
HETATM   17  C19 UNK     1       9.823   5.940   6.309  1.00  0.00     0.003 A 
ENDROOT
BRANCH   5  18
HETATM   18  C4  UNK     1      15.094   9.279  10.050  1.00  0.00    -0.044 A 
HETATM   19  C10 UNK     1      16.413   9.112  10.454  1.00  0.00     0.011 A 
HETATM   20  C14 UNK     1      17.416   9.884   9.869  1.00  0.00     0.036 A 
HETATM   21  C16 UNK     1      17.093  10.817   8.883  1.00  0.00     0.102 A 
HETATM   22  C15 UNK     1      15.767  10.978   8.483  1.00  0.00     0.036 A 
HETATM   23  C11 UNK     1      14.763  10.206   9.069  1.00  0.00     0.011 A 
BRANCH  21  24
HETATM   24  N2  UNK     1      18.116  11.601   8.287  1.00  0.00    -0.116 N 
HETATM   25  O4  UNK     1      17.919  12.828   8.113  1.00  0.00    -0.532 OA
HETATM   26  O5  UNK     1      19.188  11.045   7.948  1.00  0.00    -0.532 OA
ENDBRANCH  21  24
ENDBRANCH   5  18
BRANCH  11  27
HETATM   27  N1  UNK     1      10.964  10.326  11.969  1.00  0.00    -0.379 N 
HETATM   28  H10 UNK     1      11.183  11.293  12.169  1.00  0.00     0.158 HD
HETATM   29  H11 UNK     1      10.100   9.920  12.302  1.00  0.00     0.158 HD
ENDBRANCH  11  27
TORSDOF 3
ENDMDL
MODEL 5
REMARK VINA RESULT:      -7.8     33.096     34.951
REMARK  3 active torsions:
REMARK  status: ('A' for Active; 'I' for Inactive)
REMARK    1  A    between atoms: C8_16  and  N1_6 
REMARK    2  A    between atoms: C16_24  and  N2_7 
REMARK    3  A    between atoms: C1_9  and  C4_12 
ROOT
HETATM    1  O1  UNK     1      33.155  -5.924  36.850  1.00  0.00    -0.291 OA
HETATM    2  O2  UNK     1      31.635  -6.788  33.048  1.00  0.00    -0.274 OA
HETATM    3  O3  UNK     1      29.534  -6.273  33.768  1.00  0.00    -0.259 OA
HETATM    4  N3  UNK     1      29.632  -4.145  39.612  1.00  0.00    -0.191 NA
HETATM    5  C1  UNK     1      30.312  -5.747  36.490  1.00  0.00     0.108 C 
HETATM    6  C2  UNK     1      31.274  -6.133  35.382  1.00  0.00     0.066 A 
HETATM    7  C3  UNK     1      32.593  -6.208  35.617  1.00  0.00     0.104 A 
HETATM    8  C5  UNK     1      31.037  -5.252  37.737  1.00  0.00     0.086 C 
HETATM    9  C6  UNK     1      33.527  -6.608  34.568  1.00  0.00     0.033 A 
HETATM   10  C7  UNK     1      30.727  -6.394  34.025  1.00  0.00     0.298 A 
HETATM   11  C8  UNK     1      32.380  -5.366  37.864  1.00  0.00     0.159 C 
HETATM   12  C9  UNK     1      33.015  -6.894  33.306  1.00  0.00     0.092 A 
HETATM   13  C12 UNK     1      34.909  -6.725  34.763  1.00  0.00     0.017 A 
HETATM   14  C13 UNK     1      33.832  -7.288  32.247  1.00  0.00     0.038 A 
HETATM   15  C17 UNK     1      30.261  -4.641  38.772  1.00  0.00     0.100 C 
HETATM   16  C18 UNK     1      35.741  -7.118  33.710  1.00  0.00     0.001 A 
HETATM   17  C19 UNK     1      35.203  -7.399  32.454  1.00  0.00     0.003 A 
ENDROOT
BRANCH   5  18
HETATM   18  C4  UNK     1      29.418  -6.902  36.836  1.00  0.00    -0.044 A 
HETATM   19  C10 UNK     1      29.977  -8.097  37.275  1.00  0.00     0.011 A 
HETATM   20  C14 UNK     1      29.146  -9.169  37.597  1.00  0.00     0.036 A 
HETATM   21  C16 UNK     1      27.763  -9.040  37.477  1.00  0.00     0.102 A 
HETATM   22  C15 UNK     1      27.209  -7.838  37.036  1.00  0.00     0.036 A 
HETATM   23  C11 UNK     1      28.041  -6.765  36.714  1.00  0.00     0.011 A 
BRANCH  21  24
HETATM   24  N2  UNK     1      26.917 -10.133  37.807  1.00  0.00    -0.116 N 
HETATM   25  O4  UNK     1      26.968 -10.614  38.965  1.00  0.00    -0.532 OA
HETATM   26  O5  UNK     1      26.143 -10.587  36.930  1.00  0.00    -0.532 OA
ENDBRANCH  21  24
ENDBRANCH   5  18
BRANCH  11  27
HETATM   27  N1  UNK     1      33.105  -4.964  38.952  1.00  0.00    -0.379 N 
HETATM   28  H10 UNK     1      33.085  -4.002  39.265  1.00  0.00     0.158 HD
HETATM   29  H11 UNK     1      33.665  -5.648  39.445  1.00  0.00     0.158 HD
ENDBRANCH  11  27
TORSDOF 3
ENDMDL
MODEL 6
REMARK VINA RESULT:      -7.8     31.453     33.542
REMARK  3 active torsions:
REMARK  status: ('A' for Active; 'I' for Inactive)
REMARK    1  A    between atoms: C8_16  and  N1_6 
REMARK    2  A    between atoms: C16_24  and  N2_7 
REMARK    3  A    between atoms: C1_9  and  C4_12 
ROOT
HETATM    1  O1  UNK     1      32.824  -4.809  35.415  1.00  0.00    -0.291 OA
HETATM    2  O2  UNK     1      30.159  -7.849  36.495  1.00  0.00    -0.274 OA
HETATM    3  O3  UNK     1      31.170  -9.264  35.020  1.00  0.00    -0.259 OA
HETATM    4  N3  UNK     1      36.132  -6.583  32.396  1.00  0.00    -0.191 NA
HETATM    5  C1  UNK     1      33.029  -7.307  34.015  1.00  0.00     0.108 C 
HETATM    6  C2  UNK     1      32.015  -7.042  35.112  1.00  0.00     0.066 A 
HETATM    7  C3  UNK     1      31.963  -5.848  35.721  1.00  0.00     0.104 A 
HETATM    8  C5  UNK     1      34.058  -6.187  33.899  1.00  0.00     0.086 C 
HETATM    9  C6  UNK     1      30.972  -5.571  36.758  1.00  0.00     0.033 A 
HETATM   10  C7  UNK     1      31.103  -8.144  35.517  1.00  0.00     0.298 A 
HETATM   11  C8  UNK     1      33.913  -5.023  34.573  1.00  0.00     0.159 C 
HETATM   12  C9  UNK     1      30.089  -6.586  37.112  1.00  0.00     0.092 A 
HETATM   13  C12 UNK     1      30.858  -4.337  37.411  1.00  0.00     0.017 A 
HETATM   14  C13 UNK     1      29.108  -6.408  38.087  1.00  0.00     0.038 A 
HETATM   15  C17 UNK     1      35.204  -6.406  33.069  1.00  0.00     0.100 C 
HETATM   16  C18 UNK     1      29.880  -4.143  38.391  1.00  0.00     0.001 A 
HETATM   17  C19 UNK     1      29.006  -5.177  38.729  1.00  0.00     0.003 A 
ENDROOT
BRANCH   5  18
HETATM   18  C4  UNK     1      32.337  -7.511  32.698  1.00  0.00    -0.044 A 
HETATM   19  C10 UNK     1      31.403  -6.579  32.260  1.00  0.00     0.011 A 
HETATM   20  C14 UNK     1      30.762  -6.769  31.037  1.00  0.00     0.036 A 
HETATM   21  C16 UNK     1      31.058  -7.889  30.260  1.00  0.00     0.102 A 
HETATM   22  C15 UNK     1      31.997  -8.819  30.706  1.00  0.00     0.036 A 
HETATM   23  C11 UNK     1      32.639  -8.629  31.930  1.00  0.00     0.011 A 
BRANCH  21  24
HETATM   24  N2  UNK     1      30.405  -8.081  29.013  1.00  0.00    -0.116 N 
HETATM   25  O4  UNK     1      31.097  -8.322  27.994  1.00  0.00    -0.532 OA
HETATM   26  O5  UNK     1      29.154  -8.003  28.965  1.00  0.00    -0.532 OA
ENDBRANCH  21  24
ENDBRANCH   5  18
BRANCH  11  27
HETATM   27  N1  UNK     1      34.778  -3.966  34.513  1.00  0.00    -0.379 N 
HETATM   28  H10 UNK     1      34.443  -3.013  34.585  1.00  0.00     0.158 HD
HETATM   29  H11 UNK     1      35.766  -4.150  34.396  1.00  0.00     0.158 HD
ENDBRANCH  11  27
TORSDOF 3
ENDMDL
MODEL 7
REMARK VINA RESULT:      -7.8     33.338     35.058
REMARK  3 active torsions:
REMARK  status: ('A' for Active; 'I' for Inactive)
REMARK    1  A    between atoms: C8_16  and  N1_6 
REMARK    2  A    between atoms: C16_24  and  N2_7 
REMARK    3  A    between atoms: C1_9  and  C4_12 
ROOT
HETATM    1  O1  UNK     1      31.422  -8.110  33.243  1.00  0.00    -0.291 OA
HETATM    2  O2  UNK     1      34.582  -7.545  35.927  1.00  0.00    -0.274 OA
HETATM    3  O3  UNK     1      33.223  -8.141  37.658  1.00  0.00    -0.259 OA
HETATM    4  N3  UNK     1      27.636  -9.936  35.595  1.00  0.00    -0.191 NA
HETATM    5  C1  UNK     1      30.866  -8.471  36.036  1.00  0.00     0.108 C 
HETATM    6  C2  UNK     1      32.232  -8.091  35.496  1.00  0.00     0.066 A 
HETATM    7  C3  UNK     1      32.425  -7.927  34.179  1.00  0.00     0.104 A 
HETATM    8  C5  UNK     1      29.893  -8.854  34.926  1.00  0.00     0.086 C 
HETATM    9  C6  UNK     1      33.727  -7.532  33.649  1.00  0.00     0.033 A 
HETATM   10  C7  UNK     1      33.357  -7.937  36.455  1.00  0.00     0.298 A 
HETATM   11  C8  UNK     1      30.197  -8.656  33.622  1.00  0.00     0.159 C 
HETATM   12  C9  UNK     1      34.774  -7.345  34.546  1.00  0.00     0.092 A 
HETATM   13  C12 UNK     1      33.980  -7.324  32.287  1.00  0.00     0.017 A 
HETATM   14  C13 UNK     1      36.049  -6.963  34.130  1.00  0.00     0.038 A 
HETATM   15  C17 UNK     1      28.646  -9.452  35.296  1.00  0.00     0.100 C 
HETATM   16  C18 UNK     1      35.253  -6.941  31.853  1.00  0.00     0.001 A 
HETATM   17  C19 UNK     1      36.286  -6.761  32.774  1.00  0.00     0.003 A 
ENDROOT
BRANCH   5  18
HETATM   18  C4  UNK     1      30.296  -7.352  36.859  1.00  0.00    -0.044 A 
HETATM   19  C10 UNK     1      29.678  -7.636  38.072  1.00  0.00     0.011 A 
HETATM   20  C14 UNK     1      29.150  -6.596  38.836  1.00  0.00     0.036 A 
HETATM   21  C16 UNK     1      29.242  -5.280  38.382  1.00  0.00     0.102 A 
HETATM   22  C15 UNK     1      29.864  -5.004  37.164  1.00  0.00     0.036 A 
HETATM   23  C11 UNK     1      30.393  -6.045  36.400  1.00  0.00     0.011 A 
BRANCH  21  24
HETATM   24  N2  UNK     1      28.705  -4.222  39.162  1.00  0.00    -0.116 N 
HETATM   25  O4  UNK     1      29.461  -3.598  39.945  1.00  0.00    -0.532 OA
HETATM   26  O5  UNK     1      27.488  -3.939  39.046  1.00  0.00    -0.532 OA
ENDBRANCH  21  24
ENDBRANCH   5  18
BRANCH  11  27
HETATM   27  N1  UNK     1      29.379  -8.955  32.568  1.00  0.00    -0.379 N 
HETATM   28  H10 UNK     1      29.752  -9.348  31.713  1.00  0.00     0.158 HD
HETATM   29  H11 UNK     1      28.387  -8.776  32.655  1.00  0.00     0.158 HD
ENDBRANCH  11  27
TORSDOF 3
ENDMDL
MODEL 8
REMARK VINA RESULT:      -7.7     12.624     16.239
REMARK  3 active torsions:
REMARK  status: ('A' for Active; 'I' for Inactive)
REMARK    1  A    between atoms: C8_16  and  N1_6 
REMARK    2  A    between atoms: C16_24  and  N2_7 
REMARK    3  A    between atoms: C1_9  and  C4_12 
ROOT
HETATM    1  O1  UNK     1      16.811  -7.400  12.975  1.00  0.00    -0.291 OA
HETATM    2  O2  UNK     1      20.754  -6.873  11.677  1.00  0.00    -0.274 OA
HETATM    3  O3  UNK     1      21.352  -6.181  13.765  1.00  0.00    -0.259 OA
HETATM    4  N3  UNK     1      16.582  -6.652  17.728  1.00  0.00    -0.191 NA
HETATM    5  C1  UNK     1      18.695  -6.337  14.863  1.00  0.00     0.108 C 
HETATM    6  C2  UNK     1      19.057  -6.711  13.438  1.00  0.00     0.066 A 
HETATM    7  C3  UNK     1      18.127  -7.194  12.600  1.00  0.00     0.104 A 
HETATM    8  C5  UNK     1      17.289  -6.795  15.240  1.00  0.00     0.086 C 
HETATM    9  C6  UNK     1      18.456  -7.530  11.218  1.00  0.00     0.033 A 
HETATM   10  C7  UNK     1      20.470  -6.561  13.002  1.00  0.00     0.298 A 
HETATM   11  C8  UNK     1      16.433  -7.282  14.311  1.00  0.00     0.159 C 
HETATM   12  C9  UNK     1      19.769  -7.352  10.792  1.00  0.00     0.092 A 
HETATM   13  C12 UNK     1      17.522  -8.015  10.294  1.00  0.00     0.017 A 
HETATM   14  C13 UNK     1      20.172  -7.641   9.488  1.00  0.00     0.038 A 
HETATM   15  C17 UNK     1      16.899  -6.716  16.614  1.00  0.00     0.100 C 
HETATM   16  C18 UNK     1      17.910  -8.311   8.983  1.00  0.00     0.001 A 
HETATM   17  C19 UNK     1      19.233  -8.124   8.581  1.00  0.00     0.003 A 
ENDROOT
BRANCH   5  18
HETATM   18  C4  UNK     1      18.828  -4.856  15.068  1.00  0.00    -0.044 A 
HETATM   19  C10 UNK     1      19.796  -4.366  15.937  1.00  0.00     0.011 A 
HETATM   20  C14 UNK     1      19.919  -2.990  16.126  1.00  0.00     0.036 A 
HETATM   21  C16 UNK     1      19.074  -2.114  15.445  1.00  0.00     0.102 A 
HETATM   22  C15 UNK     1      18.105  -2.614  14.575  1.00  0.00     0.036 A 
HETATM   23  C11 UNK     1      17.982  -3.990  14.386  1.00  0.00     0.011 A 
BRANCH  21  24
HETATM   24  N2  UNK     1      19.201  -0.713  15.637  1.00  0.00    -0.116 N 
HETATM   25  O4  UNK     1      19.016  -0.236  16.783  1.00  0.00    -0.532 OA
HETATM   26  O5  UNK     1      19.495   0.011  14.655  1.00  0.00    -0.532 OA
ENDBRANCH  21  24
ENDBRANCH   5  18
BRANCH  11  27
HETATM   27  N1  UNK     1      15.155  -7.697  14.560  1.00  0.00    -0.379 N 
HETATM   28  H10 UNK     1      14.765  -8.500  14.083  1.00  0.00     0.158 HD
HETATM   29  H11 UNK     1      14.599  -7.188  15.235  1.00  0.00     0.158 HD
ENDBRANCH  11  27
TORSDOF 3
ENDMDL
MODEL 9
REMARK VINA RESULT:      -7.6     31.164     33.277
REMARK  3 active torsions:
REMARK  status: ('A' for Active; 'I' for Inactive)
REMARK    1  A    between atoms: C8_16  and  N1_6 
REMARK    2  A    between atoms: C16_24  and  N2_7 
REMARK    3  A    between atoms: C1_9  and  C4_12 
ROOT
HETATM    1  O1  UNK     1      34.544  -6.018  33.114  1.00  0.00    -0.291 OA
HETATM    2  O2  UNK     1      31.364  -7.622  35.310  1.00  0.00    -0.274 OA
HETATM    3  O3  UNK     1      31.582  -9.596  34.190  1.00  0.00    -0.259 OA
HETATM    4  N3  UNK     1      36.483  -9.464  30.361  1.00  0.00    -0.191 NA
HETATM    5  C1  UNK     1      33.700  -8.684  32.465  1.00  0.00     0.108 C 
HETATM    6  C2  UNK     1      33.057  -7.843  33.551  1.00  0.00     0.066 A 
HETATM    7  C3  UNK     1      33.491  -6.598  33.799  1.00  0.00     0.104 A 
HETATM    8  C5  UNK     1      34.973  -8.046  31.919  1.00  0.00     0.086 C 
HETATM    9  C6  UNK     1      32.861  -5.767  34.821  1.00  0.00     0.033 A 
HETATM   10  C7  UNK     1      31.957  -8.439  34.354  1.00  0.00     0.298 A 
HETATM   11  C8  UNK     1      35.325  -6.781  32.247  1.00  0.00     0.159 C 
HETATM   12  C9  UNK     1      31.804  -6.306  35.547  1.00  0.00     0.092 A 
HETATM   13  C12 UNK     1      33.258  -4.455  35.107  1.00  0.00     0.017 A 
HETATM   14  C13 UNK     1      31.140  -5.583  36.538  1.00  0.00     0.038 A 
HETATM   15  C17 UNK     1      35.807  -8.829  31.059  1.00  0.00     0.100 C 
HETATM   16  C18 UNK     1      32.603  -3.716  36.098  1.00  0.00     0.001 A 
HETATM   17  C19 UNK     1      31.545  -4.280  36.812  1.00  0.00     0.003 A 
ENDROOT
BRANCH   5  18
HETATM   18  C4  UNK     1      32.728  -8.934  31.348  1.00  0.00    -0.044 A 
HETATM   19  C10 UNK     1      32.440 -10.239  30.966  1.00  0.00     0.011 A 
HETATM   20  C14 UNK     1      31.537 -10.470  29.929  1.00  0.00     0.036 A 
HETATM   21  C16 UNK     1      30.928  -9.395  29.282  1.00  0.00     0.102 A 
HETATM   22  C15 UNK     1      31.222  -8.088  29.671  1.00  0.00     0.036 A 
HETATM   23  C11 UNK     1      32.126  -7.857  30.709  1.00  0.00     0.011 A 
BRANCH  21  24
HETATM   24  N2  UNK     1      30.007  -9.631  28.227  1.00  0.00    -0.116 N 
HETATM   25  O4  UNK     1      28.778  -9.514  28.454  1.00  0.00    -0.532 OA
HETATM   26  O5  UNK     1      30.447  -9.952  27.097  1.00  0.00    -0.532 OA
ENDBRANCH  21  24
ENDBRANCH   5  18
BRANCH  11  27
HETATM   27  N1  UNK     1      36.438  -6.129  31.791  1.00  0.00    -0.379 N 
HETATM   28  H10 UNK     1      36.730  -5.250  32.199  1.00  0.00     0.158 HD
HETATM   29  H11 UNK     1      36.969  -6.542  31.036  1.00  0.00     0.158 HD
ENDBRANCH  11  27
TORSDOF 3
ENDMDL
MODEL 10
REMARK VINA RESULT:      -7.6     31.841     34.317
REMARK  3 active torsions:
REMARK  status: ('A' for Active; 'I' for Inactive)
REMARK    1  A    between atoms: C8_16  and  N1_6 
REMARK    2  A    between atoms: C16_24  and  N2_7 
REMARK    3  A    between atoms: C1_9  and  C4_12 
ROOT
HETATM    1  O1  UNK     1      28.209  -8.140  34.241  1.00  0.00    -0.291 OA
HETATM    2  O2  UNK     1      28.977  -6.803  38.130  1.00  0.00    -0.274 OA
HETATM    3  O3  UNK     1      30.168  -5.047  37.295  1.00  0.00    -0.259 OA
HETATM    4  N3  UNK     1      29.903  -4.923  31.082  1.00  0.00    -0.191 NA
HETATM    5  C1  UNK     1      29.890  -5.832  34.538  1.00  0.00     0.108 C 
HETATM    6  C2  UNK     1      29.276  -6.578  35.708  1.00  0.00     0.066 A 
HETATM    7  C3  UNK     1      28.506  -7.657  35.503  1.00  0.00     0.104 A 
HETATM    8  C5  UNK     1      29.336  -6.306  33.198  1.00  0.00     0.086 C 
HETATM    9  C6  UNK     1      27.935  -8.402  36.621  1.00  0.00     0.033 A 
HETATM   10  C7  UNK     1      29.520  -6.067  37.083  1.00  0.00     0.298 A 
HETATM   11  C8  UNK     1      28.554  -7.406  33.107  1.00  0.00     0.159 C 
HETATM   12  C9  UNK     1      28.194  -7.953  37.912  1.00  0.00     0.092 A 
HETATM   13  C12 UNK     1      27.144  -9.547  36.467  1.00  0.00     0.017 A 
HETATM   14  C13 UNK     1      27.694  -8.604  39.039  1.00  0.00     0.038 A 
HETATM   15  C17 UNK     1      29.650  -5.541  32.029  1.00  0.00     0.100 C 
HETATM   16  C18 UNK     1      26.634 -10.212  37.587  1.00  0.00     0.001 A 
HETATM   17  C19 UNK     1      26.908  -9.741  38.871  1.00  0.00     0.003 A 
ENDROOT
BRANCH   5  18
HETATM   18  C4  UNK     1      31.385  -5.965  34.556  1.00  0.00    -0.044 A 
HETATM   19  C10 UNK     1      32.177  -4.823  34.581  1.00  0.00     0.011 A 
HETATM   20  C14 UNK     1      33.566  -4.948  34.598  1.00  0.00     0.036 A 
HETATM   21  C16 UNK     1      34.153  -6.213  34.590  1.00  0.00     0.102 A 
HETATM   22  C15 UNK     1      33.351  -7.354  34.565  1.00  0.00     0.036 A 
HETATM   23  C11 UNK     1      31.961  -7.229  34.547  1.00  0.00     0.011 A 
BRANCH  21  24
HETATM   24  N2  UNK     1      35.567  -6.339  34.608  1.00  0.00    -0.116 N 
HETATM   25  O4  UNK     1      36.171  -6.581  33.535  1.00  0.00    -0.532 OA
HETATM   26  O5  UNK     1      36.174  -6.205  35.698  1.00  0.00    -0.532 OA
ENDBRANCH  21  24
ENDBRANCH   5  18
BRANCH  11  27
HETATM   27  N1  UNK     1      28.031  -7.908  31.947  1.00  0.00    -0.379 N 
HETATM   28  H10 UNK     1      27.440  -7.340  31.354  1.00  0.00     0.158 HD
HETATM   29  H11 UNK     1      28.246  -8.862  31.688  1.00  0.00     0.158 HD
ENDBRANCH  11  27
TORSDOF 3
ENDMDL
