MODEL 1
REMARK VINA RESULT:      -9.1      0.000      0.000
REMARK  6 active torsions:
REMARK  status: ('A' for Active; 'I' for Inactive)
REMARK    1  A    between atoms: C10_18  and  O2_2 
REMARK    2  A    between atoms: C11_19  and  O3_3 
REMARK    3  A    between atoms: C12_20  and  O4_4 
REMARK       I    between atoms: C17_25  and  N1_7 
REMARK    4  A    between atoms: N1_7  and  N2_8 
REMARK    5  A    between atoms: C18_26  and  C7_15 
REMARK    6  A    between atoms: C17_25  and  C9_17 
ROOT
HETATM    1  O6  UNK     1      17.618  -0.963  34.940  1.00  0.00    -0.266 OA
HETATM    2  N1  UNK     1      19.737  -1.786  34.502  1.00  0.00    -0.243 N 
HETATM    3  C17 UNK     1      18.642  -0.977  34.261  1.00  0.00     0.271 C 
HETATM    4  H11 UNK     1      20.553  -1.831  33.900  1.00  0.00     0.192 HD
ENDROOT
BRANCH   2   5
HETATM    5  N2  UNK     1      19.696  -2.632  35.558  1.00  0.00    -0.183 NA
HETATM    6  C18 UNK     1      20.053  -3.844  35.277  1.00  0.00     0.156 C 
BRANCH   6   7
HETATM    7  C7  UNK     1      20.077  -4.908  36.280  1.00  0.00     0.056 A 
HETATM    8  C15 UNK     1      20.329  -4.567  37.549  1.00  0.00     0.159 A 
HETATM    9  O1  UNK     1      20.393  -5.425  38.621  1.00  0.00    -0.321 OA
HETATM   10  C2  UNK     1      20.179  -6.760  38.382  1.00  0.00     0.089 A 
HETATM   11  C1  UNK     1      19.905  -7.265  37.109  1.00  0.00     0.049 A 
HETATM   12  C6  UNK     1      20.245  -7.623  39.477  1.00  0.00     0.039 A 
HETATM   13  C4  UNK     1      19.696  -8.633  36.926  1.00  0.00     0.025 A 
HETATM   14  C5  UNK     1      19.840  -6.334  35.968  1.00  0.00     0.198 A 
HETATM   15  C3  UNK     1      19.763  -9.494  38.022  1.00  0.00    -0.061 A 
HETATM   16  C16 UNK     1      19.543 -10.957  37.835  1.00  0.00     0.048 C 
HETATM   17  C8  UNK     1      20.037  -8.989  39.295  1.00  0.00     0.009 A 
HETATM   18  O5  UNK     1      19.603  -6.722  34.831  1.00  0.00    -0.286 OA
ENDBRANCH   6   7
ENDBRANCH   2   5
BRANCH   3  19
HETATM   19  C9  UNK     1      18.742  -0.089  33.074  1.00  0.00     0.039 A 
HETATM   20  C13 UNK     1      18.243   1.194  33.158  1.00  0.00     0.057 A 
HETATM   21  C11 UNK     1      18.336   2.026  32.043  1.00  0.00     0.105 A 
HETATM   22  C10 UNK     1      18.924   1.557  30.869  1.00  0.00     0.135 A 
HETATM   23  C12 UNK     1      19.420   0.255  30.810  1.00  0.00     0.105 A 
HETATM   24  C14 UNK     1      19.328  -0.578  31.925  1.00  0.00     0.057 A 
BRANCH  21  25
HETATM   25  O3  UNK     1      17.845   3.296  32.114  1.00  0.00    -0.353 OA
HETATM   26  C20 UNK     1      18.231   4.079  33.241  1.00  0.00     0.210 C 
ENDBRANCH  21  25
BRANCH  22  27
HETATM   27  O2  UNK     1      19.014   2.371  29.778  1.00  0.00    -0.351 OA
HETATM   28  C19 UNK     1      18.008   2.224  28.778  1.00  0.00     0.210 C 
ENDBRANCH  22  27
BRANCH  23  29
HETATM   29  O4  UNK     1      19.998  -0.216  29.670  1.00  0.00    -0.353 OA
HETATM   30  C21 UNK     1      20.332  -1.602  29.637  1.00  0.00     0.210 C 
ENDBRANCH  23  29
ENDBRANCH   3  19
TORSDOF 6
ENDMDL
MODEL 2
REMARK VINA RESULT:      -9.1      0.098      2.412
REMARK  6 active torsions:
REMARK  status: ('A' for Active; 'I' for Inactive)
REMARK    1  A    between atoms: C10_18  and  O2_2 
REMARK    2  A    between atoms: C11_19  and  O3_3 
REMARK    3  A    between atoms: C12_20  and  O4_4 
REMARK       I    between atoms: C17_25  and  N1_7 
REMARK    4  A    between atoms: N1_7  and  N2_8 
REMARK    5  A    between atoms: C18_26  and  C7_15 
REMARK    6  A    between atoms: C17_25  and  C9_17 
ROOT
HETATM    1  O6  UNK     1      17.609  -0.977  34.973  1.00  0.00    -0.266 OA
HETATM    2  N1  UNK     1      19.717  -1.822  34.523  1.00  0.00    -0.243 N 
HETATM    3  C17 UNK     1      18.627  -1.006  34.284  1.00  0.00     0.271 C 
HETATM    4  H11 UNK     1      20.527  -1.879  33.914  1.00  0.00     0.192 HD
ENDROOT
BRANCH   2   5
HETATM    5  N2  UNK     1      19.679  -2.657  35.588  1.00  0.00    -0.183 NA
HETATM    6  C18 UNK     1      20.038  -3.872  35.318  1.00  0.00     0.156 C 
BRANCH   6   7
HETATM    7  C7  UNK     1      20.066  -4.926  36.332  1.00  0.00     0.056 A 
HETATM    8  C15 UNK     1      20.390  -4.582  37.583  1.00  0.00     0.159 A 
HETATM    9  O1  UNK     1      20.468  -5.431  38.662  1.00  0.00    -0.321 OA
HETATM   10  C2  UNK     1      20.189  -6.758  38.449  1.00  0.00     0.089 A 
HETATM   11  C1  UNK     1      19.836  -7.265  37.196  1.00  0.00     0.049 A 
HETATM   12  C6  UNK     1      20.271  -7.612  39.550  1.00  0.00     0.039 A 
HETATM   13  C4  UNK     1      19.563  -8.625  37.039  1.00  0.00     0.025 A 
HETATM   14  C5  UNK     1      19.756  -6.344  36.048  1.00  0.00     0.198 A 
HETATM   15  C3  UNK     1      19.646  -9.476  38.142  1.00  0.00    -0.061 A 
HETATM   16  C16 UNK     1      19.357 -10.931  37.982  1.00  0.00     0.048 C 
HETATM   17  C8  UNK     1      19.999  -8.971  39.394  1.00  0.00     0.009 A 
HETATM   18  O5  UNK     1      19.451  -6.732  34.928  1.00  0.00    -0.286 OA
ENDBRANCH   6   7
ENDBRANCH   2   5
BRANCH   3  19
HETATM   19  C9  UNK     1      18.722  -0.131  33.088  1.00  0.00     0.039 A 
HETATM   20  C13 UNK     1      19.302  -0.631  31.941  1.00  0.00     0.057 A 
HETATM   21  C11 UNK     1      19.393   0.191  30.819  1.00  0.00     0.105 A 
HETATM   22  C10 UNK     1      18.903   1.495  30.868  1.00  0.00     0.135 A 
HETATM   23  C12 UNK     1      18.320   1.977  32.040  1.00  0.00     0.105 A 
HETATM   24  C14 UNK     1      18.229   1.155  33.163  1.00  0.00     0.057 A 
BRANCH  21  25
HETATM   25  O3  UNK     1      19.966  -0.292  29.680  1.00  0.00    -0.353 OA
HETATM   26  C20 UNK     1      20.394  -1.652  29.696  1.00  0.00     0.210 C 
ENDBRANCH  21  25
BRANCH  22  27
HETATM   27  O2  UNK     1      18.992   2.300  29.770  1.00  0.00    -0.351 OA
HETATM   28  C19 UNK     1      17.934   2.214  28.818  1.00  0.00     0.210 C 
ENDBRANCH  22  27
BRANCH  23  29
HETATM   29  O4  UNK     1      17.836   3.249  32.101  1.00  0.00    -0.353 OA
HETATM   30  C21 UNK     1      18.213   4.032  33.233  1.00  0.00     0.210 C 
ENDBRANCH  23  29
ENDBRANCH   3  19
TORSDOF 6
ENDMDL
MODEL 3
REMARK VINA RESULT:      -8.9      5.455      9.568
REMARK  6 active torsions:
REMARK  status: ('A' for Active; 'I' for Inactive)
REMARK    1  A    between atoms: C10_18  and  O2_2 
REMARK    2  A    between atoms: C11_19  and  O3_3 
REMARK    3  A    between atoms: C12_20  and  O4_4 
REMARK       I    between atoms: C17_25  and  N1_7 
REMARK    4  A    between atoms: N1_7  and  N2_8 
REMARK    5  A    between atoms: C18_26  and  C7_15 
REMARK    6  A    between atoms: C17_25  and  C9_17 
ROOT
HETATM    1  O6  UNK     1      19.729   6.781  32.327  1.00  0.00    -0.266 OA
HETATM    2  N1  UNK     1      17.891   5.398  32.069  1.00  0.00    -0.243 N 
HETATM    3  C17 UNK     1      18.516   6.591  32.383  1.00  0.00     0.271 C 
HETATM    4  H11 UNK     1      16.894   5.235  32.175  1.00  0.00     0.192 HD
ENDROOT
BRANCH   2   5
HETATM    5  N2  UNK     1      18.653   4.353  31.670  1.00  0.00    -0.183 NA
HETATM    6  C18 UNK     1      17.973   3.331  31.261  1.00  0.00     0.156 C 
BRANCH   6   7
HETATM    7  C7  UNK     1      18.609   2.102  30.787  1.00  0.00     0.056 A 
HETATM    8  C15 UNK     1      18.876   1.999  29.481  1.00  0.00     0.159 A 
HETATM    9  O1  UNK     1      19.468   0.926  28.857  1.00  0.00    -0.321 OA
HETATM   10  C2  UNK     1      19.823  -0.147  29.637  1.00  0.00     0.089 A 
HETATM   11  C1  UNK     1      19.607  -0.183  31.016  1.00  0.00     0.049 A 
HETATM   12  C6  UNK     1      20.422  -1.232  28.994  1.00  0.00     0.039 A 
HETATM   13  C4  UNK     1      19.989  -1.303  31.758  1.00  0.00     0.025 A 
HETATM   14  C5  UNK     1      18.972   0.974  31.672  1.00  0.00     0.198 A 
HETATM   15  C3  UNK     1      20.588  -2.385  31.114  1.00  0.00    -0.061 A 
HETATM   16  C16 UNK     1      20.999  -3.585  31.899  1.00  0.00     0.048 C 
HETATM   17  C8  UNK     1      20.805  -2.350  29.735  1.00  0.00     0.009 A 
HETATM   18  O5  UNK     1      18.759   0.997  32.877  1.00  0.00    -0.286 OA
ENDBRANCH   6   7
ENDBRANCH   2   5
BRANCH   3  19
HETATM   19  C9  UNK     1      17.626   7.690  32.836  1.00  0.00     0.039 A 
HETATM   20  C13 UNK     1      16.272   7.592  32.595  1.00  0.00     0.057 A 
HETATM   21  C11 UNK     1      15.436   8.624  33.019  1.00  0.00     0.105 A 
HETATM   22  C10 UNK     1      15.973   9.732  33.675  1.00  0.00     0.135 A 
HETATM   23  C12 UNK     1      17.347   9.807  33.906  1.00  0.00     0.105 A 
HETATM   24  C14 UNK     1      18.182   8.774  33.482  1.00  0.00     0.057 A 
BRANCH  21  25
HETATM   25  O3  UNK     1      14.096   8.540  32.785  1.00  0.00    -0.353 OA
HETATM   26  C20 UNK     1      13.577   7.256  32.445  1.00  0.00     0.210 C 
ENDBRANCH  21  25
BRANCH  22  27
HETATM   27  O2  UNK     1      15.156  10.742  34.090  1.00  0.00    -0.351 OA
HETATM   28  C19 UNK     1      14.547  10.596  35.371  1.00  0.00     0.210 C 
ENDBRANCH  22  27
BRANCH  23  29
HETATM   29  O4  UNK     1      17.884  10.883  34.546  1.00  0.00    -0.353 OA
HETATM   30  C21 UNK     1      18.617  11.811  33.748  1.00  0.00     0.210 C 
ENDBRANCH  23  29
ENDBRANCH   3  19
TORSDOF 6
ENDMDL
MODEL 4
REMARK VINA RESULT:      -8.9      5.605      9.680
REMARK  6 active torsions:
REMARK  status: ('A' for Active; 'I' for Inactive)
REMARK    1  A    between atoms: C10_18  and  O2_2 
REMARK    2  A    between atoms: C11_19  and  O3_3 
REMARK    3  A    between atoms: C12_20  and  O4_4 
REMARK       I    between atoms: C17_25  and  N1_7 
REMARK    4  A    between atoms: N1_7  and  N2_8 
REMARK    5  A    between atoms: C18_26  and  C7_15 
REMARK    6  A    between atoms: C17_25  and  C9_17 
ROOT
HETATM    1  O6  UNK     1      19.688   6.862  32.571  1.00  0.00    -0.266 OA
HETATM    2  N1  UNK     1      17.818   5.525  32.296  1.00  0.00    -0.243 N 
HETATM    3  C17 UNK     1      18.470   6.704  32.606  1.00  0.00     0.271 C 
HETATM    4  H11 UNK     1      16.816   5.390  32.385  1.00  0.00     0.192 HD
ENDROOT
BRANCH   2   5
HETATM    5  N2  UNK     1      18.560   4.455  31.924  1.00  0.00    -0.183 NA
HETATM    6  C18 UNK     1      17.912   3.584  31.219  1.00  0.00     0.156 C 
BRANCH   6   7
HETATM    7  C7  UNK     1      18.534   2.358  30.719  1.00  0.00     0.056 A 
HETATM    8  C15 UNK     1      18.776   2.268  29.407  1.00  0.00     0.159 A 
HETATM    9  O1  UNK     1      19.350   1.200  28.760  1.00  0.00    -0.321 OA
HETATM   10  C2  UNK     1      19.715   0.117  29.521  1.00  0.00     0.089 A 
HETATM   11  C1  UNK     1      19.526   0.066  30.903  1.00  0.00     0.049 A 
HETATM   12  C6  UNK     1      20.298  -0.963  28.855  1.00  0.00     0.039 A 
HETATM   13  C4  UNK     1      19.917  -1.063  31.626  1.00  0.00     0.025 A 
HETATM   14  C5  UNK     1      18.908   1.218  31.584  1.00  0.00     0.198 A 
HETATM   15  C3  UNK     1      20.499  -2.141  30.957  1.00  0.00    -0.061 A 
HETATM   16  C16 UNK     1      20.919  -3.352  31.721  1.00  0.00     0.048 C 
HETATM   17  C8  UNK     1      20.689  -2.091  29.575  1.00  0.00     0.009 A 
HETATM   18  O5  UNK     1      18.719   1.229  32.793  1.00  0.00    -0.286 OA
ENDBRANCH   6   7
ENDBRANCH   2   5
BRANCH   3  19
HETATM   19  C9  UNK     1      17.600   7.832  33.027  1.00  0.00     0.039 A 
HETATM   20  C13 UNK     1      18.184   8.951  33.583  1.00  0.00     0.057 A 
HETATM   21  C11 UNK     1      17.368  10.010  33.981  1.00  0.00     0.105 A 
HETATM   22  C10 UNK     1      15.986   9.926  33.813  1.00  0.00     0.135 A 
HETATM   23  C12 UNK     1      15.420   8.783  33.247  1.00  0.00     0.105 A 
HETATM   24  C14 UNK     1      16.237   7.725  32.850  1.00  0.00     0.057 A 
BRANCH  21  25
HETATM   25  O3  UNK     1      17.933  11.120  34.533  1.00  0.00    -0.353 OA
HETATM   26  C20 UNK     1      18.543  12.049  33.641  1.00  0.00     0.210 C 
ENDBRANCH  21  25
BRANCH  22  27
HETATM   27  O2  UNK     1      15.187  10.961  34.201  1.00  0.00    -0.351 OA
HETATM   28  C19 UNK     1      14.639  10.895  35.516  1.00  0.00     0.210 C 
ENDBRANCH  22  27
BRANCH  23  29
HETATM   29  O4  UNK     1      14.072   8.689  33.077  1.00  0.00    -0.353 OA
HETATM   30  C21 UNK     1      13.572   7.470  32.530  1.00  0.00     0.210 C 
ENDBRANCH  23  29
ENDBRANCH   3  19
TORSDOF 6
ENDMDL
MODEL 5
REMARK VINA RESULT:      -8.7      1.945     10.423
REMARK  6 active torsions:
REMARK  status: ('A' for Active; 'I' for Inactive)
REMARK    1  A    between atoms: C10_18  and  O2_2 
REMARK    2  A    between atoms: C11_19  and  O3_3 
REMARK    3  A    between atoms: C12_20  and  O4_4 
REMARK       I    between atoms: C17_25  and  N1_7 
REMARK    4  A    between atoms: N1_7  and  N2_8 
REMARK    5  A    between atoms: C18_26  and  C7_15 
REMARK    6  A    between atoms: C17_25  and  C9_17 
ROOT
HETATM    1  O6  UNK     1      21.290  -3.186  36.619  1.00  0.00    -0.266 OA
HETATM    2  N1  UNK     1      19.143  -3.035  35.768  1.00  0.00    -0.243 N 
HETATM    3  C17 UNK     1      20.178  -3.672  36.426  1.00  0.00     0.271 C 
HETATM    4  H11 UNK     1      18.248  -3.469  35.563  1.00  0.00     0.192 HD
ENDROOT
BRANCH   2   5
HETATM    5  N2  UNK     1      19.350  -1.784  35.294  1.00  0.00    -0.183 NA
HETATM    6  C18 UNK     1      18.273  -1.072  35.198  1.00  0.00     0.156 C 
BRANCH   6   7
HETATM    7  C7  UNK     1      18.284   0.306  34.709  1.00  0.00     0.056 A 
HETATM    8  C15 UNK     1      18.174   1.291  35.607  1.00  0.00     0.159 A 
HETATM    9  O1  UNK     1      18.165   2.639  35.336  1.00  0.00    -0.321 OA
HETATM   10  C2  UNK     1      18.279   3.024  34.023  1.00  0.00     0.089 A 
HETATM   11  C1  UNK     1      18.401   2.109  32.975  1.00  0.00     0.049 A 
HETATM   12  C6  UNK     1      18.269   4.394  33.757  1.00  0.00     0.039 A 
HETATM   13  C4  UNK     1      18.513   2.559  31.658  1.00  0.00     0.025 A 
HETATM   14  C5  UNK     1      18.409   0.667  33.280  1.00  0.00     0.198 A 
HETATM   15  C3  UNK     1      18.503   3.930  31.395  1.00  0.00    -0.061 A 
HETATM   16  C16 UNK     1      18.621   4.420  29.991  1.00  0.00     0.048 C 
HETATM   17  C8  UNK     1      18.381   4.845  32.442  1.00  0.00     0.009 A 
HETATM   18  O5  UNK     1      18.514  -0.179  32.401  1.00  0.00    -0.286 OA
ENDBRANCH   6   7
ENDBRANCH   2   5
BRANCH   3  19
HETATM   19  C9  UNK     1      19.893  -5.050  36.901  1.00  0.00     0.039 A 
HETATM   20  C13 UNK     1      19.093  -5.868  36.130  1.00  0.00     0.057 A 
HETATM   21  C11 UNK     1      18.825  -7.162  36.577  1.00  0.00     0.105 A 
HETATM   22  C10 UNK     1      19.362  -7.609  37.783  1.00  0.00     0.135 A 
HETATM   23  C12 UNK     1      20.169  -6.762  38.544  1.00  0.00     0.105 A 
HETATM   24  C14 UNK     1      20.437  -5.469  38.097  1.00  0.00     0.057 A 
BRANCH  21  25
HETATM   25  O3  UNK     1      18.033  -7.978  35.825  1.00  0.00    -0.353 OA
HETATM   26  C20 UNK     1      16.873  -7.395  35.238  1.00  0.00     0.210 C 
ENDBRANCH  21  25
BRANCH  22  27
HETATM   27  O2  UNK     1      19.100  -8.874  38.220  1.00  0.00    -0.351 OA
HETATM   28  C19 UNK     1      20.027  -9.891  37.848  1.00  0.00     0.210 C 
ENDBRANCH  22  27
BRANCH  23  29
HETATM   29  O4  UNK     1      20.701  -7.187  39.724  1.00  0.00    -0.353 OA
HETATM   30  C21 UNK     1      22.109  -7.412  39.755  1.00  0.00     0.210 C 
ENDBRANCH  23  29
ENDBRANCH   3  19
TORSDOF 6
ENDMDL
MODEL 6
REMARK VINA RESULT:      -8.7      2.013      3.617
REMARK  6 active torsions:
REMARK  status: ('A' for Active; 'I' for Inactive)
REMARK    1  A    between atoms: C10_18  and  O2_2 
REMARK    2  A    between atoms: C11_19  and  O3_3 
REMARK    3  A    between atoms: C12_20  and  O4_4 
REMARK       I    between atoms: C17_25  and  N1_7 
REMARK    4  A    between atoms: N1_7  and  N2_8 
REMARK    5  A    between atoms: C18_26  and  C7_15 
REMARK    6  A    between atoms: C17_25  and  C9_17 
ROOT
HETATM    1  O6  UNK     1      20.552  -2.737  34.366  1.00  0.00    -0.266 OA
HETATM    2  N1  UNK     1      19.173  -2.834  36.222  1.00  0.00    -0.243 N 
HETATM    3  C17 UNK     1      19.679  -2.246  35.077  1.00  0.00     0.271 C 
HETATM    4  H11 UNK     1      18.494  -2.393  36.834  1.00  0.00     0.192 HD
ENDROOT
BRANCH   2   5
HETATM    5  N2  UNK     1      19.663  -4.037  36.603  1.00  0.00    -0.183 NA
HETATM    6  C18 UNK     1      18.903  -5.038  36.293  1.00  0.00     0.156 C 
BRANCH   6   7
HETATM    7  C7  UNK     1      19.254  -6.420  36.616  1.00  0.00     0.056 A 
HETATM    8  C15 UNK     1      18.580  -7.024  37.602  1.00  0.00     0.159 A 
HETATM    9  O1  UNK     1      18.770  -8.312  38.043  1.00  0.00    -0.321 OA
HETATM   10  C2  UNK     1      19.739  -9.061  37.422  1.00  0.00     0.089 A 
HETATM   11  C1  UNK     1      20.523  -8.566  36.378  1.00  0.00     0.049 A 
HETATM   12  C6  UNK     1      19.925 -10.367  37.877  1.00  0.00     0.039 A 
HETATM   13  C4  UNK     1      21.496  -9.374  35.785  1.00  0.00     0.025 A 
HETATM   14  C5  UNK     1      20.310  -7.183  35.915  1.00  0.00     0.198 A 
HETATM   15  C3  UNK     1      21.679 -10.680  36.242  1.00  0.00    -0.061 A 
HETATM   16  C16 UNK     1      22.715 -11.550  35.614  1.00  0.00     0.048 C 
HETATM   17  C8  UNK     1      20.895 -11.175  37.285  1.00  0.00     0.009 A 
HETATM   18  O5  UNK     1      20.967  -6.698  35.004  1.00  0.00    -0.286 OA
ENDBRANCH   6   7
ENDBRANCH   2   5
BRANCH   3  19
HETATM   19  C9  UNK     1      19.115  -0.918  34.728  1.00  0.00     0.039 A 
HETATM   20  C13 UNK     1      19.040  -0.554  33.400  1.00  0.00     0.057 A 
HETATM   21  C11 UNK     1      18.511   0.695  33.073  1.00  0.00     0.105 A 
HETATM   22  C10 UNK     1      18.070   1.551  34.081  1.00  0.00     0.135 A 
HETATM   23  C12 UNK     1      18.157   1.160  35.417  1.00  0.00     0.105 A 
HETATM   24  C14 UNK     1      18.685  -0.089  35.744  1.00  0.00     0.057 A 
BRANCH  21  25
HETATM   25  O3  UNK     1      18.434   1.066  31.764  1.00  0.00    -0.353 OA
HETATM   26  C20 UNK     1      19.343   0.445  30.859  1.00  0.00     0.210 C 
ENDBRANCH  21  25
BRANCH  22  27
HETATM   27  O2  UNK     1      17.554   2.773  33.761  1.00  0.00    -0.351 OA
HETATM   28  C19 UNK     1      18.450   3.881  33.794  1.00  0.00     0.210 C 
ENDBRANCH  22  27
BRANCH  23  29
HETATM   29  O4  UNK     1      17.729   1.987  36.411  1.00  0.00    -0.353 OA
HETATM   30  C21 UNK     1      16.996   1.390  37.479  1.00  0.00     0.210 C 
ENDBRANCH  23  29
ENDBRANCH   3  19
TORSDOF 6
ENDMDL
MODEL 7
REMARK VINA RESULT:      -8.7      1.745     10.543
REMARK  6 active torsions:
REMARK  status: ('A' for Active; 'I' for Inactive)
REMARK    1  A    between atoms: C10_18  and  O2_2 
REMARK    2  A    between atoms: C11_19  and  O3_3 
REMARK    3  A    between atoms: C12_20  and  O4_4 
REMARK       I    between atoms: C17_25  and  N1_7 
REMARK    4  A    between atoms: N1_7  and  N2_8 
REMARK    5  A    between atoms: C18_26  and  C7_15 
REMARK    6  A    between atoms: C17_25  and  C9_17 
ROOT
HETATM    1  O6  UNK     1      21.373  -2.734  35.961  1.00  0.00    -0.266 OA
HETATM    2  N1  UNK     1      19.095  -2.377  35.753  1.00  0.00    -0.243 N 
HETATM    3  C17 UNK     1      20.212  -3.095  36.140  1.00  0.00     0.271 C 
HETATM    4  H11 UNK     1      18.142  -2.712  35.853  1.00  0.00     0.192 HD
ENDROOT
BRANCH   2   5
HETATM    5  N2  UNK     1      19.274  -1.187  35.132  1.00  0.00    -0.183 NA
HETATM    6  C18 UNK     1      18.469  -0.985  34.139  1.00  0.00     0.156 C 
BRANCH   6   7
HETATM    7  C7  UNK     1      18.501   0.239  33.339  1.00  0.00     0.056 A 
HETATM    8  C15 UNK     1      18.788   0.129  32.037  1.00  0.00     0.159 A 
HETATM    9  O1  UNK     1      18.863   1.162  31.133  1.00  0.00    -0.321 OA
HETATM   10  C2  UNK     1      18.624   2.432  31.597  1.00  0.00     0.089 A 
HETATM   11  C1  UNK     1      18.313   2.703  32.931  1.00  0.00     0.049 A 
HETATM   12  C6  UNK     1      18.702   3.474  30.673  1.00  0.00     0.039 A 
HETATM   13  C4  UNK     1      18.079   4.015  33.347  1.00  0.00     0.025 A 
HETATM   14  C5  UNK     1      18.235   1.586  33.890  1.00  0.00     0.198 A 
HETATM   15  C3  UNK     1      18.159   5.056  32.420  1.00  0.00    -0.061 A 
HETATM   16  C16 UNK     1      17.912   6.461  32.855  1.00  0.00     0.048 C 
HETATM   17  C8  UNK     1      18.469   4.786  31.086  1.00  0.00     0.009 A 
HETATM   18  O5  UNK     1      17.966   1.765  35.071  1.00  0.00    -0.286 OA
ENDBRANCH   6   7
ENDBRANCH   2   5
BRANCH   3  19
HETATM   19  C9  UNK     1      19.946  -4.401  36.795  1.00  0.00     0.039 A 
HETATM   20  C13 UNK     1      20.818  -4.848  37.766  1.00  0.00     0.057 A 
HETATM   21  C11 UNK     1      20.569  -6.075  38.381  1.00  0.00     0.105 A 
HETATM   22  C10 UNK     1      19.455  -6.828  38.010  1.00  0.00     0.135 A 
HETATM   23  C12 UNK     1      18.589  -6.353  37.025  1.00  0.00     0.105 A 
HETATM   24  C14 UNK     1      18.838  -5.126  36.411  1.00  0.00     0.057 A 
BRANCH  21  25
HETATM   25  O3  UNK     1      21.424  -6.528  39.340  1.00  0.00    -0.353 OA
HETATM   26  C20 UNK     1      22.653  -7.098  38.897  1.00  0.00     0.210 C 
ENDBRANCH  21  25
BRANCH  22  27
HETATM   27  O2  UNK     1      19.212  -8.028  38.610  1.00  0.00    -0.351 OA
HETATM   28  C19 UNK     1      19.679  -9.194  37.935  1.00  0.00     0.210 C 
ENDBRANCH  22  27
BRANCH  23  29
HETATM   29  O4  UNK     1      17.497  -7.078  36.654  1.00  0.00    -0.353 OA
HETATM   30  C21 UNK     1      17.409  -7.461  35.283  1.00  0.00     0.210 C 
ENDBRANCH  23  29
ENDBRANCH   3  19
TORSDOF 6
ENDMDL
MODEL 8
REMARK VINA RESULT:      -8.7      1.595     10.430
REMARK  6 active torsions:
REMARK  status: ('A' for Active; 'I' for Inactive)
REMARK    1  A    between atoms: C10_18  and  O2_2 
REMARK    2  A    between atoms: C11_19  and  O3_3 
REMARK    3  A    between atoms: C12_20  and  O4_4 
REMARK       I    between atoms: C17_25  and  N1_7 
REMARK    4  A    between atoms: N1_7  and  N2_8 
REMARK    5  A    between atoms: C18_26  and  C7_15 
REMARK    6  A    between atoms: C17_25  and  C9_17 
ROOT
HETATM    1  O6  UNK     1      20.167  -2.420  37.050  1.00  0.00    -0.266 OA
HETATM    2  N1  UNK     1      19.937  -3.241  34.898  1.00  0.00    -0.243 N 
HETATM    3  C17 UNK     1      20.024  -3.361  36.272  1.00  0.00     0.271 C 
HETATM    4  H11 UNK     1      19.878  -4.030  34.261  1.00  0.00     0.192 HD
ENDROOT
BRANCH   2   5
HETATM    5  N2  UNK     1      20.012  -2.005  34.350  1.00  0.00    -0.183 NA
HETATM    6  C18 UNK     1      18.878  -1.547  33.926  1.00  0.00     0.156 C 
BRANCH   6   7
HETATM    7  C7  UNK     1      18.746  -0.230  33.303  1.00  0.00     0.056 A 
HETATM    8  C15 UNK     1      18.883  -0.150  31.974  1.00  0.00     0.159 A 
HETATM    9  O1  UNK     1      18.793   0.995  31.218  1.00  0.00    -0.321 OA
HETATM   10  C2  UNK     1      18.538   2.173  31.876  1.00  0.00     0.089 A 
HETATM   11  C1  UNK     1      18.371   2.245  33.261  1.00  0.00     0.049 A 
HETATM   12  C6  UNK     1      18.448   3.330  31.100  1.00  0.00     0.039 A 
HETATM   13  C4  UNK     1      18.114   3.472  33.875  1.00  0.00     0.025 A 
HETATM   14  C5  UNK     1      18.470   1.010  34.059  1.00  0.00     0.198 A 
HETATM   15  C3  UNK     1      18.025   4.627  33.097  1.00  0.00    -0.061 A 
HETATM   16  C16 UNK     1      17.751   5.943  33.745  1.00  0.00     0.048 C 
HETATM   17  C8  UNK     1      18.191   4.556  31.713  1.00  0.00     0.009 A 
HETATM   18  O5  UNK     1      18.332   1.014  35.275  1.00  0.00    -0.286 OA
ENDBRANCH   6   7
ENDBRANCH   2   5
BRANCH   3  19
HETATM   19  C9  UNK     1      19.958  -4.745  36.806  1.00  0.00     0.039 A 
HETATM   20  C13 UNK     1      19.159  -5.669  36.166  1.00  0.00     0.057 A 
HETATM   21  C11 UNK     1      19.096  -6.968  36.669  1.00  0.00     0.105 A 
HETATM   22  C10 UNK     1      19.834  -7.315  37.800  1.00  0.00     0.135 A 
HETATM   23  C12 UNK     1      20.635  -6.362  38.430  1.00  0.00     0.105 A 
HETATM   24  C14 UNK     1      20.698  -5.062  37.927  1.00  0.00     0.057 A 
BRANCH  21  25
HETATM   25  O3  UNK     1      18.308  -7.889  36.046  1.00  0.00    -0.353 OA
HETATM   26  C20 UNK     1      17.199  -7.395  35.299  1.00  0.00     0.210 C 
ENDBRANCH  21  25
BRANCH  22  27
HETATM   27  O2  UNK     1      19.772  -8.585  38.293  1.00  0.00    -0.351 OA
HETATM   28  C19 UNK     1      20.641  -9.549  37.703  1.00  0.00     0.210 C 
ENDBRANCH  22  27
BRANCH  23  29
HETATM   29  O4  UNK     1      21.361  -6.687  39.535  1.00  0.00    -0.353 OA
HETATM   30  C21 UNK     1      22.750  -6.950  39.343  1.00  0.00     0.210 C 
ENDBRANCH  23  29
ENDBRANCH   3  19
TORSDOF 6
ENDMDL
MODEL 9
REMARK VINA RESULT:      -8.5      5.653     12.533
REMARK  6 active torsions:
REMARK  status: ('A' for Active; 'I' for Inactive)
REMARK    1  A    between atoms: C10_18  and  O2_2 
REMARK    2  A    between atoms: C11_19  and  O3_3 
REMARK    3  A    between atoms: C12_20  and  O4_4 
REMARK       I    between atoms: C17_25  and  N1_7 
REMARK    4  A    between atoms: N1_7  and  N2_8 
REMARK    5  A    between atoms: C18_26  and  C7_15 
REMARK    6  A    between atoms: C17_25  and  C9_17 
ROOT
HETATM    1  O6  UNK     1      18.757   4.435  30.343  1.00  0.00    -0.266 OA
HETATM    2  N1  UNK     1      17.548   4.159  32.298  1.00  0.00    -0.243 N 
HETATM    3  C17 UNK     1      18.353   3.725  31.261  1.00  0.00     0.271 C 
HETATM    4  H11 UNK     1      17.173   3.550  33.019  1.00  0.00     0.192 HD
ENDROOT
BRANCH   2   5
HETATM    5  N2  UNK     1      17.167   5.458  32.321  1.00  0.00    -0.183 NA
HETATM    6  C18 UNK     1      17.469   6.077  33.417  1.00  0.00     0.156 C 
BRANCH   6   7
HETATM    7  C7  UNK     1      17.144   7.486  33.639  1.00  0.00     0.056 A 
HETATM    8  C15 UNK     1      18.105   8.391  33.423  1.00  0.00     0.159 A 
HETATM    9  O1  UNK     1      17.985   9.752  33.579  1.00  0.00    -0.321 OA
HETATM   10  C2  UNK     1      16.771  10.241  33.993  1.00  0.00     0.089 A 
HETATM   11  C1  UNK     1      15.675   9.417  34.257  1.00  0.00     0.049 A 
HETATM   12  C6  UNK     1      16.659  11.623  34.148  1.00  0.00     0.039 A 
HETATM   13  C4  UNK     1      14.463   9.970  34.677  1.00  0.00     0.025 A 
HETATM   14  C5  UNK     1      15.817   7.959  34.087  1.00  0.00     0.198 A 
HETATM   15  C3  UNK     1      14.354  11.353  34.830  1.00  0.00    -0.061 A 
HETATM   16  C16 UNK     1      13.064  11.953  35.279  1.00  0.00     0.048 C 
HETATM   17  C8  UNK     1      15.449  12.177  34.567  1.00  0.00     0.009 A 
HETATM   18  O5  UNK     1      14.890   7.190  34.303  1.00  0.00    -0.286 OA
ENDBRANCH   6   7
ENDBRANCH   2   5
BRANCH   3  19
HETATM   19  C9  UNK     1      18.717   2.285  31.283  1.00  0.00     0.039 A 
HETATM   20  C13 UNK     1      19.207   1.705  30.132  1.00  0.00     0.057 A 
HETATM   21  C11 UNK     1      19.546   0.352  30.152  1.00  0.00     0.105 A 
HETATM   22  C10 UNK     1      19.389  -0.389  31.322  1.00  0.00     0.135 A 
HETATM   23  C12 UNK     1      18.891   0.222  32.473  1.00  0.00     0.105 A 
HETATM   24  C14 UNK     1      18.551   1.574  32.453  1.00  0.00     0.057 A 
BRANCH  21  25
HETATM   25  O3  UNK     1      20.030  -0.233  29.020  1.00  0.00    -0.353 OA
HETATM   26  C20 UNK     1      19.089  -0.527  27.990  1.00  0.00     0.210 C 
ENDBRANCH  21  25
BRANCH  22  27
HETATM   27  O2  UNK     1      19.721  -1.712  31.343  1.00  0.00    -0.351 OA
HETATM   28  C19 UNK     1      20.949  -2.060  31.978  1.00  0.00     0.210 C 
ENDBRANCH  22  27
BRANCH  23  29
HETATM   29  O4  UNK     1      18.733  -0.491  33.624  1.00  0.00    -0.353 OA
HETATM   30  C21 UNK     1      17.562  -0.226  34.394  1.00  0.00     0.210 C 
ENDBRANCH  23  29
ENDBRANCH   3  19
TORSDOF 6
ENDMDL
MODEL 10
REMARK VINA RESULT:      -8.5      1.646      2.221
REMARK  6 active torsions:
REMARK  status: ('A' for Active; 'I' for Inactive)
REMARK    1  A    between atoms: C10_18  and  O2_2 
REMARK    2  A    between atoms: C11_19  and  O3_3 
REMARK    3  A    between atoms: C12_20  and  O4_4 
REMARK       I    between atoms: C17_25  and  N1_7 
REMARK    4  A    between atoms: N1_7  and  N2_8 
REMARK    5  A    between atoms: C18_26  and  C7_15 
REMARK    6  A    between atoms: C17_25  and  C9_17 
ROOT
HETATM    1  O6  UNK     1      20.990  -3.345  32.549  1.00  0.00    -0.266 OA
HETATM    2  N1  UNK     1      19.952  -2.547  34.458  1.00  0.00    -0.243 N 
HETATM    3  C17 UNK     1      20.334  -2.484  33.131  1.00  0.00     0.271 C 
HETATM    4  H11 UNK     1      19.461  -1.803  34.944  1.00  0.00     0.192 HD
ENDROOT
BRANCH   2   5
HETATM    5  N2  UNK     1      20.319  -3.628  35.186  1.00  0.00    -0.183 NA
HETATM    6  C18 UNK     1      19.351  -4.165  35.857  1.00  0.00     0.156 C 
BRANCH   6   7
HETATM    7  C7  UNK     1      19.541  -5.342  36.705  1.00  0.00     0.056 A 
HETATM    8  C15 UNK     1      18.539  -6.224  36.786  1.00  0.00     0.159 A 
HETATM    9  O1  UNK     1      18.535  -7.381  37.528  1.00  0.00    -0.321 OA
HETATM   10  C2  UNK     1      19.661  -7.671  38.259  1.00  0.00     0.089 A 
HETATM   11  C1  UNK     1      20.786  -6.845  38.274  1.00  0.00     0.049 A 
HETATM   12  C6  UNK     1      19.648  -8.848  39.009  1.00  0.00     0.039 A 
HETATM   13  C4  UNK     1      21.903  -7.191  39.038  1.00  0.00     0.025 A 
HETATM   14  C5  UNK     1      20.776  -5.607  37.474  1.00  0.00     0.198 A 
HETATM   15  C3  UNK     1      21.887  -8.368  39.787  1.00  0.00    -0.061 A 
HETATM   16  C16 UNK     1      23.075  -8.745  40.606  1.00  0.00     0.048 C 
HETATM   17  C8  UNK     1      20.762  -9.195  39.773  1.00  0.00     0.009 A 
HETATM   18  O5  UNK     1      21.735  -4.846  37.449  1.00  0.00    -0.286 OA
ENDBRANCH   6   7
ENDBRANCH   2   5
BRANCH   3  19
HETATM   19  C9  UNK     1      19.919  -1.262  32.396  1.00  0.00     0.039 A 
HETATM   20  C13 UNK     1      19.122  -0.338  33.037  1.00  0.00     0.057 A 
HETATM   21  C11 UNK     1      18.731   0.809  32.346  1.00  0.00     0.105 A 
HETATM   22  C10 UNK     1      19.147   1.006  31.029  1.00  0.00     0.135 A 
HETATM   23  C12 UNK     1      19.953   0.055  30.403  1.00  0.00     0.105 A 
HETATM   24  C14 UNK     1      20.344  -1.092  31.094  1.00  0.00     0.057 A 
BRANCH  21  25
HETATM   25  O3  UNK     1      17.942   1.729  32.968  1.00  0.00    -0.353 OA
HETATM   26  C20 UNK     1      18.130   1.903  34.370  1.00  0.00     0.210 C 
ENDBRANCH  21  25
BRANCH  22  27
HETATM   27  O2  UNK     1      18.765   2.127  30.353  1.00  0.00    -0.351 OA
HETATM   28  C19 UNK     1      17.836   1.952  29.286  1.00  0.00     0.210 C 
ENDBRANCH  22  27
BRANCH  23  29
HETATM   29  O4  UNK     1      20.367   0.235  29.118  1.00  0.00    -0.353 OA
HETATM   30  C21 UNK     1      19.887  -0.693  28.147  1.00  0.00     0.210 C 
ENDBRANCH  23  29
ENDBRANCH   3  19
TORSDOF 6
ENDMDL
