MODEL 1
REMARK VINA RESULT:      -9.2      0.000      0.000
REMARK  6 active torsions:
REMARK  status: ('A' for Active; 'I' for Inactive)
REMARK    1  A    between atoms: C1_8  and  O1_5 
REMARK    2  A    between atoms: C4_11  and  O1_5 
REMARK    3  A    between atoms: C3_10  and  O2_6 
REMARK    4  A    between atoms: C2_9  and  C9_16 
REMARK    5  A    between atoms: C4_11  and  C6_13 
REMARK    6  A    between atoms: C10_17  and  C11_18 
ROOT
HETATM    1  N1  UNK     1      17.910   2.452  33.603  1.00  0.00    -0.191 NA
HETATM    2  C9  UNK     1      18.589   4.411  30.847  1.00  0.00     0.036 C 
HETATM    3  C10 UNK     1      18.490   3.089  31.149  1.00  0.00     0.055 C 
HETATM    4  C23 UNK     1      18.169   2.746  32.510  1.00  0.00     0.100 C 
ENDROOT
BRANCH   3   5
HETATM    5  C11 UNK     1      18.684   2.020  30.182  1.00  0.00    -0.014 A 
HETATM    6  C16 UNK     1      19.634   1.027  30.419  1.00  0.00     0.036 A 
HETATM    7  C19 UNK     1      19.818   0.001  29.493  1.00  0.00     0.034 A 
HETATM    8 Cl3  UNK     1      20.991  -1.224  29.785  1.00  0.00    -0.084 Cl
HETATM    9  C21 UNK     1      19.053  -0.031  28.327  1.00  0.00     0.024 A 
HETATM   10  C20 UNK     1      18.102   0.962  28.089  1.00  0.00     0.003 A 
HETATM   11  C17 UNK     1      17.918   1.987  29.017  1.00  0.00     0.013 A 
ENDBRANCH   3   5
BRANCH   2  12
HETATM   12  C2  UNK     1      18.395   5.522  31.790  1.00  0.00    -0.015 A 
HETATM   13  C5  UNK     1      17.090   5.807  32.173  1.00  0.00     0.052 A 
HETATM   14  C3  UNK     1      16.847   6.851  33.066  1.00  0.00     0.102 A 
HETATM   15  C1  UNK     1      17.912   7.601  33.568  1.00  0.00     0.103 A 
HETATM   16  C7  UNK     1      19.218   7.306  33.177  1.00  0.00     0.059 A 
HETATM   17  C8  UNK     1      19.460   6.262  32.284  1.00  0.00     0.024 A 
HETATM   18 Br1  UNK     1      21.263   5.915  31.793  1.00  0.00    -0.050 Br
BRANCH  14  19
HETATM   19  O2  UNK     1      15.568   7.129  33.440  1.00  0.00    -0.353 OA
HETATM   20  C22 UNK     1      14.602   7.259  32.399  1.00  0.00     0.210 C 
ENDBRANCH  14  19
BRANCH  15  21
HETATM   21  O1  UNK     1      17.687   8.622  34.441  1.00  0.00    -0.344 OA
BRANCH  21  22
HETATM   22  C4  UNK     1      17.681   9.943  33.903  1.00  0.00     0.216 C 
BRANCH  22  23
HETATM   23  C6  UNK     1      16.564  10.724  34.533  1.00  0.00    -0.012 A 
HETATM   24  C12 UNK     1      16.639  12.105  34.681  1.00  0.00     0.044 A 
HETATM   25 Cl1  UNK     1      18.019  12.997  34.152  1.00  0.00    -0.084 Cl
HETATM   26  C14 UNK     1      15.580  12.796  35.272  1.00  0.00     0.048 A 
HETATM   27  C18 UNK     1      14.452  12.103  35.710  1.00  0.00     0.035 A 
HETATM   28  C15 UNK     1      14.383  10.718  35.558  1.00  0.00     0.024 A 
HETATM   29 Cl2  UNK     1      13.146  12.955  36.438  1.00  0.00    -0.084 Cl
HETATM   30  C13 UNK     1      15.440  10.027  34.969  1.00  0.00     0.013 A 
ENDBRANCH  22  23
ENDBRANCH  21  22
ENDBRANCH  15  21
ENDBRANCH   2  12
TORSDOF 6
ENDMDL
MODEL 2
REMARK VINA RESULT:      -8.9      6.234      8.105
REMARK  6 active torsions:
REMARK  status: ('A' for Active; 'I' for Inactive)
REMARK    1  A    between atoms: C1_8  and  O1_5 
REMARK    2  A    between atoms: C4_11  and  O1_5 
REMARK    3  A    between atoms: C3_10  and  O2_6 
REMARK    4  A    between atoms: C2_9  and  C9_16 
REMARK    5  A    between atoms: C4_11  and  C6_13 
REMARK    6  A    between atoms: C10_17  and  C11_18 
ROOT
HETATM    1  N1  UNK     1      21.981  -1.707  35.324  1.00  0.00    -0.191 NA
HETATM    2  C9  UNK     1      18.654  -2.337  35.976  1.00  0.00     0.036 C 
HETATM    3  C10 UNK     1      19.855  -2.943  36.170  1.00  0.00     0.055 C 
HETATM    4  C23 UNK     1      21.027  -2.252  35.698  1.00  0.00     0.100 C 
ENDROOT
BRANCH   3   5
HETATM    5  C11 UNK     1      20.016  -4.232  36.825  1.00  0.00    -0.014 A 
HETATM    6  C16 UNK     1      21.174  -4.506  37.554  1.00  0.00     0.036 A 
HETATM    7  C19 UNK     1      21.327  -5.740  38.183  1.00  0.00     0.034 A 
HETATM    8 Cl3  UNK     1      22.755  -6.078  39.082  1.00  0.00    -0.084 Cl
HETATM    9  C21 UNK     1      20.323  -6.704  38.082  1.00  0.00     0.024 A 
HETATM   10  C20 UNK     1      19.165  -6.431  37.354  1.00  0.00     0.003 A 
HETATM   11  C17 UNK     1      19.012  -5.194  36.725  1.00  0.00     0.013 A 
ENDBRANCH   3   5
BRANCH   2  12
HETATM   12  C2  UNK     1      18.446  -1.035  35.326  1.00  0.00    -0.015 A 
HETATM   13  C5  UNK     1      18.661  -0.970  33.954  1.00  0.00     0.052 A 
HETATM   14  C3  UNK     1      18.479   0.240  33.286  1.00  0.00     0.102 A 
HETATM   15  C1  UNK     1      18.083   1.376  33.994  1.00  0.00     0.103 A 
HETATM   16  C7  UNK     1      17.870   1.300  35.370  1.00  0.00     0.059 A 
HETATM   17  C8  UNK     1      18.052   0.089  36.039  1.00  0.00     0.024 A 
HETATM   18 Br1  UNK     1      17.745   0.056  37.914  1.00  0.00    -0.050 Br
BRANCH  14  19
HETATM   19  O2  UNK     1      18.691   0.302  31.942  1.00  0.00    -0.353 OA
HETATM   20  C22 UNK     1      19.592  -0.652  31.383  1.00  0.00     0.210 C 
ENDBRANCH  14  19
BRANCH  15  21
HETATM   21  O1  UNK     1      17.902   2.563  33.352  1.00  0.00    -0.344 OA
BRANCH  21  22
HETATM   22  C4  UNK     1      18.658   3.677  33.824  1.00  0.00     0.216 C 
BRANCH  22  23
HETATM   23  C6  UNK     1      18.036   4.944  33.313  1.00  0.00    -0.012 A 
HETATM   24  C12 UNK     1      18.166   5.329  31.982  1.00  0.00     0.044 A 
HETATM   25 Cl1  UNK     1      19.050   4.375  30.848  1.00  0.00    -0.084 Cl
HETATM   26  C14 UNK     1      17.574   6.514  31.544  1.00  0.00     0.048 A 
HETATM   27  C18 UNK     1      16.854   7.307  32.438  1.00  0.00     0.035 A 
HETATM   28  C15 UNK     1      16.727   6.914  33.770  1.00  0.00     0.024 A 
HETATM   29 Cl2  UNK     1      16.122   8.768  31.898  1.00  0.00    -0.084 Cl
HETATM   30  C13 UNK     1      17.319   5.731  34.209  1.00  0.00     0.013 A 
ENDBRANCH  22  23
ENDBRANCH  21  22
ENDBRANCH  15  21
ENDBRANCH   2  12
TORSDOF 6
ENDMDL
MODEL 3
REMARK VINA RESULT:      -8.2     17.305     19.799
REMARK  6 active torsions:
REMARK  status: ('A' for Active; 'I' for Inactive)
REMARK    1  A    between atoms: C1_8  and  O1_5 
REMARK    2  A    between atoms: C4_11  and  O1_5 
REMARK    3  A    between atoms: C3_10  and  O2_6 
REMARK    4  A    between atoms: C2_9  and  C9_16 
REMARK    5  A    between atoms: C4_11  and  C6_13 
REMARK    6  A    between atoms: C10_17  and  C11_18 
ROOT
HETATM    1  N1  UNK     1      26.661  -5.896  39.066  1.00  0.00    -0.191 NA
HETATM    2  C9  UNK     1      26.195  -9.062  37.782  1.00  0.00     0.036 C 
HETATM    3  C10 UNK     1      25.434  -8.042  38.258  1.00  0.00     0.055 C 
HETATM    4  C23 UNK     1      26.121  -6.858  38.704  1.00  0.00     0.100 C 
ENDROOT
BRANCH   3   5
HETATM    5  C11 UNK     1      23.982  -8.081  38.333  1.00  0.00    -0.014 A 
HETATM    6  C16 UNK     1      23.251  -8.776  37.369  1.00  0.00     0.036 A 
HETATM    7  C19 UNK     1      21.859  -8.815  37.442  1.00  0.00     0.034 A 
HETATM    8 Cl3  UNK     1      20.957  -9.673  36.253  1.00  0.00    -0.084 Cl
HETATM    9  C21 UNK     1      21.196  -8.157  38.479  1.00  0.00     0.024 A 
HETATM   10  C20 UNK     1      21.927  -7.462  39.442  1.00  0.00     0.003 A 
HETATM   11  C17 UNK     1      23.320  -7.424  39.369  1.00  0.00     0.013 A 
ENDBRANCH   3   5
BRANCH   2  12
HETATM   12  C2  UNK     1      27.662  -9.062  37.682  1.00  0.00    -0.015 A 
HETATM   13  C5  UNK     1      28.219  -8.520  36.530  1.00  0.00     0.052 A 
HETATM   14  C3  UNK     1      29.605  -8.494  36.382  1.00  0.00     0.102 A 
HETATM   15  C1  UNK     1      30.424  -9.010  37.388  1.00  0.00     0.103 A 
HETATM   16  C7  UNK     1      29.855  -9.552  38.540  1.00  0.00     0.059 A 
HETATM   17  C8  UNK     1      28.468  -9.578  38.688  1.00  0.00     0.024 A 
HETATM   18 Br1  UNK     1      27.760 -10.330  40.283  1.00  0.00    -0.050 Br
BRANCH  14  19
HETATM   19  O2  UNK     1      30.149  -7.963  35.252  1.00  0.00    -0.353 OA
HETATM   20  C22 UNK     1      29.637  -6.706  34.815  1.00  0.00     0.210 C 
ENDBRANCH  14  19
BRANCH  15  21
HETATM   21  O1  UNK     1      31.780  -8.990  37.255  1.00  0.00    -0.344 OA
BRANCH  21  22
HETATM   22  C4  UNK     1      32.498  -8.080  38.085  1.00  0.00     0.216 C 
BRANCH  22  23
HETATM   23  C6  UNK     1      32.949  -6.912  37.257  1.00  0.00    -0.012 A 
HETATM   24  C12 UNK     1      32.244  -5.713  37.251  1.00  0.00     0.044 A 
HETATM   25 Cl1  UNK     1      30.811  -5.503  38.191  1.00  0.00    -0.084 Cl
HETATM   26  C14 UNK     1      32.693  -4.649  36.469  1.00  0.00     0.048 A 
HETATM   27  C18 UNK     1      33.847  -4.789  35.698  1.00  0.00     0.035 A 
HETATM   28  C15 UNK     1      34.551  -5.993  35.709  1.00  0.00     0.024 A 
HETATM   29 Cl2  UNK     1      34.404  -3.476  34.734  1.00  0.00    -0.084 Cl
HETATM   30  C13 UNK     1      34.101  -7.057  36.490  1.00  0.00     0.013 A 
ENDBRANCH  22  23
ENDBRANCH  21  22
ENDBRANCH  15  21
ENDBRANCH   2  12
TORSDOF 6
ENDMDL
MODEL 4
REMARK VINA RESULT:      -8.1      1.676      1.899
REMARK  6 active torsions:
REMARK  status: ('A' for Active; 'I' for Inactive)
REMARK    1  A    between atoms: C1_8  and  O1_5 
REMARK    2  A    between atoms: C4_11  and  O1_5 
REMARK    3  A    between atoms: C3_10  and  O2_6 
REMARK    4  A    between atoms: C2_9  and  C9_16 
REMARK    5  A    between atoms: C4_11  and  C6_13 
REMARK    6  A    between atoms: C10_17  and  C11_18 
ROOT
HETATM    1  N1  UNK     1      19.660   6.180  29.784  1.00  0.00    -0.191 NA
HETATM    2  C9  UNK     1      17.816   4.372  32.071  1.00  0.00     0.036 C 
HETATM    3  C10 UNK     1      18.501   4.146  30.919  1.00  0.00     0.055 C 
HETATM    4  C23 UNK     1      19.139   5.278  30.297  1.00  0.00     0.100 C 
ENDROOT
BRANCH   3   5
HETATM    5  C11 UNK     1      18.627   2.838  30.294  1.00  0.00    -0.014 A 
HETATM    6  C16 UNK     1      19.336   1.823  30.936  1.00  0.00     0.036 A 
HETATM    7  C19 UNK     1      19.455   0.569  30.338  1.00  0.00     0.034 A 
HETATM    8 Cl3  UNK     1      20.330  -0.684  31.129  1.00  0.00    -0.084 Cl
HETATM    9  C21 UNK     1      18.865   0.330  29.096  1.00  0.00     0.024 A 
HETATM   10  C20 UNK     1      18.156   1.345  28.454  1.00  0.00     0.003 A 
HETATM   11  C17 UNK     1      18.037   2.600  29.054  1.00  0.00     0.013 A 
ENDBRANCH   3   5
BRANCH   2  12
HETATM   12  C2  UNK     1      17.669   5.674  32.739  1.00  0.00    -0.015 A 
HETATM   13  C5  UNK     1      16.603   6.472  32.343  1.00  0.00     0.052 A 
HETATM   14  C3  UNK     1      16.415   7.717  32.944  1.00  0.00     0.102 A 
HETATM   15  C1  UNK     1      17.295   8.153  33.935  1.00  0.00     0.103 A 
HETATM   16  C7  UNK     1      18.363   7.344  34.325  1.00  0.00     0.059 A 
HETATM   17  C8  UNK     1      18.550   6.099  33.724  1.00  0.00     0.024 A 
HETATM   18 Br1  UNK     1      20.023   5.047  34.303  1.00  0.00    -0.050 Br
BRANCH  14  19
HETATM   19  O2  UNK     1      15.370   8.498  32.554  1.00  0.00    -0.353 OA
HETATM   20  C22 UNK     1      14.100   8.222  33.140  1.00  0.00     0.210 C 
ENDBRANCH  14  19
BRANCH  15  21
HETATM   21  O1  UNK     1      17.123   9.367  34.529  1.00  0.00    -0.344 OA
BRANCH  21  22
HETATM   22  C4  UNK     1      17.743  10.488  33.904  1.00  0.00     0.216 C 
BRANCH  22  23
HETATM   23  C6  UNK     1      16.987  11.733  34.266  1.00  0.00    -0.012 A 
HETATM   24  C12 UNK     1      17.445  12.993  33.897  1.00  0.00     0.044 A 
HETATM   25 Cl1  UNK     1      18.910  13.196  33.006  1.00  0.00    -0.084 Cl
HETATM   26  C14 UNK     1      16.715  14.127  34.252  1.00  0.00     0.048 A 
HETATM   27  C18 UNK     1      15.528  13.996  34.974  1.00  0.00     0.035 A 
HETATM   28  C15 UNK     1      15.073  12.729  35.340  1.00  0.00     0.024 A 
HETATM   29 Cl2  UNK     1      14.625  15.394  35.411  1.00  0.00    -0.084 Cl
HETATM   30  C13 UNK     1      15.803  11.596  34.986  1.00  0.00     0.013 A 
ENDBRANCH  22  23
ENDBRANCH  21  22
ENDBRANCH  15  21
ENDBRANCH   2  12
TORSDOF 6
ENDMDL
MODEL 5
REMARK VINA RESULT:      -8.1      6.045      8.327
REMARK  6 active torsions:
REMARK  status: ('A' for Active; 'I' for Inactive)
REMARK    1  A    between atoms: C1_8  and  O1_5 
REMARK    2  A    between atoms: C4_11  and  O1_5 
REMARK    3  A    between atoms: C3_10  and  O2_6 
REMARK    4  A    between atoms: C2_9  and  C9_16 
REMARK    5  A    between atoms: C4_11  and  C6_13 
REMARK    6  A    between atoms: C10_17  and  C11_18 
ROOT
HETATM    1  N1  UNK     1      22.210  -1.694  35.217  1.00  0.00    -0.191 NA
HETATM    2  C9  UNK     1      18.834  -2.394  35.127  1.00  0.00     0.036 C 
HETATM    3  C10 UNK     1      19.963  -2.924  35.667  1.00  0.00     0.055 C 
HETATM    4  C23 UNK     1      21.202  -2.237  35.412  1.00  0.00     0.100 C 
ENDROOT
BRANCH   3   5
HETATM    5  C11 UNK     1      19.983  -4.129  36.483  1.00  0.00    -0.014 A 
HETATM    6  C16 UNK     1      19.189  -5.222  36.133  1.00  0.00     0.036 A 
HETATM    7  C19 UNK     1      19.210  -6.377  36.914  1.00  0.00     0.034 A 
HETATM    8 Cl3  UNK     1      18.230  -7.725  36.484  1.00  0.00    -0.084 Cl
HETATM    9  C21 UNK     1      20.023  -6.440  38.046  1.00  0.00     0.024 A 
HETATM   10  C20 UNK     1      20.816  -5.347  38.395  1.00  0.00     0.003 A 
HETATM   11  C17 UNK     1      20.796  -4.192  37.613  1.00  0.00     0.013 A 
ENDBRANCH   3   5
BRANCH   2  12
HETATM   12  C2  UNK     1      18.768  -1.178  34.303  1.00  0.00    -0.015 A 
HETATM   13  C5  UNK     1      19.095  -1.304  32.959  1.00  0.00     0.052 A 
HETATM   14  C3  UNK     1      19.050  -0.183  32.131  1.00  0.00     0.102 A 
HETATM   15  C1  UNK     1      18.677   1.056  32.654  1.00  0.00     0.103 A 
HETATM   16  C7  UNK     1      18.350   1.172  34.005  1.00  0.00     0.059 A 
HETATM   17  C8  UNK     1      18.395   0.050  34.833  1.00  0.00     0.024 A 
HETATM   18 Br1  UNK     1      17.938   0.279  36.663  1.00  0.00    -0.050 Br
BRANCH  14  19
HETATM   19  O2  UNK     1      19.372  -0.309  30.814  1.00  0.00    -0.353 OA
HETATM   20  C22 UNK     1      20.746  -0.523  30.500  1.00  0.00     0.210 C 
ENDBRANCH  14  19
BRANCH  15  21
HETATM   21  O1  UNK     1      18.628   2.158  31.856  1.00  0.00    -0.344 OA
BRANCH  21  22
HETATM   22  C4  UNK     1      17.647   3.144  32.171  1.00  0.00     0.216 C 
BRANCH  22  23
HETATM   23  C6  UNK     1      18.338   4.426  32.534  1.00  0.00    -0.012 A 
HETATM   24  C12 UNK     1      18.983   5.199  31.574  1.00  0.00     0.044 A 
HETATM   25 Cl1  UNK     1      19.026   4.726  29.914  1.00  0.00    -0.084 Cl
HETATM   26  C14 UNK     1      19.615   6.385  31.949  1.00  0.00     0.048 A 
HETATM   27  C18 UNK     1      19.598   6.792  33.283  1.00  0.00     0.035 A 
HETATM   28  C15 UNK     1      18.949   6.014  34.241  1.00  0.00     0.024 A 
HETATM   29 Cl2  UNK     1      20.376   8.256  33.747  1.00  0.00    -0.084 Cl
HETATM   30  C13 UNK     1      18.318   4.828  33.866  1.00  0.00     0.013 A 
ENDBRANCH  22  23
ENDBRANCH  21  22
ENDBRANCH  15  21
ENDBRANCH   2  12
TORSDOF 6
ENDMDL
MODEL 6
REMARK VINA RESULT:      -8.1     23.223     24.798
REMARK  6 active torsions:
REMARK  status: ('A' for Active; 'I' for Inactive)
REMARK    1  A    between atoms: C1_8  and  O1_5 
REMARK    2  A    between atoms: C4_11  and  O1_5 
REMARK    3  A    between atoms: C3_10  and  O2_6 
REMARK    4  A    between atoms: C2_9  and  C9_16 
REMARK    5  A    between atoms: C4_11  and  C6_13 
REMARK    6  A    between atoms: C10_17  and  C11_18 
ROOT
HETATM    1  N1  UNK     1      12.928   5.857  10.266  1.00  0.00    -0.191 NA
HETATM    2  C9  UNK     1      12.177   8.992   9.042  1.00  0.00     0.036 C 
HETATM    3  C10 UNK     1      13.278   8.291   9.420  1.00  0.00     0.055 C 
HETATM    4  C23 UNK     1      13.075   6.945   9.887  1.00  0.00     0.100 C 
ENDROOT
BRANCH   3   5
HETATM    5  C11 UNK     1      14.632   8.821   9.372  1.00  0.00    -0.014 A 
HETATM    6  C16 UNK     1      14.908   9.967   8.625  1.00  0.00     0.036 A 
HETATM    7  C19 UNK     1      16.205  10.475   8.581  1.00  0.00     0.034 A 
HETATM    8 Cl3  UNK     1      16.546  11.889   7.659  1.00  0.00    -0.084 Cl
HETATM    9  C21 UNK     1      17.229   9.838   9.282  1.00  0.00     0.024 A 
HETATM   10  C20 UNK     1      16.953   8.692  10.029  1.00  0.00     0.003 A 
HETATM   11  C17 UNK     1      15.655   8.184  10.074  1.00  0.00     0.013 A 
ENDBRANCH   3   5
BRANCH   2  12
HETATM   12  C2  UNK     1      10.793   8.495   9.068  1.00  0.00    -0.015 A 
HETATM   13  C5  UNK     1      10.487   7.431   8.227  1.00  0.00     0.052 A 
HETATM   14  C3  UNK     1       9.190   6.918   8.211  1.00  0.00     0.102 A 
HETATM   15  C1  UNK     1       8.211   7.473   9.035  1.00  0.00     0.103 A 
HETATM   16  C7  UNK     1       8.528   8.541   9.875  1.00  0.00     0.059 A 
HETATM   17  C8  UNK     1       9.825   9.053   9.891  1.00  0.00     0.024 A 
HETATM   18 Br1  UNK     1      10.190  10.508  11.058  1.00  0.00    -0.050 Br
BRANCH  14  19
HETATM   19  O2  UNK     1       8.892   5.876   7.386  1.00  0.00    -0.353 OA
HETATM   20  C22 UNK     1       9.362   5.958   6.043  1.00  0.00     0.210 C 
ENDBRANCH  14  19
BRANCH  15  21
HETATM   21  O1  UNK     1       6.940   6.981   9.028  1.00  0.00    -0.344 OA
BRANCH  21  22
HETATM   22  C4  UNK     1       6.083   7.387  10.093  1.00  0.00     0.216 C 
BRANCH  22  23
HETATM   23  C6  UNK     1       5.908   6.241  11.046  1.00  0.00    -0.012 A 
HETATM   24  C12 UNK     1       5.859   6.443  12.422  1.00  0.00     0.044 A 
HETATM   25 Cl1  UNK     1       6.000   8.020  13.108  1.00  0.00    -0.084 Cl
HETATM   26  C14 UNK     1       5.695   5.352  13.276  1.00  0.00     0.048 A 
HETATM   27  C18 UNK     1       5.579   4.065  12.752  1.00  0.00     0.035 A 
HETATM   28  C15 UNK     1       5.628   3.869  11.371  1.00  0.00     0.024 A 
HETATM   29 Cl2  UNK     1       5.376   2.720  13.805  1.00  0.00    -0.084 Cl
HETATM   30  C13 UNK     1       5.793   4.958  10.517  1.00  0.00     0.013 A 
ENDBRANCH  22  23
ENDBRANCH  21  22
ENDBRANCH  15  21
ENDBRANCH   2  12
TORSDOF 6
ENDMDL
MODEL 7
REMARK VINA RESULT:      -8.1      7.058     12.605
REMARK  6 active torsions:
REMARK  status: ('A' for Active; 'I' for Inactive)
REMARK    1  A    between atoms: C1_8  and  O1_5 
REMARK    2  A    between atoms: C4_11  and  O1_5 
REMARK    3  A    between atoms: C3_10  and  O2_6 
REMARK    4  A    between atoms: C2_9  and  C9_16 
REMARK    5  A    between atoms: C4_11  and  C6_13 
REMARK    6  A    between atoms: C10_17  and  C11_18 
ROOT
HETATM    1  N1  UNK     1      20.083   2.608  36.522  1.00  0.00    -0.191 NA
HETATM    2  C9  UNK     1      18.026   1.152  34.168  1.00  0.00     0.036 C 
HETATM    3  C10 UNK     1      18.517   2.386  34.458  1.00  0.00     0.055 C 
HETATM    4  C23 UNK     1      19.382   2.500  35.603  1.00  0.00     0.100 C 
ENDROOT
BRANCH   3   5
HETATM    5  C11 UNK     1      18.221   3.579  33.679  1.00  0.00    -0.014 A 
HETATM    6  C16 UNK     1      17.999   4.797  34.323  1.00  0.00     0.036 A 
HETATM    7  C19 UNK     1      17.718   5.940  33.577  1.00  0.00     0.034 A 
HETATM    8 Cl3  UNK     1      17.443   7.442  34.371  1.00  0.00    -0.084 Cl
HETATM    9  C21 UNK     1      17.657   5.867  32.185  1.00  0.00     0.024 A 
HETATM   10  C20 UNK     1      17.880   4.650  31.540  1.00  0.00     0.003 A 
HETATM   11  C17 UNK     1      18.162   3.506  32.288  1.00  0.00     0.013 A 
ENDBRANCH   3   5
BRANCH   2  12
HETATM   12  C2  UNK     1      18.304  -0.079  34.922  1.00  0.00    -0.015 A 
HETATM   13  C5  UNK     1      19.275  -0.931  34.409  1.00  0.00     0.052 A 
HETATM   14  C3  UNK     1      19.579  -2.113  35.083  1.00  0.00     0.102 A 
HETATM   15  C1  UNK     1      18.910  -2.433  36.265  1.00  0.00     0.103 A 
HETATM   16  C7  UNK     1      17.937  -1.571  36.772  1.00  0.00     0.059 A 
HETATM   17  C8  UNK     1      17.633  -0.389  36.097  1.00  0.00     0.024 A 
HETATM   18 Br1  UNK     1      16.298   0.740  36.842  1.00  0.00    -0.050 Br
BRANCH  14  19
HETATM   19  O2  UNK     1      20.529  -2.947  34.578  1.00  0.00    -0.353 OA
HETATM   20  C22 UNK     1      20.901  -2.756  33.215  1.00  0.00     0.210 C 
ENDBRANCH  14  19
BRANCH  15  21
HETATM   21  O1  UNK     1      19.198  -3.585  36.933  1.00  0.00    -0.344 OA
BRANCH  21  22
HETATM   22  C4  UNK     1      18.438  -4.742  36.588  1.00  0.00     0.216 C 
BRANCH  22  23
HETATM   23  C6  UNK     1      19.340  -5.942  36.598  1.00  0.00    -0.012 A 
HETATM   24  C12 UNK     1      18.944  -7.150  36.033  1.00  0.00     0.044 A 
HETATM   25 Cl1  UNK     1      17.396  -7.337  35.294  1.00  0.00    -0.084 Cl
HETATM   26  C14 UNK     1      19.810  -8.244  36.061  1.00  0.00     0.048 A 
HETATM   27  C18 UNK     1      21.067  -8.124  36.653  1.00  0.00     0.035 A 
HETATM   28  C15 UNK     1      21.458  -6.909  37.216  1.00  0.00     0.024 A 
HETATM   29 Cl2  UNK     1      22.136  -9.472  36.687  1.00  0.00    -0.084 Cl
HETATM   30  C13 UNK     1      20.594  -5.817  37.189  1.00  0.00     0.013 A 
ENDBRANCH  22  23
ENDBRANCH  21  22
ENDBRANCH  15  21
ENDBRANCH   2  12
TORSDOF 6
ENDMDL
MODEL 8
REMARK VINA RESULT:      -8.1     14.913     18.295
REMARK  6 active torsions:
REMARK  status: ('A' for Active; 'I' for Inactive)
REMARK    1  A    between atoms: C1_8  and  O1_5 
REMARK    2  A    between atoms: C4_11  and  O1_5 
REMARK    3  A    between atoms: C3_10  and  O2_6 
REMARK    4  A    between atoms: C2_9  and  C9_16 
REMARK    5  A    between atoms: C4_11  and  C6_13 
REMARK    6  A    between atoms: C10_17  and  C11_18 
ROOT
HETATM    1  N1  UNK     1      29.316  -6.228  34.779  1.00  0.00    -0.191 NA
HETATM    2  C9  UNK     1      30.176  -6.842  38.061  1.00  0.00     0.036 C 
HETATM    3  C10 UNK     1      30.800  -6.553  36.889  1.00  0.00     0.055 C 
HETATM    4  C23 UNK     1      29.971  -6.375  35.726  1.00  0.00     0.100 C 
ENDROOT
BRANCH   3   5
HETATM    5  C11 UNK     1      32.242  -6.410  36.752  1.00  0.00    -0.014 A 
HETATM    6  C16 UNK     1      32.770  -5.528  35.809  1.00  0.00     0.036 A 
HETATM    7  C19 UNK     1      34.151  -5.390  35.680  1.00  0.00     0.034 A 
HETATM    8 Cl3  UNK     1      34.803  -4.303  34.516  1.00  0.00    -0.084 Cl
HETATM    9  C21 UNK     1      35.006  -6.135  36.492  1.00  0.00     0.024 A 
HETATM   10  C20 UNK     1      34.478  -7.017  37.436  1.00  0.00     0.003 A 
HETATM   11  C17 UNK     1      33.096  -7.154  37.565  1.00  0.00     0.013 A 
ENDBRANCH   3   5
BRANCH   2  12
HETATM   12  C2  UNK     1      28.725  -6.989  38.246  1.00  0.00    -0.015 A 
HETATM   13  C5  UNK     1      28.186  -8.254  38.044  1.00  0.00     0.052 A 
HETATM   14  C3  UNK     1      26.814  -8.451  38.206  1.00  0.00     0.102 A 
HETATM   15  C1  UNK     1      25.994  -7.382  38.567  1.00  0.00     0.103 A 
HETATM   16  C7  UNK     1      26.545  -6.116  38.767  1.00  0.00     0.059 A 
HETATM   17  C8  UNK     1      27.917  -5.919  38.606  1.00  0.00     0.024 A 
HETATM   18 Br1  UNK     1      28.602  -4.170  38.894  1.00  0.00    -0.050 Br
BRANCH  14  19
HETATM   19  O2  UNK     1      26.288  -9.691  38.006  1.00  0.00    -0.353 OA
HETATM   20  C22 UNK     1      26.115 -10.113  36.656  1.00  0.00     0.210 C 
ENDBRANCH  14  19
BRANCH  15  21
HETATM   21  O1  UNK     1      24.653  -7.562  38.728  1.00  0.00    -0.344 OA
BRANCH  21  22
HETATM   22  C4  UNK     1      23.915  -6.474  39.281  1.00  0.00     0.216 C 
BRANCH  22  23
HETATM   23  C6  UNK     1      22.475  -6.603  38.879  1.00  0.00    -0.012 A 
HETATM   24  C12 UNK     1      21.677  -7.635  39.362  1.00  0.00     0.044 A 
HETATM   25 Cl1  UNK     1      22.300  -8.826  40.446  1.00  0.00    -0.084 Cl
HETATM   26  C14 UNK     1      20.343  -7.722  38.966  1.00  0.00     0.048 A 
HETATM   27  C18 UNK     1      19.811  -6.776  38.090  1.00  0.00     0.035 A 
HETATM   28  C15 UNK     1      20.616  -5.742  37.610  1.00  0.00     0.024 A 
HETATM   29 Cl2  UNK     1      18.164  -6.881  37.602  1.00  0.00    -0.084 Cl
HETATM   30  C13 UNK     1      21.950  -5.655  38.005  1.00  0.00     0.013 A 
ENDBRANCH  22  23
ENDBRANCH  21  22
ENDBRANCH  15  21
ENDBRANCH   2  12
TORSDOF 6
ENDMDL
MODEL 9
REMARK VINA RESULT:      -8.0     16.988     19.711
REMARK  6 active torsions:
REMARK  status: ('A' for Active; 'I' for Inactive)
REMARK    1  A    between atoms: C1_8  and  O1_5 
REMARK    2  A    between atoms: C4_11  and  O1_5 
REMARK    3  A    between atoms: C3_10  and  O2_6 
REMARK    4  A    between atoms: C2_9  and  C9_16 
REMARK    5  A    between atoms: C4_11  and  C6_13 
REMARK    6  A    between atoms: C10_17  and  C11_18 
ROOT
HETATM    1  N1  UNK     1      25.657 -11.476  36.150  1.00  0.00    -0.191 NA
HETATM    2  C9  UNK     1      25.778  -8.334  37.568  1.00  0.00     0.036 C 
HETATM    3  C10 UNK     1      24.835  -9.212  37.133  1.00  0.00     0.055 C 
HETATM    4  C23 UNK     1      25.299 -10.462  36.590  1.00  0.00     0.100 C 
ENDROOT
BRANCH   3   5
HETATM    5  C11 UNK     1      23.404  -8.960  37.192  1.00  0.00    -0.014 A 
HETATM    6  C16 UNK     1      22.885  -8.101  38.162  1.00  0.00     0.036 A 
HETATM    7  C19 UNK     1      21.513  -7.859  38.217  1.00  0.00     0.034 A 
HETATM    8 Cl3  UNK     1      20.874  -6.799  39.414  1.00  0.00    -0.084 Cl
HETATM    9  C21 UNK     1      20.658  -8.476  37.304  1.00  0.00     0.024 A 
HETATM   10  C20 UNK     1      21.176  -9.334  36.334  1.00  0.00     0.003 A 
HETATM   11  C17 UNK     1      22.550  -9.576  36.279  1.00  0.00     0.013 A 
ENDBRANCH   3   5
BRANCH   2  12
HETATM   12  C2  UNK     1      27.231  -8.551  37.533  1.00  0.00    -0.015 A 
HETATM   13  C5  UNK     1      27.921  -8.039  36.440  1.00  0.00     0.052 A 
HETATM   14  C3  UNK     1      29.302  -8.215  36.355  1.00  0.00     0.102 A 
HETATM   15  C1  UNK     1      29.982  -8.900  37.363  1.00  0.00     0.103 A 
HETATM   16  C7  UNK     1      29.280  -9.409  38.455  1.00  0.00     0.059 A 
HETATM   17  C8  UNK     1      27.899  -9.233  38.541  1.00  0.00     0.024 A 
HETATM   18 Br1  UNK     1      27.004  -9.951  40.056  1.00  0.00    -0.050 Br
BRANCH  14  19
HETATM   19  O2  UNK     1      29.976  -7.714  35.283  1.00  0.00    -0.353 OA
HETATM   20  C22 UNK     1      29.623  -6.403  34.849  1.00  0.00     0.210 C 
ENDBRANCH  14  19
BRANCH  15  21
HETATM   21  O1  UNK     1      31.331  -9.077  37.291  1.00  0.00    -0.344 OA
BRANCH  21  22
HETATM   22  C4  UNK     1      32.137  -8.271  38.148  1.00  0.00     0.216 C 
BRANCH  22  23
HETATM   23  C6  UNK     1      32.696  -7.124  37.359  1.00  0.00    -0.012 A 
HETATM   24  C12 UNK     1      32.152  -5.847  37.450  1.00  0.00     0.044 A 
HETATM   25 Cl1  UNK     1      30.801  -5.513  38.472  1.00  0.00    -0.084 Cl
HETATM   26  C14 UNK     1      32.699  -4.805  36.702  1.00  0.00     0.048 A 
HETATM   27  C18 UNK     1      33.790  -5.045  35.866  1.00  0.00     0.035 A 
HETATM   28  C15 UNK     1      34.333  -6.327  35.779  1.00  0.00     0.024 A 
HETATM   29 Cl2  UNK     1      34.468  -3.760  34.943  1.00  0.00    -0.084 Cl
HETATM   30  C13 UNK     1      33.785  -7.368  36.527  1.00  0.00     0.013 A 
ENDBRANCH  22  23
ENDBRANCH  21  22
ENDBRANCH  15  21
ENDBRANCH   2  12
TORSDOF 6
ENDMDL
MODEL 10
REMARK VINA RESULT:      -8.0      5.918      7.935
REMARK  6 active torsions:
REMARK  status: ('A' for Active; 'I' for Inactive)
REMARK    1  A    between atoms: C1_8  and  O1_5 
REMARK    2  A    between atoms: C4_11  and  O1_5 
REMARK    3  A    between atoms: C3_10  and  O2_6 
REMARK    4  A    between atoms: C2_9  and  C9_16 
REMARK    5  A    between atoms: C4_11  and  C6_13 
REMARK    6  A    between atoms: C10_17  and  C11_18 
ROOT
HETATM    1  N1  UNK     1      17.538  -1.966  37.402  1.00  0.00    -0.191 NA
HETATM    2  C9  UNK     1      19.914  -2.334  34.929  1.00  0.00     0.036 C 
HETATM    3  C10 UNK     1      19.519  -2.982  36.057  1.00  0.00     0.055 C 
HETATM    4  C23 UNK     1      18.422  -2.413  36.796  1.00  0.00     0.100 C 
ENDROOT
BRANCH   3   5
HETATM    5  C11 UNK     1      20.133  -4.207  36.545  1.00  0.00    -0.014 A 
HETATM    6  C16 UNK     1      19.792  -5.435  35.977  1.00  0.00     0.036 A 
HETATM    7  C19 UNK     1      20.383  -6.608  36.444  1.00  0.00     0.034 A 
HETATM    8 Cl3  UNK     1      19.961  -8.123  35.743  1.00  0.00    -0.084 Cl
HETATM    9  C21 UNK     1      21.315  -6.555  37.481  1.00  0.00     0.024 A 
HETATM   10  C20 UNK     1      21.657  -5.328  38.049  1.00  0.00     0.003 A 
HETATM   11  C17 UNK     1      21.066  -4.154  37.580  1.00  0.00     0.013 A 
ENDBRANCH   3   5
BRANCH   2  12
HETATM   12  C2  UNK     1      19.317  -1.100  34.397  1.00  0.00    -0.015 A 
HETATM   13  C5  UNK     1      18.846  -0.175  35.321  1.00  0.00     0.052 A 
HETATM   14  C3  UNK     1      18.271   1.014  34.872  1.00  0.00     0.102 A 
HETATM   15  C1  UNK     1      18.172   1.268  33.503  1.00  0.00     0.103 A 
HETATM   16  C7  UNK     1      18.649   0.332  32.585  1.00  0.00     0.059 A 
HETATM   17  C8  UNK     1      19.224  -0.856  33.034  1.00  0.00     0.024 A 
HETATM   18 Br1  UNK     1      19.853  -2.086  31.729  1.00  0.00    -0.050 Br
BRANCH  14  19
HETATM   19  O2  UNK     1      17.809   1.918  35.779  1.00  0.00    -0.353 OA
HETATM   20  C22 UNK     1      18.009   1.615  37.157  1.00  0.00     0.210 C 
ENDBRANCH  14  19
BRANCH  15  21
HETATM   21  O1  UNK     1      17.613   2.425  33.053  1.00  0.00    -0.344 OA
BRANCH  21  22
HETATM   22  C4  UNK     1      18.311   3.124  32.024  1.00  0.00     0.216 C 
BRANCH  22  23
HETATM   23  C6  UNK     1      18.321   4.590  32.347  1.00  0.00    -0.012 A 
HETATM   24  C12 UNK     1      18.657   5.541  31.389  1.00  0.00     0.044 A 
HETATM   25 Cl1  UNK     1      19.084   5.089  29.779  1.00  0.00    -0.084 Cl
HETATM   26  C14 UNK     1      18.656   6.895  31.727  1.00  0.00     0.048 A 
HETATM   27  C18 UNK     1      18.317   7.291  33.021  1.00  0.00     0.035 A 
HETATM   28  C15 UNK     1      17.979   6.332  33.977  1.00  0.00     0.024 A 
HETATM   29 Cl2  UNK     1      18.313   8.960  33.438  1.00  0.00    -0.084 Cl
HETATM   30  C13 UNK     1      17.982   4.980  33.640  1.00  0.00     0.013 A 
ENDBRANCH  22  23
ENDBRANCH  21  22
ENDBRANCH  15  21
ENDBRANCH   2  12
TORSDOF 6
ENDMDL
