MODEL 1
REMARK VINA RESULT:      -9.3      0.000      0.000
REMARK  4 active torsions:
REMARK  status: ('A' for Active; 'I' for Inactive)
REMARK    1  A    between atoms: C9_14  and  O1_1 
REMARK       I    between atoms: C11_16  and  N1_5 
REMARK    2  A    between atoms: C8_13  and  N1_5 
REMARK    3  A    between atoms: C1_6  and  C2_7 
REMARK    4  A    between atoms: C11_16  and  C12_17 
ROOT
HETATM    1  O3  UNK     1      17.608   2.899  33.066  1.00  0.00    -0.267 OA
HETATM    2  N1  UNK     1      18.622   4.445  31.608  1.00  0.00    -0.320 N 
HETATM    3  C11 UNK     1      18.254   3.184  32.059  1.00  0.00     0.262 C 
HETATM    4  H13 UNK     1      19.140   4.515  30.735  1.00  0.00     0.169 HD
ENDROOT
BRANCH   2   5
HETATM    5  C8  UNK     1      18.334   5.695  32.207  1.00  0.00     0.069 A 
HETATM    6  C6  UNK     1      17.019   6.127  32.245  1.00  0.00     0.040 A 
HETATM    7  C2  UNK     1      16.721   7.357  32.830  1.00  0.00    -0.048 A 
HETATM    8  C7  UNK     1      17.742   8.139  33.370  1.00  0.00     0.011 A 
HETATM    9  C10 UNK     1      19.062   7.689  33.324  1.00  0.00     0.039 A 
HETATM   10  C9  UNK     1      19.361   6.459  32.739  1.00  0.00     0.095 A 
BRANCH   7  11
HETATM   11  C1  UNK     1      15.310   7.838  32.879  1.00  0.00    -0.024 C 
HETATM   12  C3  UNK     1      14.432   7.130  31.801  1.00  0.00     0.019 C 
HETATM   13  C4  UNK     1      15.225   9.374  32.620  1.00  0.00     0.019 C 
HETATM   14  C5  UNK     1      14.568   7.606  34.239  1.00  0.00     0.019 C 
ENDBRANCH   7  11
BRANCH  10  15
HETATM   15  O1  UNK     1      20.656   6.039  32.704  1.00  0.00    -0.354 OA
HETATM   16  C18 UNK     1      21.336   6.144  31.454  1.00  0.00     0.210 C 
ENDBRANCH  10  15
ENDBRANCH   2   5
BRANCH   3  17
HETATM   17  C12 UNK     1      18.732   2.117  31.172  1.00  0.00     0.108 A 
HETATM   18  C14 UNK     1      19.139   0.991  31.768  1.00  0.00     0.037 A 
HETATM   19  C13 UNK     1      19.630  -0.124  30.974  1.00  0.00    -0.001 A 
HETATM   20  C15 UNK     1      19.670   0.003  29.588  1.00  0.00     0.089 A 
HETATM   21  C17 UNK     1      20.065  -1.318  31.553  1.00  0.00     0.014 A 
HETATM   22  O2  UNK     1      19.241   1.193  28.967  1.00  0.00    -0.274 OA
HETATM   23  C19 UNK     1      20.130  -1.026  28.770  1.00  0.00     0.038 A 
HETATM   24  C16 UNK     1      18.765   2.275  29.701  1.00  0.00     0.304 A 
HETATM   25  O4  UNK     1      18.394   3.306  29.151  1.00  0.00    -0.259 OA
HETATM   26  C21 UNK     1      20.561  -2.214  29.356  1.00  0.00     0.003 A 
HETATM   27  C20 UNK     1      20.529  -2.360  30.745  1.00  0.00     0.001 A 
ENDBRANCH   3  17
TORSDOF 4
ENDMDL
MODEL 2
REMARK VINA RESULT:      -9.2      1.264      2.024
REMARK  4 active torsions:
REMARK  status: ('A' for Active; 'I' for Inactive)
REMARK    1  A    between atoms: C9_14  and  O1_1 
REMARK       I    between atoms: C11_16  and  N1_5 
REMARK    2  A    between atoms: C8_13  and  N1_5 
REMARK    3  A    between atoms: C1_6  and  C2_7 
REMARK    4  A    between atoms: C11_16  and  C12_17 
ROOT
HETATM    1  O3  UNK     1      17.725   4.433  30.716  1.00  0.00    -0.267 OA
HETATM    2  N1  UNK     1      18.556   4.572  32.915  1.00  0.00    -0.320 N 
HETATM    3  C11 UNK     1      18.232   3.940  31.723  1.00  0.00     0.262 C 
HETATM    4  H13 UNK     1      18.997   4.025  33.651  1.00  0.00     0.169 HD
ENDROOT
BRANCH   2   5
HETATM    5  C8  UNK     1      18.377   5.937  33.246  1.00  0.00     0.069 A 
HETATM    6  C6  UNK     1      17.090   6.447  33.293  1.00  0.00     0.040 A 
HETATM    7  C2  UNK     1      16.898   7.790  33.615  1.00  0.00    -0.048 A 
HETATM    8  C7  UNK     1      17.997   8.606  33.885  1.00  0.00     0.011 A 
HETATM    9  C10 UNK     1      19.287   8.078  33.833  1.00  0.00     0.039 A 
HETATM   10  C9  UNK     1      19.479   6.735  33.512  1.00  0.00     0.095 A 
BRANCH   7  11
HETATM   11  C1  UNK     1      15.519   8.355  33.670  1.00  0.00    -0.024 C 
HETATM   12  C3  UNK     1      15.154   9.090  32.343  1.00  0.00     0.019 C 
HETATM   13  C4  UNK     1      15.375   9.385  34.834  1.00  0.00     0.019 C 
HETATM   14  C5  UNK     1      14.374   7.311  33.897  1.00  0.00     0.019 C 
ENDBRANCH   7  11
BRANCH  10  15
HETATM   15  O1  UNK     1      20.747   6.239  33.466  1.00  0.00    -0.354 OA
HETATM   16  C18 UNK     1      21.406   6.265  32.201  1.00  0.00     0.210 C 
ENDBRANCH  10  15
ENDBRANCH   2   5
BRANCH   3  17
HETATM   17  C12 UNK     1      18.566   2.511  31.745  1.00  0.00     0.108 A 
HETATM   18  C14 UNK     1      19.151   2.023  30.646  1.00  0.00     0.037 A 
HETATM   19  C13 UNK     1      19.520   0.618  30.573  1.00  0.00    -0.001 A 
HETATM   20  C15 UNK     1      19.251  -0.206  31.661  1.00  0.00     0.089 A 
HETATM   21  C17 UNK     1      20.133   0.066  29.445  1.00  0.00     0.014 A 
HETATM   22  O2  UNK     1      18.633   0.314  32.816  1.00  0.00    -0.274 OA
HETATM   23  C19 UNK     1      19.578  -1.560  31.655  1.00  0.00     0.038 A 
HETATM   24  C16 UNK     1      18.271   1.654  32.915  1.00  0.00     0.304 A 
HETATM   25  O4  UNK     1      17.733   2.096  33.925  1.00  0.00    -0.259 OA
HETATM   26  C21 UNK     1      20.190  -2.102  30.527  1.00  0.00     0.003 A 
HETATM   27  C20 UNK     1      20.467  -1.291  29.425  1.00  0.00     0.001 A 
ENDBRANCH   3  17
TORSDOF 4
ENDMDL
MODEL 3
REMARK VINA RESULT:      -9.1      6.947     11.716
REMARK  4 active torsions:
REMARK  status: ('A' for Active; 'I' for Inactive)
REMARK    1  A    between atoms: C9_14  and  O1_1 
REMARK       I    between atoms: C11_16  and  N1_5 
REMARK    2  A    between atoms: C8_13  and  N1_5 
REMARK    3  A    between atoms: C1_6  and  C2_7 
REMARK    4  A    between atoms: C11_16  and  C12_17 
ROOT
HETATM    1  O3  UNK     1      20.233  -2.774  37.437  1.00  0.00    -0.267 OA
HETATM    2  N1  UNK     1      19.623  -4.579  36.052  1.00  0.00    -0.320 N 
HETATM    3  C11 UNK     1      19.872  -3.248  36.360  1.00  0.00     0.262 C 
HETATM    4  H13 UNK     1      19.353  -4.814  35.100  1.00  0.00     0.169 HD
ENDROOT
BRANCH   2   5
HETATM    5  C8  UNK     1      19.728  -5.699  36.912  1.00  0.00     0.069 A 
HETATM    6  C6  UNK     1      20.975  -6.040  37.409  1.00  0.00     0.040 A 
HETATM    7  C2  UNK     1      21.095  -7.142  38.255  1.00  0.00    -0.048 A 
HETATM    8  C7  UNK     1      19.966  -7.888  38.593  1.00  0.00     0.011 A 
HETATM    9  C10 UNK     1      18.717  -7.532  38.084  1.00  0.00     0.039 A 
HETATM   10  C9  UNK     1      18.597  -6.430  37.238  1.00  0.00     0.095 A 
BRANCH   7  11
HETATM   11  C1  UNK     1      22.430  -7.524  38.799  1.00  0.00    -0.024 C 
HETATM   12  C3  UNK     1      23.279  -6.263  39.153  1.00  0.00     0.019 C 
HETATM   13  C4  UNK     1      23.244  -8.364  37.766  1.00  0.00     0.019 C 
HETATM   14  C5  UNK     1      22.401  -8.387  40.105  1.00  0.00     0.019 C 
ENDBRANCH   7  11
BRANCH  10  15
HETATM   15  O1  UNK     1      17.368  -6.098  36.751  1.00  0.00    -0.354 OA
HETATM   16  C18 UNK     1      16.822  -6.946  35.742  1.00  0.00     0.210 C 
ENDBRANCH  10  15
ENDBRANCH   2   5
BRANCH   3  17
HETATM   17  C12 UNK     1      19.657  -2.364  35.209  1.00  0.00     0.108 A 
HETATM   18  C14 UNK     1      20.247  -2.728  34.065  1.00  0.00     0.037 A 
HETATM   19  C13 UNK     1      20.093  -1.916  32.869  1.00  0.00    -0.001 A 
HETATM   20  C15 UNK     1      19.326  -0.756  32.937  1.00  0.00     0.089 A 
HETATM   21  C17 UNK     1      20.690  -2.258  31.654  1.00  0.00     0.014 A 
HETATM   22  O2  UNK     1      18.708  -0.378  34.145  1.00  0.00    -0.274 OA
HETATM   23  C19 UNK     1      19.139   0.066  31.828  1.00  0.00     0.038 A 
HETATM   24  C16 UNK     1      18.836  -1.135  35.305  1.00  0.00     0.304 A 
HETATM   25  O4  UNK     1      18.295  -0.797  36.352  1.00  0.00    -0.259 OA
HETATM   26  C21 UNK     1      19.738  -0.283  30.620  1.00  0.00     0.003 A 
HETATM   27  C20 UNK     1      20.512  -1.442  30.532  1.00  0.00     0.001 A 
ENDBRANCH   3  17
TORSDOF 4
ENDMDL
MODEL 4
REMARK VINA RESULT:      -8.9      7.669     12.437
REMARK  4 active torsions:
REMARK  status: ('A' for Active; 'I' for Inactive)
REMARK    1  A    between atoms: C9_14  and  O1_1 
REMARK       I    between atoms: C11_16  and  N1_5 
REMARK    2  A    between atoms: C8_13  and  N1_5 
REMARK    3  A    between atoms: C1_6  and  C2_7 
REMARK    4  A    between atoms: C11_16  and  C12_17 
ROOT
HETATM    1  O3  UNK     1      20.315  -4.545  34.901  1.00  0.00    -0.267 OA
HETATM    2  N1  UNK     1      19.540  -4.479  37.124  1.00  0.00    -0.320 N 
HETATM    3  C11 UNK     1      19.808  -3.967  35.862  1.00  0.00     0.262 C 
HETATM    4  H13 UNK     1      19.092  -3.874  37.808  1.00  0.00     0.169 HD
ENDROOT
BRANCH   2   5
HETATM    5  C8  UNK     1      19.789  -5.791  37.595  1.00  0.00     0.069 A 
HETATM    6  C6  UNK     1      21.059  -6.104  38.052  1.00  0.00     0.040 A 
HETATM    7  C2  UNK     1      21.319  -7.392  38.516  1.00  0.00    -0.048 A 
HETATM    8  C7  UNK     1      20.306  -8.352  38.518  1.00  0.00     0.011 A 
HETATM    9  C10 UNK     1      19.032  -8.021  38.055  1.00  0.00     0.039 A 
HETATM   10  C9  UNK     1      18.771  -6.732  37.590  1.00  0.00     0.095 A 
BRANCH   7  11
HETATM   11  C1  UNK     1      22.681  -7.746  39.011  1.00  0.00    -0.024 C 
HETATM   12  C3  UNK     1      22.605  -8.631  40.294  1.00  0.00     0.019 C 
HETATM   13  C4  UNK     1      23.503  -6.469  39.369  1.00  0.00     0.019 C 
HETATM   14  C5  UNK     1      23.574  -8.546  38.005  1.00  0.00     0.019 C 
ENDBRANCH   7  11
BRANCH  10  15
HETATM   15  O1  UNK     1      17.521  -6.429  37.142  1.00  0.00    -0.354 OA
HETATM   16  C18 UNK     1      17.147  -6.951  35.868  1.00  0.00     0.210 C 
ENDBRANCH  10  15
ENDBRANCH   2   5
BRANCH   3  17
HETATM   17  C12 UNK     1      19.410  -2.560  35.739  1.00  0.00     0.108 A 
HETATM   18  C14 UNK     1      18.764  -2.035  36.786  1.00  0.00     0.037 A 
HETATM   19  C13 UNK     1      18.328  -0.648  36.759  1.00  0.00    -0.001 A 
HETATM   20  C15 UNK     1      18.592   0.119  35.627  1.00  0.00     0.089 A 
HETATM   21  C17 UNK     1      17.652  -0.058  37.829  1.00  0.00     0.014 A 
HETATM   22  O2  UNK     1      19.272  -0.441  34.528  1.00  0.00    -0.274 OA
HETATM   23  C19 UNK     1      18.201   1.453  35.537  1.00  0.00     0.038 A 
HETATM   24  C16 UNK     1      19.702  -1.764  34.525  1.00  0.00     0.304 A 
HETATM   25  O4  UNK     1      20.293  -2.242  33.563  1.00  0.00    -0.259 OA
HETATM   26  C21 UNK     1      17.528   2.033  36.609  1.00  0.00     0.003 A 
HETATM   27  C20 UNK     1      17.253   1.280  37.753  1.00  0.00     0.001 A 
ENDBRANCH   3  17
TORSDOF 4
ENDMDL
MODEL 5
REMARK VINA RESULT:      -8.8      7.421     12.667
REMARK  4 active torsions:
REMARK  status: ('A' for Active; 'I' for Inactive)
REMARK    1  A    between atoms: C9_14  and  O1_1 
REMARK       I    between atoms: C11_16  and  N1_5 
REMARK    2  A    between atoms: C8_13  and  N1_5 
REMARK    3  A    between atoms: C1_6  and  C2_7 
REMARK    4  A    between atoms: C11_16  and  C12_17 
ROOT
HETATM    1  O3  UNK     1      20.525  -4.419  37.744  1.00  0.00    -0.267 OA
HETATM    2  N1  UNK     1      19.003  -5.098  36.080  1.00  0.00    -0.320 N 
HETATM    3  C11 UNK     1      19.737  -4.187  36.828  1.00  0.00     0.262 C 
HETATM    4  H13 UNK     1      18.408  -4.746  35.334  1.00  0.00     0.169 HD
ENDROOT
BRANCH   2   5
HETATM    5  C8  UNK     1      18.995  -6.509  36.202  1.00  0.00     0.069 A 
HETATM    6  C6  UNK     1      20.207  -7.178  36.258  1.00  0.00     0.040 A 
HETATM    7  C2  UNK     1      20.214  -8.567  36.376  1.00  0.00    -0.048 A 
HETATM    8  C7  UNK     1      19.010  -9.269  36.438  1.00  0.00     0.011 A 
HETATM    9  C10 UNK     1      17.799  -8.580  36.380  1.00  0.00     0.039 A 
HETATM   10  C9  UNK     1      17.790  -7.191  36.262  1.00  0.00     0.095 A 
BRANCH   7  11
HETATM   11  C1  UNK     1      21.510  -9.304  36.437  1.00  0.00    -0.024 C 
HETATM   12  C3  UNK     1      22.002  -9.703  35.011  1.00  0.00     0.019 C 
HETATM   13  C4  UNK     1      21.376 -10.616  37.273  1.00  0.00     0.019 C 
HETATM   14  C5  UNK     1      22.699  -8.519  37.085  1.00  0.00     0.019 C 
ENDBRANCH   7  11
BRANCH  10  15
HETATM   15  O1  UNK     1      16.596  -6.537  36.208  1.00  0.00    -0.354 OA
HETATM   16  C18 UNK     1      15.697  -6.919  35.168  1.00  0.00     0.210 C 
ENDBRANCH  10  15
ENDBRANCH   2   5
BRANCH   3  17
HETATM   17  C12 UNK     1      19.487  -2.802  36.414  1.00  0.00     0.108 A 
HETATM   18  C14 UNK     1      18.747  -2.060  37.246  1.00  0.00     0.037 A 
HETATM   19  C13 UNK     1      18.445  -0.675  36.922  1.00  0.00    -0.001 A 
HETATM   20  C15 UNK     1      18.936  -0.138  35.736  1.00  0.00     0.089 A 
HETATM   21  C17 UNK     1      17.676   0.136  37.761  1.00  0.00     0.014 A 
HETATM   22  O2  UNK     1      19.714  -0.925  34.863  1.00  0.00    -0.274 OA
HETATM   23  C19 UNK     1      18.682   1.181  35.366  1.00  0.00     0.038 A 
HETATM   24  C16 UNK     1      20.020  -2.253  35.147  1.00  0.00     0.304 A 
HETATM   25  O4  UNK     1      20.698  -2.929  34.381  1.00  0.00    -0.259 OA
HETATM   26  C21 UNK     1      17.916   1.983  36.209  1.00  0.00     0.003 A 
HETATM   27  C20 UNK     1      17.414   1.461  37.404  1.00  0.00     0.001 A 
ENDBRANCH   3  17
TORSDOF 4
ENDMDL
MODEL 6
REMARK VINA RESULT:      -8.7      2.953      3.897
REMARK  4 active torsions:
REMARK  status: ('A' for Active; 'I' for Inactive)
REMARK    1  A    between atoms: C9_14  and  O1_1 
REMARK       I    between atoms: C11_16  and  N1_5 
REMARK    2  A    between atoms: C8_13  and  N1_5 
REMARK    3  A    between atoms: C1_6  and  C2_7 
REMARK    4  A    between atoms: C11_16  and  C12_17 
ROOT
HETATM    1  O3  UNK     1      17.846   3.534  32.092  1.00  0.00    -0.267 OA
HETATM    2  N1  UNK     1      18.231   4.488  34.210  1.00  0.00    -0.320 N 
HETATM    3  C11 UNK     1      18.075   3.453  33.298  1.00  0.00     0.262 C 
HETATM    4  H13 UNK     1      18.443   4.254  35.177  1.00  0.00     0.169 HD
ENDROOT
BRANCH   2   5
HETATM    5  C8  UNK     1      18.163   5.880  33.958  1.00  0.00     0.069 A 
HETATM    6  C6  UNK     1      16.926   6.502  33.992  1.00  0.00     0.040 A 
HETATM    7  C2  UNK     1      16.844   7.872  33.743  1.00  0.00    -0.048 A 
HETATM    8  C7  UNK     1      18.000   8.601  33.465  1.00  0.00     0.011 A 
HETATM    9  C10 UNK     1      19.238   7.960  33.434  1.00  0.00     0.039 A 
HETATM   10  C9  UNK     1      19.321   6.590  33.683  1.00  0.00     0.095 A 
BRANCH   7  11
HETATM   11  C1  UNK     1      15.520   8.558  33.776  1.00  0.00    -0.024 C 
HETATM   12  C3  UNK     1      14.358   7.537  33.981  1.00  0.00     0.019 C 
HETATM   13  C4  UNK     1      15.246   9.322  32.443  1.00  0.00     0.019 C 
HETATM   14  C5  UNK     1      15.344   9.624  34.908  1.00  0.00     0.019 C 
ENDBRANCH   7  11
BRANCH  10  15
HETATM   15  O1  UNK     1      20.540   5.982  33.648  1.00  0.00    -0.354 OA
HETATM   16  C18 UNK     1      21.394   6.308  32.552  1.00  0.00     0.210 C 
ENDBRANCH  10  15
ENDBRANCH   2   5
BRANCH   3  17
HETATM   17  C12 UNK     1      18.214   2.135  33.927  1.00  0.00     0.108 A 
HETATM   18  C14 UNK     1      17.990   2.081  35.245  1.00  0.00     0.037 A 
HETATM   19  C13 UNK     1      18.104   0.819  35.958  1.00  0.00    -0.001 A 
HETATM   20  C15 UNK     1      18.451  -0.326  35.248  1.00  0.00     0.089 A 
HETATM   21  C17 UNK     1      17.879   0.717  37.333  1.00  0.00     0.014 A 
HETATM   22  O2  UNK     1      18.687  -0.263  33.860  1.00  0.00    -0.274 OA
HETATM   23  C19 UNK     1      18.578  -1.566  35.871  1.00  0.00     0.038 A 
HETATM   24  C16 UNK     1      18.584   0.930  33.151  1.00  0.00     0.304 A 
HETATM   25  O4  UNK     1      18.792   0.974  31.943  1.00  0.00    -0.259 OA
HETATM   26  C21 UNK     1      18.351  -1.659  37.242  1.00  0.00     0.003 A 
HETATM   27  C20 UNK     1      18.002  -0.520  37.972  1.00  0.00     0.001 A 
ENDBRANCH   3  17
TORSDOF 4
ENDMDL
MODEL 7
REMARK VINA RESULT:      -8.7      7.414     12.379
REMARK  4 active torsions:
REMARK  status: ('A' for Active; 'I' for Inactive)
REMARK    1  A    between atoms: C9_14  and  O1_1 
REMARK       I    between atoms: C11_16  and  N1_5 
REMARK    2  A    between atoms: C8_13  and  N1_5 
REMARK    3  A    between atoms: C1_6  and  C2_7 
REMARK    4  A    between atoms: C11_16  and  C12_17 
ROOT
HETATM    1  O3  UNK     1      20.911  -3.919  37.674  1.00  0.00    -0.267 OA
HETATM    2  N1  UNK     1      19.786  -4.949  35.880  1.00  0.00    -0.320 N 
HETATM    3  C11 UNK     1      20.192  -3.887  36.677  1.00  0.00     0.262 C 
HETATM    4  H13 UNK     1      19.206  -4.753  35.069  1.00  0.00     0.169 HD
ENDROOT
BRANCH   2   5
HETATM    5  C8  UNK     1      20.112  -6.319  36.036  1.00  0.00     0.069 A 
HETATM    6  C6  UNK     1      20.005  -6.890  37.293  1.00  0.00     0.040 A 
HETATM    7  C2  UNK     1      20.324  -8.236  37.461  1.00  0.00    -0.048 A 
HETATM    8  C7  UNK     1      20.746  -8.995  36.369  1.00  0.00     0.011 A 
HETATM    9  C10 UNK     1      20.849  -8.405  35.109  1.00  0.00     0.039 A 
HETATM   10  C9  UNK     1      20.530  -7.058  34.940  1.00  0.00     0.095 A 
BRANCH   7  11
HETATM   11  C1  UNK     1      20.215  -8.867  38.808  1.00  0.00    -0.024 C 
HETATM   12  C3  UNK     1      19.469 -10.235  38.734  1.00  0.00     0.019 C 
HETATM   13  C4  UNK     1      19.425  -7.954  39.798  1.00  0.00     0.019 C 
HETATM   14  C5  UNK     1      21.575  -9.171  39.520  1.00  0.00     0.019 C 
ENDBRANCH   7  11
BRANCH  10  15
HETATM   15  O1  UNK     1      20.637  -6.502  33.701  1.00  0.00    -0.354 OA
HETATM   16  C18 UNK     1      21.263  -7.289  32.690  1.00  0.00     0.210 C 
ENDBRANCH  10  15
ENDBRANCH   2   5
BRANCH   3  17
HETATM   17  C12 UNK     1      19.655  -2.605  36.206  1.00  0.00     0.108 A 
HETATM   18  C14 UNK     1      18.916  -1.915  37.082  1.00  0.00     0.037 A 
HETATM   19  C13 UNK     1      18.341  -0.633  36.708  1.00  0.00    -0.001 A 
HETATM   20  C15 UNK     1      18.569  -0.141  35.426  1.00  0.00     0.089 A 
HETATM   21  C17 UNK     1      17.564   0.121  37.590  1.00  0.00     0.014 A 
HETATM   22  O2  UNK     1      19.347  -0.873  34.508  1.00  0.00    -0.274 OA
HETATM   23  C19 UNK     1      18.046   1.079  35.004  1.00  0.00     0.038 A 
HETATM   24  C16 UNK     1      19.912  -2.102  34.838  1.00  0.00     0.304 A 
HETATM   25  O4  UNK     1      20.587  -2.731  34.031  1.00  0.00    -0.259 OA
HETATM   26  C21 UNK     1      17.273   1.825  35.891  1.00  0.00     0.003 A 
HETATM   27  C20 UNK     1      17.032   1.347  37.181  1.00  0.00     0.001 A 
ENDBRANCH   3  17
TORSDOF 4
ENDMDL
MODEL 8
REMARK VINA RESULT:      -8.7     13.705     16.176
REMARK  4 active torsions:
REMARK  status: ('A' for Active; 'I' for Inactive)
REMARK    1  A    between atoms: C9_14  and  O1_1 
REMARK       I    between atoms: C11_16  and  N1_5 
REMARK    2  A    between atoms: C8_13  and  N1_5 
REMARK    3  A    between atoms: C1_6  and  C2_7 
REMARK    4  A    between atoms: C11_16  and  C12_17 
ROOT
HETATM    1  O3  UNK     1      25.786  -9.097  39.533  1.00  0.00    -0.267 OA
HETATM    2  N1  UNK     1      24.835  -8.024  37.665  1.00  0.00    -0.320 N 
HETATM    3  C11 UNK     1      25.767  -8.215  38.676  1.00  0.00     0.262 C 
HETATM    4  H13 UNK     1      24.974  -7.255  37.015  1.00  0.00     0.169 HD
ENDROOT
BRANCH   2   5
HETATM    5  C8  UNK     1      23.688  -8.809  37.389  1.00  0.00     0.069 A 
HETATM    6  C6  UNK     1      22.459  -8.379  37.861  1.00  0.00     0.040 A 
HETATM    7  C2  UNK     1      21.322  -9.142  37.599  1.00  0.00    -0.048 A 
HETATM    8  C7  UNK     1      21.429 -10.325  36.866  1.00  0.00     0.011 A 
HETATM    9  C10 UNK     1      22.674 -10.744  36.398  1.00  0.00     0.039 A 
HETATM   10  C9  UNK     1      23.811  -9.981  36.660  1.00  0.00     0.095 A 
BRANCH   7  11
HETATM   11  C1  UNK     1      19.990  -8.694  38.100  1.00  0.00    -0.024 C 
HETATM   12  C3  UNK     1      20.129  -7.873  39.420  1.00  0.00     0.019 C 
HETATM   13  C4  UNK     1      19.059  -9.911  38.398  1.00  0.00     0.019 C 
HETATM   14  C5  UNK     1      19.178  -7.780  37.123  1.00  0.00     0.019 C 
ENDBRANCH   7  11
BRANCH  10  15
HETATM   15  O1  UNK     1      25.018 -10.408  36.194  1.00  0.00    -0.354 OA
HETATM   16  C18 UNK     1      25.234 -11.818  36.154  1.00  0.00     0.210 C 
ENDBRANCH  10  15
ENDBRANCH   2   5
BRANCH   3  17
HETATM   17  C12 UNK     1      26.825  -7.199  38.651  1.00  0.00     0.108 A 
HETATM   18  C14 UNK     1      28.079  -7.653  38.541  1.00  0.00     0.037 A 
HETATM   19  C13 UNK     1      29.196  -6.723  38.507  1.00  0.00    -0.001 A 
HETATM   20  C15 UNK     1      28.939  -5.358  38.595  1.00  0.00     0.089 A 
HETATM   21  C17 UNK     1      30.520  -7.153  38.392  1.00  0.00     0.014 A 
HETATM   22  O2  UNK     1      27.617  -4.886  38.712  1.00  0.00    -0.274 OA
HETATM   23  C19 UNK     1      29.964  -4.415  38.570  1.00  0.00     0.038 A 
HETATM   24  C16 UNK     1      26.528  -5.752  38.746  1.00  0.00     0.304 A 
HETATM   25  O4  UNK     1      25.381  -5.331  38.848  1.00  0.00    -0.259 OA
HETATM   26  C21 UNK     1      31.282  -4.852  38.454  1.00  0.00     0.003 A 
HETATM   27  C20 UNK     1      31.559  -6.219  38.366  1.00  0.00     0.001 A 
ENDBRANCH   3  17
TORSDOF 4
ENDMDL
MODEL 9
REMARK VINA RESULT:      -8.5     13.904     16.333
REMARK  4 active torsions:
REMARK  status: ('A' for Active; 'I' for Inactive)
REMARK    1  A    between atoms: C9_14  and  O1_1 
REMARK       I    between atoms: C11_16  and  N1_5 
REMARK    2  A    between atoms: C8_13  and  N1_5 
REMARK    3  A    between atoms: C1_6  and  C2_7 
REMARK    4  A    between atoms: C11_16  and  C12_17 
ROOT
HETATM    1  O3  UNK     1      24.439  -8.047  39.337  1.00  0.00    -0.267 OA
HETATM    2  N1  UNK     1      24.807  -8.957  37.196  1.00  0.00    -0.320 N 
HETATM    3  C11 UNK     1      25.156  -8.304  38.370  1.00  0.00     0.262 C 
HETATM    4  H13 UNK     1      25.528  -9.116  36.496  1.00  0.00     0.169 HD
ENDROOT
BRANCH   2   5
HETATM    5  C8  UNK     1      23.539  -9.479  36.842  1.00  0.00     0.069 A 
HETATM    6  C6  UNK     1      22.403  -8.793  37.237  1.00  0.00     0.040 A 
HETATM    7  C2  UNK     1      21.148  -9.296  36.898  1.00  0.00    -0.048 A 
HETATM    8  C7  UNK     1      21.045 -10.479  36.166  1.00  0.00     0.011 A 
HETATM    9  C10 UNK     1      22.199 -11.159  35.775  1.00  0.00     0.039 A 
HETATM   10  C9  UNK     1      23.454 -10.656  36.114  1.00  0.00     0.095 A 
BRANCH   7  11
HETATM   11  C1  UNK     1      19.914  -8.570  37.316  1.00  0.00    -0.024 C 
HETATM   12  C3  UNK     1      18.984  -9.481  38.176  1.00  0.00     0.019 C 
HETATM   13  C4  UNK     1      19.092  -8.092  36.079  1.00  0.00     0.019 C 
HETATM   14  C5  UNK     1      20.151  -7.285  38.178  1.00  0.00     0.019 C 
ENDBRANCH   7  11
BRANCH  10  15
HETATM   15  O1  UNK     1      24.569 -11.335  35.723  1.00  0.00    -0.354 OA
HETATM   16  C18 UNK     1      24.697 -12.682  36.174  1.00  0.00     0.210 C 
ENDBRANCH  10  15
ENDBRANCH   2   5
BRANCH   3  17
HETATM   17  C12 UNK     1      26.568  -7.905  38.383  1.00  0.00     0.108 A 
HETATM   18  C14 UNK     1      26.812  -6.598  38.528  1.00  0.00     0.037 A 
HETATM   19  C13 UNK     1      28.179  -6.104  38.553  1.00  0.00    -0.001 A 
HETATM   20  C15 UNK     1      29.225  -7.013  38.421  1.00  0.00     0.089 A 
HETATM   21  C17 UNK     1      28.480  -4.749  38.702  1.00  0.00     0.014 A 
HETATM   22  O2  UNK     1      28.962  -8.389  38.267  1.00  0.00    -0.274 OA
HETATM   23  C19 UNK     1      30.558  -6.606  38.435  1.00  0.00     0.038 A 
HETATM   24  C16 UNK     1      27.664  -8.890  38.241  1.00  0.00     0.304 A 
HETATM   25  O4  UNK     1      27.445 -10.089  38.107  1.00  0.00    -0.259 OA
HETATM   26  C21 UNK     1      30.848  -5.252  38.586  1.00  0.00     0.003 A 
HETATM   27  C20 UNK     1      29.812  -4.325  38.719  1.00  0.00     0.001 A 
ENDBRANCH   3  17
TORSDOF 4
ENDMDL
MODEL 10
REMARK VINA RESULT:      -8.5      4.094      8.270
REMARK  4 active torsions:
REMARK  status: ('A' for Active; 'I' for Inactive)
REMARK    1  A    between atoms: C9_14  and  O1_1 
REMARK       I    between atoms: C11_16  and  N1_5 
REMARK    2  A    between atoms: C8_13  and  N1_5 
REMARK    3  A    between atoms: C1_6  and  C2_7 
REMARK    4  A    between atoms: C11_16  and  C12_17 
ROOT
HETATM    1  O3  UNK     1      16.512   0.796  34.065  1.00  0.00    -0.267 OA
HETATM    2  N1  UNK     1      18.778   0.624  34.686  1.00  0.00    -0.320 N 
HETATM    3  C11 UNK     1      17.702   1.082  33.937  1.00  0.00     0.262 C 
HETATM    4  H13 UNK     1      19.706   0.977  34.468  1.00  0.00     0.169 HD
ENDROOT
BRANCH   2   5
HETATM    5  C8  UNK     1      18.749  -0.279  35.776  1.00  0.00     0.069 A 
HETATM    6  C6  UNK     1      19.233  -1.564  35.588  1.00  0.00     0.040 A 
HETATM    7  C2  UNK     1      19.209  -2.465  36.652  1.00  0.00    -0.048 A 
HETATM    8  C7  UNK     1      18.701  -2.070  37.890  1.00  0.00     0.011 A 
HETATM    9  C10 UNK     1      18.217  -0.774  38.063  1.00  0.00     0.039 A 
HETATM   10  C9  UNK     1      18.241   0.128  36.999  1.00  0.00     0.095 A 
BRANCH   7  11
HETATM   11  C1  UNK     1      19.727  -3.851  36.467  1.00  0.00    -0.024 C 
HETATM   12  C3  UNK     1      20.871  -4.168  37.479  1.00  0.00     0.019 C 
HETATM   13  C4  UNK     1      20.300  -4.055  35.030  1.00  0.00     0.019 C 
HETATM   14  C5  UNK     1      18.673  -4.993  36.658  1.00  0.00     0.019 C 
ENDBRANCH   7  11
BRANCH  10  15
HETATM   15  O1  UNK     1      17.762   1.390  37.189  1.00  0.00    -0.354 OA
HETATM   16  C18 UNK     1      16.363   1.522  37.430  1.00  0.00     0.210 C 
ENDBRANCH  10  15
ENDBRANCH   2   5
BRANCH   3  17
HETATM   17  C12 UNK     1      18.118   2.015  32.884  1.00  0.00     0.108 A 
HETATM   18  C14 UNK     1      17.964   3.317  33.153  1.00  0.00     0.037 A 
HETATM   19  C13 UNK     1      18.347   4.319  32.172  1.00  0.00    -0.001 A 
HETATM   20  C15 UNK     1      18.874   3.902  30.953  1.00  0.00     0.089 A 
HETATM   21  C17 UNK     1      18.204   5.688  32.409  1.00  0.00     0.014 A 
HETATM   22  O2  UNK     1      19.033   2.530  30.675  1.00  0.00    -0.274 OA
HETATM   23  C19 UNK     1      19.260   4.811  29.970  1.00  0.00     0.038 A 
HETATM   24  C16 UNK     1      18.676   1.548  31.595  1.00  0.00     0.304 A 
HETATM   25  O4  UNK     1      18.819   0.356  31.344  1.00  0.00    -0.259 OA
HETATM   26  C21 UNK     1      19.114   6.174  30.216  1.00  0.00     0.003 A 
HETATM   27  C20 UNK     1      18.587   6.612  31.433  1.00  0.00     0.001 A 
ENDBRANCH   3  17
TORSDOF 4
ENDMDL
