MODEL 1
REMARK VINA RESULT:      -9.1      0.000      0.000
REMARK  1 active torsions:
REMARK  status: ('A' for Active; 'I' for Inactive)
REMARK       I    between atoms: C14_20  and  N1_5 
REMARK    1  A    between atoms: C14_20  and  C15_21 
ROOT
HETATM    1  O1  UNK     1      30.050  -4.276  37.989  1.00  0.00    -0.268 OA
HETATM    2  O2  UNK     1      32.943  -7.882  33.680  1.00  0.00    -0.267 OA
HETATM    3  N1  UNK     1      31.390  -6.864  35.120  1.00  0.00    -0.289 N 
HETATM    4  N2  UNK     1      31.758  -5.001  36.662  1.00  0.00    -0.330 N 
HETATM    5  C1  UNK     1      32.416  -6.045  35.860  1.00  0.00     0.116 C 
HETATM    6  C2  UNK     1      33.373  -5.303  34.878  1.00  0.00     0.054 C 
HETATM    7  C3  UNK     1      33.231  -6.969  36.803  1.00  0.00     0.054 C 
HETATM    8  C4  UNK     1      34.558  -4.621  35.568  1.00  0.00     0.004 C 
HETATM    9  C5  UNK     1      34.402  -6.256  37.481  1.00  0.00     0.004 C 
HETATM   10  C6  UNK     1      35.320  -5.587  36.467  1.00  0.00     0.000 C 
HETATM   11  C7  UNK     1      30.152  -7.080  35.769  1.00  0.00     0.029 C 
HETATM   12  C8  UNK     1      29.722  -6.294  36.780  1.00  0.00     0.033 C 
HETATM   13  C9  UNK     1      29.346  -8.318  35.399  1.00  0.00     0.058 C 
HETATM   14  C10 UNK     1      30.508  -5.103  37.205  1.00  0.00     0.251 C 
HETATM   15  C11 UNK     1      28.436  -6.514  37.544  1.00  0.00     0.046 C 
HETATM   16  C12 UNK     1      28.361  -8.773  36.479  1.00  0.00     0.006 C 
HETATM   17  C13 UNK     1      27.534  -7.594  36.957  1.00  0.00     0.005 C 
HETATM   18  C14 UNK     1      31.786  -7.606  33.994  1.00  0.00     0.266 C 
HETATM   19  H11 UNK     1      32.310  -4.203  36.957  1.00  0.00     0.165 HD
ENDROOT
BRANCH  18  20
HETATM   20  C15 UNK     1      30.700  -7.964  33.055  1.00  0.00     0.108 A 
HETATM   21  C16 UNK     1      29.949  -6.951  32.606  1.00  0.00     0.037 A 
HETATM   22  C18 UNK     1      28.857  -7.203  31.679  1.00  0.00    -0.001 A 
HETATM   23  C19 UNK     1      28.607  -8.509  31.271  1.00  0.00     0.089 A 
HETATM   24  C20 UNK     1      28.048  -6.176  31.185  1.00  0.00     0.014 A 
HETATM   25  O3  UNK     1      29.401  -9.571  31.747  1.00  0.00    -0.274 OA
HETATM   26  C21 UNK     1      27.576  -8.817  30.386  1.00  0.00     0.038 A 
HETATM   27  C17 UNK     1      30.453  -9.362  32.634  1.00  0.00     0.304 A 
HETATM   28  O4  UNK     1      31.138 -10.293  33.043  1.00  0.00    -0.259 OA
HETATM   29  C23 UNK     1      26.775  -7.788  29.897  1.00  0.00     0.003 A 
HETATM   30  C22 UNK     1      27.010  -6.470  30.296  1.00  0.00     0.001 A 
ENDBRANCH  18  20
TORSDOF 1
ENDMDL
MODEL 2
REMARK VINA RESULT:      -8.8      1.636      2.307
REMARK  1 active torsions:
REMARK  status: ('A' for Active; 'I' for Inactive)
REMARK       I    between atoms: C14_20  and  N1_5 
REMARK    1  A    between atoms: C14_20  and  C15_21 
ROOT
HETATM    1  O1  UNK     1      29.706  -5.286  37.475  1.00  0.00    -0.268 OA
HETATM    2  O2  UNK     1      33.509  -7.590  32.983  1.00  0.00    -0.267 OA
HETATM    3  N1  UNK     1      31.692  -7.086  34.386  1.00  0.00    -0.289 N 
HETATM    4  N2  UNK     1      31.618  -5.504  36.249  1.00  0.00    -0.330 N 
HETATM    5  C1  UNK     1      32.504  -6.278  35.364  1.00  0.00     0.116 C 
HETATM    6  C2  UNK     1      33.410  -5.239  34.637  1.00  0.00     0.054 C 
HETATM    7  C3  UNK     1      33.371  -7.232  36.227  1.00  0.00     0.054 C 
HETATM    8  C4  UNK     1      34.405  -4.531  35.562  1.00  0.00     0.004 C 
HETATM    9  C5  UNK     1      34.349  -6.494  37.145  1.00  0.00     0.004 C 
HETATM   10  C6  UNK     1      35.232  -5.526  36.368  1.00  0.00     0.000 C 
HETATM   11  C7  UNK     1      30.453  -7.592  34.844  1.00  0.00     0.029 C 
HETATM   12  C8  UNK     1      29.815  -7.075  35.916  1.00  0.00     0.033 C 
HETATM   13  C9  UNK     1      29.893  -8.844  34.181  1.00  0.00     0.058 C 
HETATM   14  C10 UNK     1      30.358  -5.882  36.622  1.00  0.00     0.251 C 
HETATM   15  C11 UNK     1      28.520  -7.613  36.479  1.00  0.00     0.046 C 
HETATM   16  C12 UNK     1      28.904  -9.627  35.050  1.00  0.00     0.006 C 
HETATM   17  C13 UNK     1      27.859  -8.686  35.621  1.00  0.00     0.005 C 
HETATM   18  C14 UNK     1      32.300  -7.545  33.204  1.00  0.00     0.266 C 
HETATM   19  H11 UNK     1      32.006  -4.702  36.736  1.00  0.00     0.165 HD
ENDROOT
BRANCH  18  20
HETATM   20  C15 UNK     1      31.371  -7.877  32.101  1.00  0.00     0.108 A 
HETATM   21  C16 UNK     1      31.402  -9.141  31.663  1.00  0.00     0.037 A 
HETATM   22  C18 UNK     1      30.525  -9.563  30.581  1.00  0.00    -0.001 A 
HETATM   23  C19 UNK     1      29.661  -8.633  30.013  1.00  0.00     0.089 A 
HETATM   24  C20 UNK     1      30.523 -10.872  30.092  1.00  0.00     0.014 A 
HETATM   25  O3  UNK     1      29.633  -7.304  30.479  1.00  0.00    -0.274 OA
HETATM   26  C21 UNK     1      28.797  -8.973  28.974  1.00  0.00     0.038 A 
HETATM   27  C17 UNK     1      30.459  -6.871  31.512  1.00  0.00     0.304 A 
HETATM   28  O4  UNK     1      30.428  -5.711  31.910  1.00  0.00    -0.259 OA
HETATM   29  C23 UNK     1      28.800 -10.281  28.493  1.00  0.00     0.003 A 
HETATM   30  C22 UNK     1      29.662 -11.228  29.050  1.00  0.00     0.001 A 
ENDBRANCH  18  20
TORSDOF 1
ENDMDL
MODEL 3
REMARK VINA RESULT:      -8.7      2.396      6.702
REMARK  1 active torsions:
REMARK  status: ('A' for Active; 'I' for Inactive)
REMARK       I    between atoms: C14_20  and  N1_5 
REMARK    1  A    between atoms: C14_20  and  C15_21 
ROOT
HETATM    1  O1  UNK     1      27.709  -9.225  29.278  1.00  0.00    -0.268 OA
HETATM    2  O2  UNK     1      31.948  -9.830  33.928  1.00  0.00    -0.267 OA
HETATM    3  N1  UNK     1      30.332  -9.047  32.411  1.00  0.00    -0.289 N 
HETATM    4  N2  UNK     1      29.193 -10.294  30.642  1.00  0.00    -0.330 N 
HETATM    5  C1  UNK     1      30.351 -10.283  31.551  1.00  0.00     0.116 C 
HETATM    6  C2  UNK     1      30.244 -11.581  32.409  1.00  0.00     0.054 C 
HETATM    7  C3  UNK     1      31.654 -10.306  30.709  1.00  0.00     0.054 C 
HETATM    8  C4  UNK     1      30.463 -12.870  31.611  1.00  0.00     0.004 C 
HETATM    9  C5  UNK     1      31.839 -11.603  29.919  1.00  0.00     0.004 C 
HETATM   10  C6  UNK     1      31.765 -12.829  30.819  1.00  0.00     0.000 C 
HETATM   11  C7  UNK     1      29.822  -7.865  31.825  1.00  0.00     0.029 C 
HETATM   12  C8  UNK     1      29.024  -7.887  30.736  1.00  0.00     0.033 C 
HETATM   13  C9  UNK     1      30.300  -6.524  32.366  1.00  0.00     0.058 C 
HETATM   14  C10 UNK     1      28.576  -9.179  30.147  1.00  0.00     0.251 C 
HETATM   15  C11 UNK     1      28.499  -6.653  30.038  1.00  0.00     0.046 C 
HETATM   16  C12 UNK     1      30.170  -5.363  31.376  1.00  0.00     0.006 C 
HETATM   17  C13 UNK     1      28.775  -5.348  30.777  1.00  0.00     0.005 C 
HETATM   18  C14 UNK     1      31.065  -9.034  33.611  1.00  0.00     0.266 C 
HETATM   19  H11 UNK     1      28.909 -11.180  30.237  1.00  0.00     0.165 HD
ENDROOT
BRANCH  18  20
HETATM   20  C15 UNK     1      30.625  -8.039  34.614  1.00  0.00     0.108 A 
HETATM   21  C16 UNK     1      31.477  -7.039  34.869  1.00  0.00     0.037 A 
HETATM   22  C18 UNK     1      31.132  -6.012  35.839  1.00  0.00    -0.001 A 
HETATM   23  C19 UNK     1      29.908  -6.088  36.494  1.00  0.00     0.089 A 
HETATM   24  C20 UNK     1      31.991  -4.951  36.137  1.00  0.00     0.014 A 
HETATM   25  O3  UNK     1      29.015  -7.142  36.221  1.00  0.00    -0.274 OA
HETATM   26  C21 UNK     1      29.518  -5.137  37.435  1.00  0.00     0.038 A 
HETATM   27  C17 UNK     1      29.316  -8.140  35.298  1.00  0.00     0.304 A 
HETATM   28  O4  UNK     1      28.532  -9.054  35.068  1.00  0.00    -0.259 OA
HETATM   29  C23 UNK     1      30.380  -4.081  37.726  1.00  0.00     0.003 A 
HETATM   30  C22 UNK     1      31.614  -3.988  37.078  1.00  0.00     0.001 A 
ENDBRANCH  18  20
TORSDOF 1
ENDMDL
MODEL 4
REMARK VINA RESULT:      -8.7      2.342      6.597
REMARK  1 active torsions:
REMARK  status: ('A' for Active; 'I' for Inactive)
REMARK       I    between atoms: C14_20  and  N1_5 
REMARK    1  A    between atoms: C14_20  and  C15_21 
ROOT
HETATM    1  O1  UNK     1      27.437  -8.750  30.087  1.00  0.00    -0.268 OA
HETATM    2  O2  UNK     1      32.055 -10.264  34.129  1.00  0.00    -0.267 OA
HETATM    3  N1  UNK     1      30.330  -9.193  32.943  1.00  0.00    -0.289 N 
HETATM    4  N2  UNK     1      29.010 -10.071  31.081  1.00  0.00    -0.330 N 
HETATM    5  C1  UNK     1      30.244 -10.242  31.865  1.00  0.00     0.116 C 
HETATM    6  C2  UNK     1      30.182 -11.679  32.466  1.00  0.00     0.054 C 
HETATM    7  C3  UNK     1      31.466 -10.112  30.919  1.00  0.00     0.054 C 
HETATM    8  C4  UNK     1      30.298 -12.793  31.421  1.00  0.00     0.004 C 
HETATM    9  C5  UNK     1      31.549 -11.234  29.882  1.00  0.00     0.004 C 
HETATM   10  C6  UNK     1      31.526 -12.610  30.536  1.00  0.00     0.000 C 
HETATM   11  C7  UNK     1      29.799  -7.918  32.642  1.00  0.00     0.029 C 
HETATM   12  C8  UNK     1      28.908  -7.726  31.645  1.00  0.00     0.033 C 
HETATM   13  C9  UNK     1      30.355  -6.708  33.382  1.00  0.00     0.058 C 
HETATM   14  C10 UNK     1      28.378  -8.877  30.865  1.00  0.00     0.251 C 
HETATM   15  C11 UNK     1      28.353  -6.377  31.246  1.00  0.00     0.046 C 
HETATM   16  C12 UNK     1      30.166  -5.379  32.647  1.00  0.00     0.006 C 
HETATM   17  C13 UNK     1      28.724  -5.240  32.191  1.00  0.00     0.005 C 
HETATM   18  C14 UNK     1      31.167  -9.416  34.051  1.00  0.00     0.266 C 
HETATM   19  H11 UNK     1      28.670 -10.860  30.542  1.00  0.00     0.165 HD
ENDROOT
BRANCH  18  20
HETATM   20  C15 UNK     1      30.841  -8.628  35.261  1.00  0.00     0.108 A 
HETATM   21  C16 UNK     1      29.614  -8.801  35.766  1.00  0.00     0.037 A 
HETATM   22  C18 UNK     1      29.201  -8.071  36.954  1.00  0.00    -0.001 A 
HETATM   23  C19 UNK     1      30.099  -7.193  37.552  1.00  0.00     0.089 A 
HETATM   24  C20 UNK     1      27.930  -8.220  37.515  1.00  0.00     0.014 A 
HETATM   25  O3  UNK     1      31.390  -7.016  37.016  1.00  0.00    -0.274 OA
HETATM   26  C21 UNK     1      29.765  -6.464  38.691  1.00  0.00     0.038 A 
HETATM   27  C17 UNK     1      31.814  -7.700  35.880  1.00  0.00     0.304 A 
HETATM   28  O4  UNK     1      32.940  -7.538  35.421  1.00  0.00    -0.259 OA
HETATM   29  C23 UNK     1      28.497  -6.619  39.245  1.00  0.00     0.003 A 
HETATM   30  C22 UNK     1      27.580  -7.496  38.658  1.00  0.00     0.001 A 
ENDBRANCH  18  20
TORSDOF 1
ENDMDL
MODEL 5
REMARK VINA RESULT:      -8.7      2.095      4.356
REMARK  1 active torsions:
REMARK  status: ('A' for Active; 'I' for Inactive)
REMARK       I    between atoms: C14_20  and  N1_5 
REMARK    1  A    between atoms: C14_20  and  C15_21 
ROOT
HETATM    1  O1  UNK     1      32.480  -6.687  38.304  1.00  0.00    -0.268 OA
HETATM    2  O2  UNK     1      27.515  -9.455  35.540  1.00  0.00    -0.267 OA
HETATM    3  N1  UNK     1      29.520  -8.318  36.001  1.00  0.00    -0.289 N 
HETATM    4  N2  UNK     1      30.545  -7.890  38.180  1.00  0.00    -0.330 N 
HETATM    5  C1  UNK     1      29.300  -8.266  37.490  1.00  0.00     0.116 C 
HETATM    6  C2  UNK     1      28.889  -9.658  38.059  1.00  0.00     0.054 C 
HETATM    7  C3  UNK     1      28.207  -7.214  37.815  1.00  0.00     0.054 C 
HETATM    8  C4  UNK     1      28.456  -9.624  39.528  1.00  0.00     0.004 C 
HETATM    9  C5  UNK     1      27.801  -7.199  39.290  1.00  0.00     0.004 C 
HETATM   10  C6  UNK     1      27.373  -8.579  39.772  1.00  0.00     0.000 C 
HETATM   11  C7  UNK     1      30.433  -7.387  35.454  1.00  0.00     0.029 C 
HETATM   12  C8  UNK     1      31.366  -6.765  36.208  1.00  0.00     0.033 C 
HETATM   13  C9  UNK     1      30.267  -6.980  33.996  1.00  0.00     0.058 C 
HETATM   14  C10 UNK     1      31.526  -7.099  37.649  1.00  0.00     0.251 C 
HETATM   15  C11 UNK     1      32.328  -5.723  35.685  1.00  0.00     0.046 C 
HETATM   16  C12 UNK     1      30.886  -5.624  33.647  1.00  0.00     0.006 C 
HETATM   17  C13 UNK     1      32.309  -5.553  34.170  1.00  0.00     0.005 C 
HETATM   18  C14 UNK     1      28.626  -9.051  35.201  1.00  0.00     0.266 C 
HETATM   19  H11 UNK     1      30.633  -8.111  39.166  1.00  0.00     0.165 HD
ENDROOT
BRANCH  18  20
HETATM   20  C15 UNK     1      29.151  -9.469  33.882  1.00  0.00     0.108 A 
HETATM   21  C16 UNK     1      28.513  -8.984  32.811  1.00  0.00     0.037 A 
HETATM   22  C18 UNK     1      28.956  -9.337  31.471  1.00  0.00    -0.001 A 
HETATM   23  C19 UNK     1      30.049 -10.185  31.325  1.00  0.00     0.089 A 
HETATM   24  C20 UNK     1      28.319  -8.854  30.325  1.00  0.00     0.014 A 
HETATM   25  O3  UNK     1      30.717 -10.691  32.456  1.00  0.00    -0.274 OA
HETATM   26  C21 UNK     1      30.522 -10.562  30.070  1.00  0.00     0.038 A 
HETATM   27  C17 UNK     1      30.317 -10.372  33.750  1.00  0.00     0.304 A 
HETATM   28  O4  UNK     1      30.905 -10.819  34.729  1.00  0.00    -0.259 OA
HETATM   29  C23 UNK     1      29.883 -10.075  28.932  1.00  0.00     0.003 A 
HETATM   30  C22 UNK     1      28.783  -9.223  29.059  1.00  0.00     0.001 A 
ENDBRANCH  18  20
TORSDOF 1
ENDMDL
MODEL 6
REMARK VINA RESULT:      -8.6      2.828      3.713
REMARK  1 active torsions:
REMARK  status: ('A' for Active; 'I' for Inactive)
REMARK       I    between atoms: C14_20  and  N1_5 
REMARK    1  A    between atoms: C14_20  and  C15_21 
ROOT
HETATM    1  O1  UNK     1      31.497  -9.179  37.092  1.00  0.00    -0.268 OA
HETATM    2  O2  UNK     1      33.934  -7.041  31.666  1.00  0.00    -0.267 OA
HETATM    3  N1  UNK     1      32.865  -8.299  33.340  1.00  0.00    -0.289 N 
HETATM    4  N2  UNK     1      32.522  -7.702  35.687  1.00  0.00    -0.330 N 
HETATM    5  C1  UNK     1      33.294  -7.400  34.470  1.00  0.00     0.116 C 
HETATM    6  C2  UNK     1      33.025  -5.899  34.144  1.00  0.00     0.054 C 
HETATM    7  C3  UNK     1      34.802  -7.620  34.762  1.00  0.00     0.054 C 
HETATM    8  C4  UNK     1      33.623  -4.927  35.165  1.00  0.00     0.004 C 
HETATM    9  C5  UNK     1      35.367  -6.638  35.790  1.00  0.00     0.004 C 
HETATM   10  C6  UNK     1      35.107  -5.191  35.393  1.00  0.00     0.000 C 
HETATM   11  C7  UNK     1      32.477  -9.615  33.679  1.00  0.00     0.029 C 
HETATM   12  C8  UNK     1      32.104  -9.956  34.931  1.00  0.00     0.033 C 
HETATM   13  C9  UNK     1      32.612 -10.705  32.623  1.00  0.00     0.058 C 
HETATM   14  C10 UNK     1      32.008  -8.928  36.003  1.00  0.00     0.251 C 
HETATM   15  C11 UNK     1      31.734 -11.358  35.359  1.00  0.00     0.046 C 
HETATM   16  C12 UNK     1      32.718 -12.122  33.192  1.00  0.00     0.006 C 
HETATM   17  C13 UNK     1      31.617 -12.355  34.211  1.00  0.00     0.005 C 
HETATM   18  C14 UNK     1      33.141  -7.914  32.016  1.00  0.00     0.266 C 
HETATM   19  H11 UNK     1      32.478  -6.997  36.415  1.00  0.00     0.165 HD
ENDROOT
BRANCH  18  20
HETATM   20  C15 UNK     1      32.293  -8.547  30.982  1.00  0.00     0.108 A 
HETATM   21  C16 UNK     1      30.974  -8.354  31.099  1.00  0.00     0.037 A 
HETATM   22  C18 UNK     1      30.059  -8.937  30.130  1.00  0.00    -0.001 A 
HETATM   23  C19 UNK     1      30.577  -9.695  29.086  1.00  0.00     0.089 A 
HETATM   24  C20 UNK     1      28.675  -8.762  30.215  1.00  0.00     0.014 A 
HETATM   25  O3  UNK     1      31.966  -9.894  28.967  1.00  0.00    -0.274 OA
HETATM   26  C21 UNK     1      29.754 -10.281  28.125  1.00  0.00     0.038 A 
HETATM   27  C17 UNK     1      32.867  -9.350  29.878  1.00  0.00     0.304 A 
HETATM   28  O4  UNK     1      34.075  -9.530  29.766  1.00  0.00    -0.259 OA
HETATM   29  C23 UNK     1      28.376 -10.100  28.216  1.00  0.00     0.003 A 
HETATM   30  C22 UNK     1      27.837  -9.342  29.258  1.00  0.00     0.001 A 
ENDBRANCH  18  20
TORSDOF 1
ENDMDL
MODEL 7
REMARK VINA RESULT:      -8.6      2.502      6.183
REMARK  1 active torsions:
REMARK  status: ('A' for Active; 'I' for Inactive)
REMARK       I    between atoms: C14_20  and  N1_5 
REMARK    1  A    between atoms: C14_20  and  C15_21 
ROOT
HETATM    1  O1  UNK     1      30.634  -9.782  31.194  1.00  0.00    -0.268 OA
HETATM    2  O2  UNK     1      34.670  -6.373  34.665  1.00  0.00    -0.267 OA
HETATM    3  N1  UNK     1      32.784  -7.212  33.540  1.00  0.00    -0.289 N 
HETATM    4  N2  UNK     1      32.602  -9.270  32.231  1.00  0.00    -0.330 N 
HETATM    5  C1  UNK     1      33.539  -8.297  32.815  1.00  0.00     0.116 C 
HETATM    6  C2  UNK     1      34.457  -9.102  33.783  1.00  0.00     0.054 C 
HETATM    7  C3  UNK     1      34.385  -7.665  31.678  1.00  0.00     0.054 C 
HETATM    8  C4  UNK     1      35.398 -10.080  33.073  1.00  0.00     0.004 C 
HETATM    9  C5  UNK     1      35.308  -8.669  30.984  1.00  0.00     0.004 C 
HETATM   10  C6  UNK     1      36.207  -9.392  31.979  1.00  0.00     0.000 C 
HETATM   11  C7  UNK     1      31.536  -6.827  32.998  1.00  0.00     0.029 C 
HETATM   12  C8  UNK     1      30.843  -7.618  32.151  1.00  0.00     0.033 C 
HETATM   13  C9  UNK     1      31.028  -5.419  33.281  1.00  0.00     0.058 C 
HETATM   14  C10 UNK     1      31.334  -8.981  31.810  1.00  0.00     0.251 C 
HETATM   15  C11 UNK     1      29.535  -7.231  31.501  1.00  0.00     0.046 C 
HETATM   16  C12 UNK     1      30.016  -4.898  32.257  1.00  0.00     0.006 C 
HETATM   17  C13 UNK     1      28.930  -5.934  32.028  1.00  0.00     0.005 C 
HETATM   18  C14 UNK     1      33.451  -6.444  34.511  1.00  0.00     0.266 C 
HETATM   19  H11 UNK     1      32.954 -10.191  31.989  1.00  0.00     0.165 HD
ENDROOT
BRANCH  18  20
HETATM   20  C15 UNK     1      32.578  -5.775  35.500  1.00  0.00     0.108 A 
HETATM   21  C16 UNK     1      31.744  -6.567  36.184  1.00  0.00     0.037 A 
HETATM   22  C18 UNK     1      30.846  -6.001  37.179  1.00  0.00    -0.001 A 
HETATM   23  C19 UNK     1      30.870  -4.628  37.404  1.00  0.00     0.089 A 
HETATM   24  C20 UNK     1      29.958  -6.789  37.915  1.00  0.00     0.014 A 
HETATM   25  O3  UNK     1      31.751  -3.800  36.682  1.00  0.00    -0.274 OA
HETATM   26  C21 UNK     1      30.035  -4.024  38.342  1.00  0.00     0.038 A 
HETATM   27  C17 UNK     1      32.621  -4.312  35.724  1.00  0.00     0.304 A 
HETATM   28  O4  UNK     1      33.384  -3.582  35.099  1.00  0.00    -0.259 OA
HETATM   29  C23 UNK     1      29.154  -4.818  39.073  1.00  0.00     0.003 A 
HETATM   30  C22 UNK     1      29.115  -6.198  38.860  1.00  0.00     0.001 A 
ENDBRANCH  18  20
TORSDOF 1
ENDMDL
MODEL 8
REMARK VINA RESULT:      -8.5      2.447      5.990
REMARK  1 active torsions:
REMARK  status: ('A' for Active; 'I' for Inactive)
REMARK       I    between atoms: C14_20  and  N1_5 
REMARK    1  A    between atoms: C14_20  and  C15_21 
ROOT
HETATM    1  O1  UNK     1      29.556  -9.706  29.846  1.00  0.00    -0.268 OA
HETATM    2  O2  UNK     1      33.530  -7.102  34.014  1.00  0.00    -0.267 OA
HETATM    3  N1  UNK     1      31.642  -7.776  32.787  1.00  0.00    -0.289 N 
HETATM    4  N2  UNK     1      31.551  -9.298  30.875  1.00  0.00    -0.330 N 
HETATM    5  C1  UNK     1      32.432  -8.451  31.695  1.00  0.00     0.116 C 
HETATM    6  C2  UNK     1      33.526  -9.396  32.279  1.00  0.00     0.054 C 
HETATM    7  C3  UNK     1      33.084  -7.374  30.789  1.00  0.00     0.054 C 
HETATM    8  C4  UNK     1      34.490  -9.950  31.225  1.00  0.00     0.004 C 
HETATM    9  C5  UNK     1      34.035  -7.961  29.744  1.00  0.00     0.004 C 
HETATM   10  C6  UNK     1      35.104  -8.839  30.381  1.00  0.00     0.000 C 
HETATM   11  C7  UNK     1      30.311  -7.409  32.483  1.00  0.00     0.029 C 
HETATM   12  C8  UNK     1      29.625  -7.966  31.461  1.00  0.00     0.033 C 
HETATM   13  C9  UNK     1      29.685  -6.254  33.253  1.00  0.00     0.058 C 
HETATM   14  C10 UNK     1      30.223  -9.063  30.653  1.00  0.00     0.251 C 
HETATM   15  C11 UNK     1      28.223  -7.570  31.060  1.00  0.00     0.046 C 
HETATM   16  C12 UNK     1      28.524  -5.569  32.527  1.00  0.00     0.006 C 
HETATM   17  C13 UNK     1      27.539  -6.611  32.028  1.00  0.00     0.005 C 
HETATM   18  C14 UNK     1      32.318  -7.284  33.918  1.00  0.00     0.266 C 
HETATM   19  H11 UNK     1      31.975 -10.032  30.317  1.00  0.00     0.165 HD
ENDROOT
BRANCH  18  20
HETATM   20  C15 UNK     1      31.482  -7.100  35.125  1.00  0.00     0.108 A 
HETATM   21  C16 UNK     1      31.421  -5.857  35.618  1.00  0.00     0.037 A 
HETATM   22  C18 UNK     1      30.624  -5.577  36.802  1.00  0.00    -0.001 A 
HETATM   23  C19 UNK     1      29.933  -6.619  37.411  1.00  0.00     0.089 A 
HETATM   24  C20 UNK     1      30.531  -4.295  37.350  1.00  0.00     0.014 A 
HETATM   25  O3  UNK     1      30.001  -7.925  36.888  1.00  0.00    -0.274 OA
HETATM   26  C21 UNK     1      29.153  -6.417  38.548  1.00  0.00     0.038 A 
HETATM   27  C17 UNK     1      30.755  -8.224  35.756  1.00  0.00     0.304 A 
HETATM   28  O4  UNK     1      30.808  -9.365  35.309  1.00  0.00    -0.259 OA
HETATM   29  C23 UNK     1      29.065  -5.136  39.088  1.00  0.00     0.003 A 
HETATM   30  C22 UNK     1      29.753  -4.076  38.491  1.00  0.00     0.001 A 
ENDBRANCH  18  20
TORSDOF 1
ENDMDL
MODEL 9
REMARK VINA RESULT:      -8.4      2.443      4.836
REMARK  1 active torsions:
REMARK  status: ('A' for Active; 'I' for Inactive)
REMARK       I    between atoms: C14_20  and  N1_5 
REMARK    1  A    between atoms: C14_20  and  C15_21 
ROOT
HETATM    1  O1  UNK     1      33.308  -7.594  38.331  1.00  0.00    -0.268 OA
HETATM    2  O2  UNK     1      28.366  -6.739  34.484  1.00  0.00    -0.267 OA
HETATM    3  N1  UNK     1      30.504  -6.814  35.457  1.00  0.00    -0.289 N 
HETATM    4  N2  UNK     1      31.139  -7.732  37.633  1.00  0.00    -0.330 N 
HETATM    5  C1  UNK     1      30.015  -7.256  36.811  1.00  0.00     0.116 C 
HETATM    6  C2  UNK     1      29.020  -8.451  36.700  1.00  0.00     0.054 C 
HETATM    7  C3  UNK     1      29.334  -6.061  37.530  1.00  0.00     0.054 C 
HETATM    8  C4  UNK     1      28.334  -8.811  38.022  1.00  0.00     0.004 C 
HETATM    9  C5  UNK     1      28.665  -6.452  38.849  1.00  0.00     0.004 C 
HETATM   10  C6  UNK     1      27.677  -7.596  38.665  1.00  0.00     0.000 C 
HETATM   11  C7  UNK     1      31.785  -6.217  35.401  1.00  0.00     0.029 C 
HETATM   12  C8  UNK     1      32.701  -6.384  36.378  1.00  0.00     0.033 C 
HETATM   13  C9  UNK     1      32.083  -5.249  34.263  1.00  0.00     0.058 C 
HETATM   14  C10 UNK     1      32.427  -7.283  37.533  1.00  0.00     0.251 C 
HETATM   15  C11 UNK     1      34.061  -5.724  36.394  1.00  0.00     0.046 C 
HETATM   16  C12 UNK     1      33.208  -4.255  34.562  1.00  0.00     0.006 C 
HETATM   17  C13 UNK     1      34.419  -4.991  35.107  1.00  0.00     0.005 C 
HETATM   18  C14 UNK     1      29.592  -6.737  34.389  1.00  0.00     0.266 C 
HETATM   19  H11 UNK     1      30.935  -8.331  38.426  1.00  0.00     0.165 HD
ENDROOT
BRANCH  18  20
HETATM   20  C15 UNK     1      30.192  -6.789  33.038  1.00  0.00     0.108 A 
HETATM   21  C16 UNK     1      30.982  -7.838  32.781  1.00  0.00     0.037 A 
HETATM   22  C18 UNK     1      31.617  -7.977  31.480  1.00  0.00    -0.001 A 
HETATM   23  C19 UNK     1      31.390  -7.004  30.512  1.00  0.00     0.089 A 
HETATM   24  C20 UNK     1      32.450  -9.055  31.169  1.00  0.00     0.014 A 
HETATM   25  O3  UNK     1      30.556  -5.903  30.788  1.00  0.00    -0.274 OA
HETATM   26  C21 UNK     1      31.968  -7.078  29.247  1.00  0.00     0.038 A 
HETATM   27  C17 UNK     1      29.935  -5.742  32.023  1.00  0.00     0.304 A 
HETATM   28  O4  UNK     1      29.211  -4.779  32.253  1.00  0.00    -0.259 OA
HETATM   29  C23 UNK     1      32.797  -8.156  28.944  1.00  0.00     0.003 A 
HETATM   30  C22 UNK     1      33.037  -9.143  29.904  1.00  0.00     0.001 A 
ENDBRANCH  18  20
TORSDOF 1
ENDMDL
MODEL 10
REMARK VINA RESULT:      -8.4      2.481      6.303
REMARK  1 active torsions:
REMARK  status: ('A' for Active; 'I' for Inactive)
REMARK       I    between atoms: C14_20  and  N1_5 
REMARK    1  A    between atoms: C14_20  and  C15_21 
ROOT
HETATM    1  O1  UNK     1      29.653  -4.529  31.077  1.00  0.00    -0.268 OA
HETATM    2  O2  UNK     1      29.440 -10.610  32.786  1.00  0.00    -0.267 OA
HETATM    3  N1  UNK     1      29.733  -8.280  32.705  1.00  0.00    -0.289 N 
HETATM    4  N2  UNK     1      29.182  -6.753  30.876  1.00  0.00    -0.330 N 
HETATM    5  C1  UNK     1      29.417  -8.160  31.237  1.00  0.00     0.116 C 
HETATM    6  C2  UNK     1      28.113  -8.929  30.866  1.00  0.00     0.054 C 
HETATM    7  C3  UNK     1      30.611  -8.702  30.407  1.00  0.00     0.054 C 
HETATM    8  C4  UNK     1      27.853  -9.015  29.358  1.00  0.00     0.004 C 
HETATM    9  C5  UNK     1      30.322  -8.767  28.906  1.00  0.00     0.004 C 
HETATM   10  C6  UNK     1      29.060  -9.566  28.608  1.00  0.00     0.000 C 
HETATM   11  C7  UNK     1      30.459  -7.218  33.294  1.00  0.00     0.029 C 
HETATM   12  C8  UNK     1      30.523  -5.991  32.734  1.00  0.00     0.033 C 
HETATM   13  C9  UNK     1      31.298  -7.514  34.530  1.00  0.00     0.058 C 
HETATM   14  C10 UNK     1      29.756  -5.679  31.497  1.00  0.00     0.251 C 
HETATM   15  C11 UNK     1      31.329  -4.841  33.291  1.00  0.00     0.046 C 
HETATM   16  C12 UNK     1      32.443  -6.525  34.763  1.00  0.00     0.006 C 
HETATM   17  C13 UNK     1      31.925  -5.101  34.670  1.00  0.00     0.005 C 
HETATM   18  C14 UNK     1      29.567  -9.522  33.344  1.00  0.00     0.266 C 
HETATM   19  H11 UNK     1      28.671  -6.555  30.022  1.00  0.00     0.165 HD
ENDROOT
BRANCH  18  20
HETATM   20  C15 UNK     1      29.409  -9.463  34.814  1.00  0.00     0.108 A 
HETATM   21  C16 UNK     1      28.299  -8.867  35.265  1.00  0.00     0.037 A 
HETATM   22  C18 UNK     1      28.054  -8.761  36.696  1.00  0.00    -0.001 A 
HETATM   23  C19 UNK     1      28.991  -9.287  37.580  1.00  0.00     0.089 A 
HETATM   24  C20 UNK     1      26.911  -8.147  37.211  1.00  0.00     0.014 A 
HETATM   25  O3  UNK     1      30.156  -9.914  37.098  1.00  0.00    -0.274 OA
HETATM   26  C21 UNK     1      28.816  -9.218  38.960  1.00  0.00     0.038 A 
HETATM   27  C17 UNK     1      30.418 -10.031  35.736  1.00  0.00     0.304 A 
HETATM   28  O4  UNK     1      31.437 -10.578  35.326  1.00  0.00    -0.259 OA
HETATM   29  C23 UNK     1      27.672  -8.605  39.467  1.00  0.00     0.003 A 
HETATM   30  C22 UNK     1      26.721  -8.070  38.594  1.00  0.00     0.001 A 
ENDBRANCH  18  20
TORSDOF 1
ENDMDL
