MODEL 1
REMARK VINA RESULT:      -9.0      0.000      0.000
REMARK  1 active torsions:
REMARK  status: ('A' for Active; 'I' for Inactive)
REMARK    1  A    between atoms: C7_11  and  N1_4 
ROOT
HETATM    1  O1  UNK     1      18.656   3.532  29.250  1.00  0.00    -0.331 OA
HETATM    2  O2  UNK     1      18.772   0.626  33.093  1.00  0.00    -0.274 OA
HETATM    3  O3  UNK     1      18.819  -0.765  34.907  1.00  0.00    -0.260 OA
HETATM    4  N1  UNK     1      18.102   4.500  31.415  1.00  0.00    -0.354 N 
HETATM    5  C1  UNK     1      18.132   3.191  32.070  1.00  0.00     0.169 C 
HETATM    6  C2  UNK     1      18.720   2.112  31.201  1.00  0.00     0.028 A 
HETATM    7  C3  UNK     1      18.931   2.332  29.842  1.00  0.00     0.081 A 
HETATM    8  C4  UNK     1      19.006   0.835  31.714  1.00  0.00     0.101 A 
HETATM    9  C5  UNK     1      18.798   4.650  30.140  1.00  0.00     0.301 C 
HETATM   10  C6  UNK     1      19.493  -0.207  30.919  1.00  0.00     0.005 A 
HETATM   11  C8  UNK     1      19.393   1.307  29.018  1.00  0.00     0.038 A 
HETATM   12  C9  UNK     1      19.680   0.049  29.554  1.00  0.00     0.017 A 
HETATM   13  C10 UNK     1      19.773  -1.507  31.543  1.00  0.00    -0.043 A 
HETATM   14  C13 UNK     1      19.546  -1.663  32.855  1.00  0.00     0.090 A 
HETATM   15  C14 UNK     1      19.022  -0.588  33.711  1.00  0.00     0.288 A 
HETATM   16  C15 UNK     1      20.308  -2.637  30.712  1.00  0.00     0.049 C 
ENDROOT
BRANCH   4  17
HETATM   17  C7  UNK     1      17.742   5.624  32.171  1.00  0.00     0.032 A 
HETATM   18  C11 UNK     1      17.378   6.841  31.551  1.00  0.00     0.030 A 
HETATM   19  C16 UNK     1      17.020   7.959  32.304  1.00  0.00     0.009 A 
HETATM   20  C18 UNK     1      17.016   7.891  33.697  1.00  0.00    -0.062 A 
HETATM   21  C17 UNK     1      17.371   6.703  34.337  1.00  0.00     0.009 A 
HETATM   22  C19 UNK     1      16.634   9.086  34.502  1.00  0.00     0.048 C 
HETATM   23  C12 UNK     1      17.729   5.584  33.585  1.00  0.00     0.030 A 
ENDBRANCH   4  17
TORSDOF 1
ENDMDL
MODEL 2
REMARK VINA RESULT:      -8.6      2.808      7.956
REMARK  1 active torsions:
REMARK  status: ('A' for Active; 'I' for Inactive)
REMARK    1  A    between atoms: C7_11  and  N1_4 
ROOT
HETATM    1  O1  UNK     1      20.137   6.189  32.678  1.00  0.00    -0.331 OA
HETATM    2  O2  UNK     1      15.352   6.766  32.628  1.00  0.00    -0.274 OA
HETATM    3  O3  UNK     1      13.083   7.045  32.621  1.00  0.00    -0.260 OA
HETATM    4  N1  UNK     1      18.814   4.551  31.452  1.00  0.00    -0.354 N 
HETATM    5  C1  UNK     1      17.556   5.124  31.936  1.00  0.00     0.169 C 
HETATM    6  C2  UNK     1      17.738   6.455  32.615  1.00  0.00     0.028 A 
HETATM    7  C3  UNK     1      19.009   6.904  32.964  1.00  0.00     0.081 A 
HETATM    8  C4  UNK     1      16.636   7.247  32.978  1.00  0.00     0.101 A 
HETATM    9  C5  UNK     1      20.013   5.384  31.494  1.00  0.00     0.301 C 
HETATM   10  C6  UNK     1      16.769   8.456  33.666  1.00  0.00     0.005 A 
HETATM   11  C8  UNK     1      19.174   8.095  33.671  1.00  0.00     0.038 A 
HETATM   12  C9  UNK     1      18.062   8.869  34.012  1.00  0.00     0.017 A 
HETATM   13  C10 UNK     1      15.560   9.223  33.997  1.00  0.00    -0.043 A 
HETATM   14  C13 UNK     1      14.362   8.739  33.639  1.00  0.00     0.090 A 
HETATM   15  C14 UNK     1      14.194   7.463  32.928  1.00  0.00     0.288 A 
HETATM   16  C15 UNK     1      15.678  10.531  34.725  1.00  0.00     0.049 C 
ENDROOT
BRANCH   4  17
HETATM   17  C7  UNK     1      18.768   3.403  30.650  1.00  0.00     0.032 A 
HETATM   18  C11 UNK     1      18.264   3.449  29.330  1.00  0.00     0.030 A 
HETATM   19  C16 UNK     1      18.218   2.306  28.532  1.00  0.00     0.009 A 
HETATM   20  C18 UNK     1      18.674   1.086  29.033  1.00  0.00    -0.062 A 
HETATM   21  C17 UNK     1      19.175   1.010  30.333  1.00  0.00     0.009 A 
HETATM   22  C19 UNK     1      18.624  -0.137  28.180  1.00  0.00     0.048 C 
HETATM   23  C12 UNK     1      19.222   2.153  31.130  1.00  0.00     0.030 A 
ENDBRANCH   4  17
TORSDOF 1
ENDMDL
MODEL 3
REMARK VINA RESULT:      -8.5     11.162     14.621
REMARK  1 active torsions:
REMARK  status: ('A' for Active; 'I' for Inactive)
REMARK    1  A    between atoms: C7_11  and  N1_4 
ROOT
HETATM    1  O1  UNK     1      22.423  -8.372  40.018  1.00  0.00    -0.331 OA
HETATM    2  O2  UNK     1      21.339  -7.676  35.374  1.00  0.00    -0.274 OA
HETATM    3  O3  UNK     1      20.810  -7.355  33.173  1.00  0.00    -0.260 OA
HETATM    4  N1  UNK     1      24.237  -8.523  38.399  1.00  0.00    -0.354 N 
HETATM    5  C1  UNK     1      23.312  -8.415  37.270  1.00  0.00     0.169 C 
HETATM    6  C2  UNK     1      21.922  -8.012  37.684  1.00  0.00     0.028 A 
HETATM    7  C3  UNK     1      21.549  -8.031  39.026  1.00  0.00     0.081 A 
HETATM    8  C4  UNK     1      20.945  -7.675  36.733  1.00  0.00     0.101 A 
HETATM    9  C5  UNK     1      23.788  -8.052  39.707  1.00  0.00     0.301 C 
HETATM   10  C6  UNK     1      19.628  -7.358  37.082  1.00  0.00     0.005 A 
HETATM   11  C8  UNK     1      20.238  -7.742  39.405  1.00  0.00     0.038 A 
HETATM   12  C9  UNK     1      19.287  -7.400  38.439  1.00  0.00     0.017 A 
HETATM   13  C10 UNK     1      18.675  -7.009  36.019  1.00  0.00    -0.043 A 
HETATM   14  C13 UNK     1      19.090  -7.012  34.745  1.00  0.00     0.090 A 
HETATM   15  C14 UNK     1      20.464  -7.355  34.350  1.00  0.00     0.288 A 
HETATM   16  C15 UNK     1      17.260  -6.653  36.370  1.00  0.00     0.049 C 
ENDROOT
BRANCH   4  17
HETATM   17  C7  UNK     1      25.600  -8.720  38.138  1.00  0.00     0.032 A 
HETATM   18  C11 UNK     1      26.590  -8.337  39.072  1.00  0.00     0.030 A 
HETATM   19  C16 UNK     1      27.946  -8.533  38.812  1.00  0.00     0.009 A 
HETATM   20  C18 UNK     1      28.349  -9.116  37.611  1.00  0.00    -0.062 A 
HETATM   21  C17 UNK     1      27.394  -9.504  36.669  1.00  0.00     0.009 A 
HETATM   22  C19 UNK     1      29.799  -9.326  37.331  1.00  0.00     0.048 C 
HETATM   23  C12 UNK     1      26.038  -9.309  36.930  1.00  0.00     0.030 A 
ENDBRANCH   4  17
TORSDOF 1
ENDMDL
MODEL 4
REMARK VINA RESULT:      -8.4     13.422     15.488
REMARK  1 active torsions:
REMARK  status: ('A' for Active; 'I' for Inactive)
REMARK    1  A    between atoms: C7_11  and  N1_4 
ROOT
HETATM    1  O1  UNK     1      27.071  -9.909  37.402  1.00  0.00    -0.331 OA
HETATM    2  O2  UNK     1      28.399  -5.557  38.990  1.00  0.00    -0.274 OA
HETATM    3  O3  UNK     1      29.041  -3.499  39.752  1.00  0.00    -0.260 OA
HETATM    4  N1  UNK     1      25.313  -8.388  38.129  1.00  0.00    -0.354 N 
HETATM    5  C1  UNK     1      26.287  -7.412  38.623  1.00  0.00     0.169 C 
HETATM    6  C2  UNK     1      27.696  -7.714  38.187  1.00  0.00     0.028 A 
HETATM    7  C3  UNK     1      28.014  -8.946  37.622  1.00  0.00     0.081 A 
HETATM    8  C4  UNK     1      28.739  -6.797  38.401  1.00  0.00     0.101 A 
HETATM    9  C5  UNK     1      25.762  -9.376  37.151  1.00  0.00     0.301 C 
HETATM   10  C6  UNK     1      30.068  -7.074  38.066  1.00  0.00     0.005 A 
HETATM   11  C8  UNK     1      29.333  -9.261  37.298  1.00  0.00     0.038 A 
HETATM   12  C9  UNK     1      30.352  -8.328  37.511  1.00  0.00     0.017 A 
HETATM   13  C10 UNK     1      31.093  -6.051  38.317  1.00  0.00    -0.043 A 
HETATM   14  C13 UNK     1      30.728  -4.885  38.868  1.00  0.00     0.090 A 
HETATM   15  C14 UNK     1      29.340  -4.574  39.243  1.00  0.00     0.288 A 
HETATM   16  C15 UNK     1      32.524  -6.320  37.955  1.00  0.00     0.049 C 
ENDROOT
BRANCH   4  17
HETATM   17  C7  UNK     1      23.948  -8.131  38.314  1.00  0.00     0.032 A 
HETATM   18  C11 UNK     1      23.491  -7.315  39.374  1.00  0.00     0.030 A 
HETATM   19  C16 UNK     1      22.132  -7.060  39.557  1.00  0.00     0.009 A 
HETATM   20  C18 UNK     1      21.194  -7.614  38.687  1.00  0.00    -0.062 A 
HETATM   21  C17 UNK     1      21.616  -8.425  37.632  1.00  0.00     0.009 A 
HETATM   22  C19 UNK     1      19.741  -7.342  38.883  1.00  0.00     0.048 C 
HETATM   23  C12 UNK     1      22.974  -8.679  37.448  1.00  0.00     0.030 A 
ENDBRANCH   4  17
TORSDOF 1
ENDMDL
MODEL 5
REMARK VINA RESULT:      -8.3      3.473      8.814
REMARK  1 active torsions:
REMARK  status: ('A' for Active; 'I' for Inactive)
REMARK    1  A    between atoms: C7_11  and  N1_4 
ROOT
HETATM    1  O1  UNK     1      20.680   7.223  33.528  1.00  0.00    -0.331 OA
HETATM    2  O2  UNK     1      16.252   9.048  32.988  1.00  0.00    -0.274 OA
HETATM    3  O3  UNK     1      14.151   9.918  32.747  1.00  0.00    -0.260 OA
HETATM    4  N1  UNK     1      19.093   5.957  32.182  1.00  0.00    -0.354 N 
HETATM    5  C1  UNK     1      17.994   6.858  32.532  1.00  0.00     0.169 C 
HETATM    6  C2  UNK     1      18.457   8.114  33.220  1.00  0.00     0.028 A 
HETATM    7  C3  UNK     1      19.762   8.221  33.695  1.00  0.00     0.081 A 
HETATM    8  C4  UNK     1      17.577   9.181  33.465  1.00  0.00     0.101 A 
HETATM    9  C5  UNK     1      20.461   6.443  32.342  1.00  0.00     0.301 C 
HETATM   10  C6  UNK     1      17.961  10.333  34.158  1.00  0.00     0.005 A 
HETATM   11  C8  UNK     1      20.170   9.347  34.410  1.00  0.00     0.038 A 
HETATM   12  C9  UNK     1      19.277  10.399  34.632  1.00  0.00     0.017 A 
HETATM   13  C10 UNK     1      16.974  11.403  34.360  1.00  0.00    -0.043 A 
HETATM   14  C13 UNK     1      15.732  11.243  33.884  1.00  0.00     0.090 A 
HETATM   15  C14 UNK     1      15.299  10.036  33.164  1.00  0.00     0.288 A 
HETATM   16  C15 UNK     1      17.367  12.655  35.089  1.00  0.00     0.049 C 
ENDROOT
BRANCH   4  17
HETATM   17  C7  UNK     1      18.820   4.837  31.384  1.00  0.00     0.032 A 
HETATM   18  C11 UNK     1      18.268   3.659  31.937  1.00  0.00     0.030 A 
HETATM   19  C16 UNK     1      17.997   2.545  31.144  1.00  0.00     0.009 A 
HETATM   20  C18 UNK     1      18.269   2.579  29.776  1.00  0.00    -0.062 A 
HETATM   21  C17 UNK     1      18.814   3.728  29.203  1.00  0.00     0.009 A 
HETATM   22  C19 UNK     1      17.979   1.387  28.927  1.00  0.00     0.048 C 
HETATM   23  C12 UNK     1      19.086   4.842  29.996  1.00  0.00     0.030 A 
ENDBRANCH   4  17
TORSDOF 1
ENDMDL
MODEL 6
REMARK VINA RESULT:      -8.1     14.575     16.233
REMARK  1 active torsions:
REMARK  status: ('A' for Active; 'I' for Inactive)
REMARK    1  A    between atoms: C7_11  and  N1_4 
ROOT
HETATM    1  O1  UNK     1      32.024  -5.805  33.601  1.00  0.00    -0.331 OA
HETATM    2  O2  UNK     1      28.227  -6.769  36.409  1.00  0.00    -0.274 OA
HETATM    3  O3  UNK     1      26.437  -7.229  37.755  1.00  0.00    -0.260 OA
HETATM    4  N1  UNK     1      30.268  -7.221  32.681  1.00  0.00    -0.354 N 
HETATM    5  C1  UNK     1      29.568  -7.282  33.965  1.00  0.00     0.169 C 
HETATM    6  C2  UNK     1      30.098  -6.296  34.971  1.00  0.00     0.028 A 
HETATM    7  C3  UNK     1      31.299  -5.630  34.746  1.00  0.00     0.081 A 
HETATM    8  C4  UNK     1      29.439  -6.072  36.192  1.00  0.00     0.101 A 
HETATM    9  C5  UNK     1      31.213  -6.129  32.460  1.00  0.00     0.301 C 
HETATM   10  C6  UNK     1      29.939  -5.212  37.174  1.00  0.00     0.005 A 
HETATM   11  C8  UNK     1      31.837  -4.783  35.715  1.00  0.00     0.038 A 
HETATM   12  C9  UNK     1      31.157  -4.569  36.916  1.00  0.00     0.017 A 
HETATM   13  C10 UNK     1      29.177  -5.031  38.417  1.00  0.00    -0.043 A 
HETATM   14  C13 UNK     1      28.029  -5.703  38.581  1.00  0.00     0.090 A 
HETATM   15  C14 UNK     1      27.488  -6.624  37.571  1.00  0.00     0.288 A 
HETATM   16  C15 UNK     1      29.688  -4.103  39.481  1.00  0.00     0.049 C 
ENDROOT
BRANCH   4  17
HETATM   17  C7  UNK     1      29.764  -7.960  31.602  1.00  0.00     0.032 A 
HETATM   18  C11 UNK     1      30.619  -8.701  30.755  1.00  0.00     0.030 A 
HETATM   19  C16 UNK     1      30.117  -9.436  29.681  1.00  0.00     0.009 A 
HETATM   20  C18 UNK     1      28.746  -9.450  29.426  1.00  0.00    -0.062 A 
HETATM   21  C17 UNK     1      27.877  -8.728  30.245  1.00  0.00     0.009 A 
HETATM   22  C19 UNK     1      28.208 -10.235  28.278  1.00  0.00     0.048 C 
HETATM   23  C12 UNK     1      28.379  -7.993  31.318  1.00  0.00     0.030 A 
ENDBRANCH   4  17
TORSDOF 1
ENDMDL
MODEL 7
REMARK VINA RESULT:      -8.1     14.594     16.245
REMARK  1 active torsions:
REMARK  status: ('A' for Active; 'I' for Inactive)
REMARK    1  A    between atoms: C7_11  and  N1_4 
ROOT
HETATM    1  O1  UNK     1      32.031  -5.800  33.606  1.00  0.00    -0.331 OA
HETATM    2  O2  UNK     1      28.235  -6.786  36.408  1.00  0.00    -0.274 OA
HETATM    3  O3  UNK     1      26.445  -7.256  37.750  1.00  0.00    -0.260 OA
HETATM    4  N1  UNK     1      30.285  -7.225  32.682  1.00  0.00    -0.354 N 
HETATM    5  C1  UNK     1      29.583  -7.290  33.965  1.00  0.00     0.169 C 
HETATM    6  C2  UNK     1      30.105  -6.302  34.973  1.00  0.00     0.028 A 
HETATM    7  C3  UNK     1      31.303  -5.628  34.750  1.00  0.00     0.081 A 
HETATM    8  C4  UNK     1      29.443  -6.082  36.193  1.00  0.00     0.101 A 
HETATM    9  C5  UNK     1      31.224  -6.128  32.464  1.00  0.00     0.301 C 
HETATM   10  C6  UNK     1      29.937  -5.219  37.175  1.00  0.00     0.005 A 
HETATM   11  C8  UNK     1      31.835  -4.779  35.719  1.00  0.00     0.038 A 
HETATM   12  C9  UNK     1      31.151  -4.569  36.920  1.00  0.00     0.017 A 
HETATM   13  C10 UNK     1      29.172  -5.043  38.418  1.00  0.00    -0.043 A 
HETATM   14  C13 UNK     1      28.027  -5.721  38.580  1.00  0.00     0.090 A 
HETATM   15  C14 UNK     1      27.493  -6.645  37.568  1.00  0.00     0.288 A 
HETATM   16  C15 UNK     1      29.675  -4.112  39.482  1.00  0.00     0.049 C 
ENDROOT
BRANCH   4  17
HETATM   17  C7  UNK     1      29.786  -7.967  31.602  1.00  0.00     0.032 A 
HETATM   18  C11 UNK     1      28.402  -8.015  31.322  1.00  0.00     0.030 A 
HETATM   19  C16 UNK     1      27.906  -8.753  30.247  1.00  0.00     0.009 A 
HETATM   20  C18 UNK     1      28.781  -9.463  29.425  1.00  0.00    -0.062 A 
HETATM   21  C17 UNK     1      30.153  -9.434  29.678  1.00  0.00     0.009 A 
HETATM   22  C19 UNK     1      28.251 -10.253  28.276  1.00  0.00     0.048 C 
HETATM   23  C12 UNK     1      30.649  -8.696  30.752  1.00  0.00     0.030 A 
ENDBRANCH   4  17
TORSDOF 1
ENDMDL
MODEL 8
REMARK VINA RESULT:      -8.1      2.489      3.650
REMARK  1 active torsions:
REMARK  status: ('A' for Active; 'I' for Inactive)
REMARK    1  A    between atoms: C7_11  and  N1_4 
ROOT
HETATM    1  O1  UNK     1      18.290   2.072  32.013  1.00  0.00    -0.331 OA
HETATM    2  O2  UNK     1      17.981   1.557  36.795  1.00  0.00    -0.274 OA
HETATM    3  O3  UNK     1      17.823   1.300  39.061  1.00  0.00    -0.260 OA
HETATM    4  N1  UNK     1      18.174   4.097  33.362  1.00  0.00    -0.354 N 
HETATM    5  C1  UNK     1      17.927   3.333  34.586  1.00  0.00     0.169 C 
HETATM    6  C2  UNK     1      18.152   1.855  34.413  1.00  0.00     0.028 A 
HETATM    7  C3  UNK     1      18.301   1.304  33.143  1.00  0.00     0.081 A 
HETATM    8  C4  UNK     1      18.148   0.981  35.514  1.00  0.00     0.101 A 
HETATM    9  C5  UNK     1      18.780   3.405  32.227  1.00  0.00     0.301 C 
HETATM   10  C6  UNK     1      18.291  -0.403  35.380  1.00  0.00     0.005 A 
HETATM   11  C8  UNK     1      18.422  -0.075  32.974  1.00  0.00     0.038 A 
HETATM   12  C9  UNK     1      18.426  -0.921  34.086  1.00  0.00     0.017 A 
HETATM   13  C10 UNK     1      18.284  -1.239  36.588  1.00  0.00    -0.043 A 
HETATM   14  C13 UNK     1      18.132  -0.655  37.785  1.00  0.00     0.090 A 
HETATM   15  C14 UNK     1      17.967   0.797  37.952  1.00  0.00     0.288 A 
HETATM   16  C15 UNK     1      18.448  -2.727  36.471  1.00  0.00     0.049 C 
ENDROOT
BRANCH   4  17
HETATM   17  C7  UNK     1      18.171   5.497  33.428  1.00  0.00     0.032 A 
HETATM   18  C11 UNK     1      19.280   6.210  33.940  1.00  0.00     0.030 A 
HETATM   19  C16 UNK     1      19.276   7.603  34.006  1.00  0.00     0.009 A 
HETATM   20  C18 UNK     1      18.165   8.320  33.563  1.00  0.00    -0.062 A 
HETATM   21  C17 UNK     1      17.056   7.643  33.054  1.00  0.00     0.009 A 
HETATM   22  C19 UNK     1      18.160   9.810  33.634  1.00  0.00     0.048 C 
HETATM   23  C12 UNK     1      17.059   6.250  32.987  1.00  0.00     0.030 A 
ENDBRANCH   4  17
TORSDOF 1
ENDMDL
MODEL 9
REMARK VINA RESULT:      -7.9      4.224      9.114
REMARK  1 active torsions:
REMARK  status: ('A' for Active; 'I' for Inactive)
REMARK    1  A    between atoms: C7_11  and  N1_4 
ROOT
HETATM    1  O1  UNK     1      18.019  -0.994  36.754  1.00  0.00    -0.331 OA
HETATM    2  O2  UNK     1      19.816  -1.173  32.286  1.00  0.00    -0.274 OA
HETATM    3  O3  UNK     1      20.654  -1.252  30.160  1.00  0.00    -0.260 OA
HETATM    4  N1  UNK     1      19.412  -2.906  36.172  1.00  0.00    -0.354 N 
HETATM    5  C1  UNK     1      19.477  -2.501  34.767  1.00  0.00     0.169 C 
HETATM    6  C2  UNK     1      18.952  -1.110  34.531  1.00  0.00     0.028 A 
HETATM    7  C3  UNK     1      18.239  -0.443  35.524  1.00  0.00     0.081 A 
HETATM    8  C4  UNK     1      19.102  -0.474  33.287  1.00  0.00     0.101 A 
HETATM    9  C5  UNK     1      19.059  -1.896  37.166  1.00  0.00     0.301 C 
HETATM   10  C6  UNK     1      18.570   0.791  33.016  1.00  0.00     0.005 A 
HETATM   11  C8  UNK     1      17.676   0.809  35.278  1.00  0.00     0.038 A 
HETATM   12  C9  UNK     1      17.848   1.425  34.035  1.00  0.00     0.017 A 
HETATM   13  C10 UNK     1      18.784   1.384  31.689  1.00  0.00    -0.043 A 
HETATM   14  C13 UNK     1      19.475   0.693  30.770  1.00  0.00     0.090 A 
HETATM   15  C14 UNK     1      20.032  -0.644  31.025  1.00  0.00     0.288 A 
HETATM   16  C15 UNK     1      18.234   2.745  31.379  1.00  0.00     0.049 C 
ENDROOT
BRANCH   4  17
HETATM   17  C7  UNK     1      20.027  -4.105  36.557  1.00  0.00     0.032 A 
HETATM   18  C11 UNK     1      19.788  -5.310  35.858  1.00  0.00     0.030 A 
HETATM   19  C16 UNK     1      20.400  -6.503  36.242  1.00  0.00     0.009 A 
HETATM   20  C18 UNK     1      21.266  -6.524  37.334  1.00  0.00    -0.062 A 
HETATM   21  C17 UNK     1      21.521  -5.349  38.044  1.00  0.00     0.009 A 
HETATM   22  C19 UNK     1      21.921  -7.799  37.745  1.00  0.00     0.048 C 
HETATM   23  C12 UNK     1      20.910  -4.156  37.661  1.00  0.00     0.030 A 
ENDBRANCH   4  17
TORSDOF 1
ENDMDL
MODEL 10
REMARK VINA RESULT:      -7.9     12.377     15.678
REMARK  1 active torsions:
REMARK  status: ('A' for Active; 'I' for Inactive)
REMARK    1  A    between atoms: C7_11  and  N1_4 
ROOT
HETATM    1  O1  UNK     1      24.321 -11.597  35.652  1.00  0.00    -0.331 OA
HETATM    2  O2  UNK     1      22.634  -7.486  37.518  1.00  0.00    -0.274 OA
HETATM    3  O3  UNK     1      21.824  -5.533  38.389  1.00  0.00    -0.260 OA
HETATM    4  N1  UNK     1      25.925 -10.085  36.690  1.00  0.00    -0.354 N 
HETATM    5  C1  UNK     1      24.911  -9.044  36.869  1.00  0.00     0.169 C 
HETATM    6  C2  UNK     1      23.511  -9.536  36.614  1.00  0.00     0.028 A 
HETATM    7  C3  UNK     1      23.293 -10.769  36.005  1.00  0.00     0.081 A 
HETATM    8  C4  UNK     1      22.392  -8.741  36.914  1.00  0.00     0.101 A 
HETATM    9  C5  UNK     1      25.475 -11.461  36.497  1.00  0.00     0.301 C 
HETATM   10  C6  UNK     1      21.083  -9.143  36.630  1.00  0.00     0.005 A 
HETATM   11  C8  UNK     1      22.002 -11.188  35.688  1.00  0.00     0.038 A 
HETATM   12  C9  UNK     1      20.904 -10.384  36.006  1.00  0.00     0.017 A 
HETATM   13  C10 UNK     1      19.972  -8.250  36.988  1.00  0.00    -0.043 A 
HETATM   14  C13 UNK     1      20.242  -7.073  37.568  1.00  0.00     0.090 A 
HETATM   15  C14 UNK     1      21.610  -6.621  37.864  1.00  0.00     0.288 A 
HETATM   16  C15 UNK     1      18.557  -8.665  36.705  1.00  0.00     0.049 C 
ENDROOT
BRANCH   4  17
HETATM   17  C7  UNK     1      27.247  -9.810  37.064  1.00  0.00     0.032 A 
HETATM   18  C11 UNK     1      27.648  -9.836  38.419  1.00  0.00     0.030 A 
HETATM   19  C16 UNK     1      28.964  -9.562  38.791  1.00  0.00     0.009 A 
HETATM   20  C18 UNK     1      29.914  -9.255  37.817  1.00  0.00    -0.062 A 
HETATM   21  C17 UNK     1      29.548  -9.221  36.471  1.00  0.00     0.009 A 
HETATM   22  C19 UNK     1      31.322  -8.961  38.214  1.00  0.00     0.048 C 
HETATM   23  C12 UNK     1      28.233  -9.496  36.099  1.00  0.00     0.030 A 
ENDBRANCH   4  17
TORSDOF 1
ENDMDL
