MODEL 1
REMARK VINA RESULT:     -10.7      0.000      0.000
REMARK  2 active torsions:
REMARK  status: ('A' for Active; 'I' for Inactive)
REMARK       I    between atoms: C10_16  and  N1_5 
REMARK    1  A    between atoms: C4_10  and  N1_5 
REMARK    2  A    between atoms: C10_16  and  C6_12 
ROOT
HETATM    1  S1  UNK     1      19.805  -4.470  37.162  1.00  0.00    -0.075 SA
HETATM    2  N2  UNK     1      20.647  -7.241  32.976  1.00  0.00    -0.191 NA
HETATM    3  C1  UNK     1      20.353  -6.905  36.555  1.00  0.00     0.011 A 
HETATM    4  C2  UNK     1      20.114  -6.086  37.636  1.00  0.00    -0.006 A 
HETATM    5  C3  UNK     1      20.281  -6.196  35.321  1.00  0.00     0.090 A 
HETATM    6  C4  UNK     1      19.993  -4.884  35.525  1.00  0.00     0.099 A 
HETATM    7  C5  UNK     1      20.635  -8.307  36.742  1.00  0.00    -0.023 A 
HETATM    8  C8  UNK     1      20.093  -6.415  39.081  1.00  0.00     0.057 C 
HETATM    9  C12 UNK     1      21.950  -8.732  36.906  1.00  0.00     0.012 A 
HETATM   10  C13 UNK     1      19.590  -9.226  36.758  1.00  0.00     0.012 A 
HETATM   11  C17 UNK     1      22.223 -10.087  37.087  1.00  0.00     0.001 A 
HETATM   12  C18 UNK     1      19.862 -10.582  36.940  1.00  0.00     0.001 A 
HETATM   13  C20 UNK     1      21.179 -11.013  37.104  1.00  0.00     0.000 A 
HETATM   14  C22 UNK     1      20.483  -6.773  34.026  1.00  0.00     0.103 C 
ENDROOT
BRANCH   6  15
HETATM   15  N1  UNK     1      19.830  -3.836  34.613  1.00  0.00    -0.316 N 
HETATM   16  C10 UNK     1      20.549  -2.649  34.596  1.00  0.00     0.262 C 
HETATM   17  O2  UNK     1      21.449  -2.285  35.352  1.00  0.00    -0.267 OA
HETATM   18  H1  UNK     1      19.123  -4.004  33.903  1.00  0.00     0.170 HD
BRANCH  16  19
HETATM   19  C6  UNK     1      20.121  -1.766  33.505  1.00  0.00     0.108 A 
HETATM   20  C14 UNK     1      19.223  -0.613  33.734  1.00  0.00     0.304 A 
HETATM   21  O1  UNK     1      18.888   0.151  32.618  1.00  0.00    -0.274 OA
HETATM   22  O3  UNK     1      18.792  -0.337  34.849  1.00  0.00    -0.259 OA
HETATM   23  C11 UNK     1      19.377  -0.156  31.334  1.00  0.00     0.089 A 
HETATM   24  C7  UNK     1      20.220  -1.245  31.141  1.00  0.00    -0.001 A 
HETATM   25  C16 UNK     1      18.987   0.667  30.279  1.00  0.00     0.038 A 
HETATM   26  C15 UNK     1      20.686  -1.518  29.851  1.00  0.00     0.014 A 
HETATM   27  C9  UNK     1      20.589  -2.062  32.287  1.00  0.00     0.037 A 
HETATM   28  C19 UNK     1      20.303  -0.701  28.783  1.00  0.00     0.001 A 
HETATM   29  C21 UNK     1      19.455   0.388  28.997  1.00  0.00     0.003 A 
ENDBRANCH  16  19
ENDBRANCH   6  15
TORSDOF 2
ENDMDL
MODEL 2
REMARK VINA RESULT:      -9.9     16.255     21.150
REMARK  2 active torsions:
REMARK  status: ('A' for Active; 'I' for Inactive)
REMARK       I    between atoms: C10_16  and  N1_5 
REMARK    1  A    between atoms: C4_10  and  N1_5 
REMARK    2  A    between atoms: C10_16  and  C6_12 
ROOT
HETATM    1  S1  UNK     1      20.324  -4.373  14.428  1.00  0.00    -0.075 SA
HETATM    2  N2  UNK     1      18.856  -0.602  11.340  1.00  0.00    -0.191 NA
HETATM    3  C1  UNK     1      19.819  -4.027  11.934  1.00  0.00     0.011 A 
HETATM    4  C2  UNK     1      20.213  -4.991  12.835  1.00  0.00    -0.006 A 
HETATM    5  C3  UNK     1      19.605  -2.765  12.560  1.00  0.00     0.090 A 
HETATM    6  C4  UNK     1      19.846  -2.832  13.895  1.00  0.00     0.099 A 
HETATM    7  C5  UNK     1      19.664  -4.346  10.535  1.00  0.00    -0.023 A 
HETATM    8  C8  UNK     1      20.535  -6.420  12.607  1.00  0.00     0.057 C 
HETATM    9  C12 UNK     1      20.747  -4.208   9.671  1.00  0.00     0.012 A 
HETATM   10  C13 UNK     1      18.435  -4.790  10.059  1.00  0.00     0.012 A 
HETATM   11  C17 UNK     1      20.598  -4.517   8.320  1.00  0.00     0.001 A 
HETATM   12  C18 UNK     1      18.285  -5.100   8.708  1.00  0.00     0.001 A 
HETATM   13  C20 UNK     1      19.367  -4.963   7.837  1.00  0.00     0.000 A 
HETATM   14  C22 UNK     1      19.191  -1.570  11.886  1.00  0.00     0.103 C 
ENDROOT
BRANCH   6  15
HETATM   15  N1  UNK     1      19.764  -1.848  14.885  1.00  0.00    -0.316 N 
HETATM   16  C10 UNK     1      18.736  -1.699  15.806  1.00  0.00     0.262 C 
HETATM   17  O2  UNK     1      17.720  -2.379  15.939  1.00  0.00    -0.267 OA
HETATM   18  H1  UNK     1      20.557  -1.214  14.911  1.00  0.00     0.170 HD
BRANCH  16  19
HETATM   19  C6  UNK     1      18.967  -0.560  16.703  1.00  0.00     0.108 A 
HETATM   20  C14 UNK     1      19.203   0.808  16.189  1.00  0.00     0.304 A 
HETATM   21  O1  UNK     1      19.409   1.805  17.139  1.00  0.00    -0.274 OA
HETATM   22  O3  UNK     1      19.217   1.057  14.989  1.00  0.00    -0.259 OA
HETATM   23  C11 UNK     1      19.394   1.530  18.520  1.00  0.00     0.089 A 
HETATM   24  C7  UNK     1      19.170   0.238  18.981  1.00  0.00    -0.001 A 
HETATM   25  C16 UNK     1      19.609   2.595  19.394  1.00  0.00     0.038 A 
HETATM   26  C15 UNK     1      19.163   0.004  20.359  1.00  0.00     0.014 A 
HETATM   27  C9  UNK     1      18.952  -0.827  18.013  1.00  0.00     0.037 A 
HETATM   28  C19 UNK     1      19.378   1.062  21.248  1.00  0.00     0.001 A 
HETATM   29  C21 UNK     1      19.600   2.353  20.766  1.00  0.00     0.003 A 
ENDBRANCH  16  19
ENDBRANCH   6  15
TORSDOF 2
ENDMDL
MODEL 3
REMARK VINA RESULT:      -9.5      2.741      4.023
REMARK  2 active torsions:
REMARK  status: ('A' for Active; 'I' for Inactive)
REMARK       I    between atoms: C10_16  and  N1_5 
REMARK    1  A    between atoms: C4_10  and  N1_5 
REMARK    2  A    between atoms: C10_16  and  C6_12 
ROOT
HETATM    1  S1  UNK     1      21.898  -5.308  38.243  1.00  0.00    -0.075 SA
HETATM    2  N2  UNK     1      17.501  -6.897  36.228  1.00  0.00    -0.191 NA
HETATM    3  C1  UNK     1      20.606  -7.510  37.959  1.00  0.00     0.011 A 
HETATM    4  C2  UNK     1      21.775  -6.999  38.479  1.00  0.00    -0.006 A 
HETATM    5  C3  UNK     1      19.801  -6.499  37.360  1.00  0.00     0.090 A 
HETATM    6  C4  UNK     1      20.394  -5.280  37.453  1.00  0.00     0.099 A 
HETATM    7  C5  UNK     1      20.311  -8.919  38.056  1.00  0.00    -0.023 A 
HETATM    8  C8  UNK     1      22.879  -7.697  39.180  1.00  0.00     0.057 C 
HETATM    9  C12 UNK     1      20.723  -9.782  37.044  1.00  0.00     0.012 A 
HETATM   10  C13 UNK     1      19.618  -9.406  39.159  1.00  0.00     0.012 A 
HETATM   11  C17 UNK     1      20.439 -11.144  37.137  1.00  0.00     0.001 A 
HETATM   12  C18 UNK     1      19.334 -10.768  39.254  1.00  0.00     0.001 A 
HETATM   13  C20 UNK     1      19.744 -11.638  38.242  1.00  0.00     0.000 A 
HETATM   14  C22 UNK     1      18.531  -6.718  36.735  1.00  0.00     0.103 C 
ENDROOT
BRANCH   6  15
HETATM   15  N1  UNK     1      19.968  -4.024  37.008  1.00  0.00    -0.316 N 
HETATM   16  C10 UNK     1      19.972  -3.579  35.693  1.00  0.00     0.262 C 
HETATM   17  O2  UNK     1      20.336  -4.176  34.682  1.00  0.00    -0.267 OA
HETATM   18  H1  UNK     1      19.614  -3.418  37.742  1.00  0.00     0.170 HD
BRANCH  16  19
HETATM   19  C6  UNK     1      19.459  -2.209  35.579  1.00  0.00     0.108 A 
HETATM   20  C14 UNK     1      19.595  -1.421  34.333  1.00  0.00     0.304 A 
HETATM   21  O1  UNK     1      19.068  -0.132  34.348  1.00  0.00    -0.274 OA
HETATM   22  O3  UNK     1      20.142  -1.875  33.334  1.00  0.00    -0.259 OA
HETATM   23  C11 UNK     1      18.437   0.400  35.489  1.00  0.00     0.089 A 
HETATM   24  C7  UNK     1      18.321  -0.358  36.649  1.00  0.00    -0.001 A 
HETATM   25  C16 UNK     1      17.940   1.699  35.407  1.00  0.00     0.038 A 
HETATM   26  C15 UNK     1      17.688   0.205  37.762  1.00  0.00     0.014 A 
HETATM   27  C9  UNK     1      18.861  -1.708  36.666  1.00  0.00     0.037 A 
HETATM   28  C19 UNK     1      17.184   1.507  37.695  1.00  0.00     0.001 A 
HETATM   29  C21 UNK     1      17.311   2.252  36.520  1.00  0.00     0.003 A 
ENDBRANCH  16  19
ENDBRANCH   6  15
TORSDOF 2
ENDMDL
MODEL 4
REMARK VINA RESULT:      -9.5      8.293     11.284
REMARK  2 active torsions:
REMARK  status: ('A' for Active; 'I' for Inactive)
REMARK       I    between atoms: C10_16  and  N1_5 
REMARK    1  A    between atoms: C4_10  and  N1_5 
REMARK    2  A    between atoms: C10_16  and  C6_12 
ROOT
HETATM    1  S1  UNK     1      29.302  -8.823  36.457  1.00  0.00    -0.075 SA
HETATM    2  N2  UNK     1      29.924  -3.960  37.828  1.00  0.00    -0.191 NA
HETATM    3  C1  UNK     1      31.180  -7.071  36.502  1.00  0.00     0.011 A 
HETATM    4  C2  UNK     1      30.928  -8.380  36.156  1.00  0.00    -0.006 A 
HETATM    5  C3  UNK     1      30.021  -6.423  37.021  1.00  0.00     0.090 A 
HETATM    6  C4  UNK     1      28.956  -7.266  37.043  1.00  0.00     0.099 A 
HETATM    7  C5  UNK     1      32.494  -6.502  36.325  1.00  0.00    -0.023 A 
HETATM    8  C8  UNK     1      31.844  -9.397  35.586  1.00  0.00     0.057 C 
HETATM    9  C12 UNK     1      33.426  -6.583  37.355  1.00  0.00     0.012 A 
HETATM   10  C13 UNK     1      32.820  -5.877  35.126  1.00  0.00     0.012 A 
HETATM   11  C17 UNK     1      34.696  -6.033  37.184  1.00  0.00     0.001 A 
HETATM   12  C18 UNK     1      34.091  -5.328  34.954  1.00  0.00     0.001 A 
HETATM   13  C20 UNK     1      35.030  -5.405  35.984  1.00  0.00     0.000 A 
HETATM   14  C22 UNK     1      29.967  -5.063  37.466  1.00  0.00     0.103 C 
ENDROOT
BRANCH   6  15
HETATM   15  N1  UNK     1      27.640  -7.058  37.466  1.00  0.00    -0.316 N 
HETATM   16  C10 UNK     1      27.080  -7.515  38.652  1.00  0.00     0.262 C 
HETATM   17  O2  UNK     1      27.609  -8.174  39.546  1.00  0.00    -0.267 OA
HETATM   18  H1  UNK     1      27.078  -6.502  36.828  1.00  0.00     0.170 HD
BRANCH  16  19
HETATM   19  C6  UNK     1      25.673  -7.119  38.781  1.00  0.00     0.108 A 
HETATM   20  C14 UNK     1      25.258  -5.699  38.820  1.00  0.00     0.304 A 
HETATM   21  O1  UNK     1      23.893  -5.450  38.944  1.00  0.00    -0.274 OA
HETATM   22  O3  UNK     1      26.069  -4.783  38.745  1.00  0.00    -0.259 OA
HETATM   23  C11 UNK     1      22.952  -6.495  39.030  1.00  0.00     0.089 A 
HETATM   24  C7  UNK     1      23.365  -7.822  38.991  1.00  0.00    -0.001 A 
HETATM   25  C16 UNK     1      21.608  -6.146  39.151  1.00  0.00     0.038 A 
HETATM   26  C15 UNK     1      22.401  -8.831  39.079  1.00  0.00     0.014 A 
HETATM   27  C9  UNK     1      24.784  -8.115  38.862  1.00  0.00     0.037 A 
HETATM   28  C19 UNK     1      21.049  -8.497  39.202  1.00  0.00     0.001 A 
HETATM   29  C21 UNK     1      20.654  -7.158  39.238  1.00  0.00     0.003 A 
ENDBRANCH  16  19
ENDBRANCH   6  15
TORSDOF 2
ENDMDL
MODEL 5
REMARK VINA RESULT:      -9.2      3.221      4.966
REMARK  2 active torsions:
REMARK  status: ('A' for Active; 'I' for Inactive)
REMARK       I    between atoms: C10_16  and  N1_5 
REMARK    1  A    between atoms: C4_10  and  N1_5 
REMARK    2  A    between atoms: C10_16  and  C6_12 
ROOT
HETATM    1  S1  UNK     1      18.282  -0.187  36.566  1.00  0.00    -0.075 SA
HETATM    2  N2  UNK     1      20.885  -2.866  33.108  1.00  0.00    -0.191 NA
HETATM    3  C1  UNK     1      19.393  -2.495  36.370  1.00  0.00     0.011 A 
HETATM    4  C2  UNK     1      18.683  -1.705  37.248  1.00  0.00    -0.006 A 
HETATM    5  C3  UNK     1      19.609  -1.844  35.121  1.00  0.00     0.090 A 
HETATM    6  C4  UNK     1      19.058  -0.603  35.113  1.00  0.00     0.099 A 
HETATM    7  C5  UNK     1      19.827  -3.816  36.755  1.00  0.00    -0.023 A 
HETATM    8  C8  UNK     1      18.249  -1.994  38.636  1.00  0.00     0.057 C 
HETATM    9  C12 UNK     1      21.069  -3.987  37.360  1.00  0.00     0.012 A 
HETATM   10  C13 UNK     1      19.001  -4.910  36.519  1.00  0.00     0.012 A 
HETATM   11  C17 UNK     1      21.489  -5.263  37.732  1.00  0.00     0.001 A 
HETATM   12  C18 UNK     1      19.420  -6.188  36.891  1.00  0.00     0.001 A 
HETATM   13  C20 UNK     1      20.664  -6.365  37.498  1.00  0.00     0.000 A 
HETATM   14  C22 UNK     1      20.314  -2.408  34.009  1.00  0.00     0.103 C 
ENDROOT
BRANCH   6  15
HETATM   15  N1  UNK     1      19.029   0.373  34.111  1.00  0.00    -0.316 N 
HETATM   16  C10 UNK     1      17.907   1.066  33.677  1.00  0.00     0.262 C 
HETATM   17  O2  UNK     1      16.746   0.970  34.071  1.00  0.00    -0.267 OA
HETATM   18  H1  UNK     1      19.935   0.578  33.700  1.00  0.00     0.170 HD
BRANCH  16  19
HETATM   19  C6  UNK     1      18.232   2.018  32.609  1.00  0.00     0.108 A 
HETATM   20  C14 UNK     1      18.732   1.574  31.288  1.00  0.00     0.304 A 
HETATM   21  O1  UNK     1      19.005   2.573  30.356  1.00  0.00    -0.274 OA
HETATM   22  O3  UNK     1      18.899   0.390  31.021  1.00  0.00    -0.259 OA
HETATM   23  C11 UNK     1      18.816   3.937  30.651  1.00  0.00     0.089 A 
HETATM   24  C7  UNK     1      18.346   4.331  31.899  1.00  0.00    -0.001 A 
HETATM   25  C16 UNK     1      19.116   4.862  29.653  1.00  0.00     0.038 A 
HETATM   26  C15 UNK     1      18.171   5.694  32.155  1.00  0.00     0.014 A 
HETATM   27  C9  UNK     1      18.051   3.312  32.894  1.00  0.00     0.037 A 
HETATM   28  C19 UNK     1      18.468   6.634  31.163  1.00  0.00     0.001 A 
HETATM   29  C21 UNK     1      18.940   6.219  29.916  1.00  0.00     0.003 A 
ENDBRANCH  16  19
ENDBRANCH   6  15
TORSDOF 2
ENDMDL
MODEL 6
REMARK VINA RESULT:      -9.1     11.171     15.150
REMARK  2 active torsions:
REMARK  status: ('A' for Active; 'I' for Inactive)
REMARK       I    between atoms: C10_16  and  N1_5 
REMARK    1  A    between atoms: C4_10  and  N1_5 
REMARK    2  A    between atoms: C10_16  and  C6_12 
ROOT
HETATM    1  S1  UNK     1      18.548   8.998  33.987  1.00  0.00    -0.075 SA
HETATM    2  N2  UNK     1      14.676   7.183  31.225  1.00  0.00    -0.191 NA
HETATM    3  C1  UNK     1      18.061   6.994  32.454  1.00  0.00     0.011 A 
HETATM    4  C2  UNK     1      19.058   7.552  33.225  1.00  0.00    -0.006 A 
HETATM    5  C3  UNK     1      16.864   7.765  32.490  1.00  0.00     0.090 A 
HETATM    6  C4  UNK     1      17.009   8.861  33.280  1.00  0.00     0.099 A 
HETATM    7  C5  UNK     1      18.291   5.769  31.728  1.00  0.00    -0.023 A 
HETATM    8  C8  UNK     1      20.442   7.078  33.463  1.00  0.00     0.057 C 
HETATM    9  C12 UNK     1      18.783   5.818  30.427  1.00  0.00     0.012 A 
HETATM   10  C13 UNK     1      18.019   4.546  32.333  1.00  0.00     0.012 A 
HETATM   11  C17 UNK     1      19.005   4.634  29.725  1.00  0.00     0.001 A 
HETATM   12  C18 UNK     1      18.242   3.361  31.633  1.00  0.00     0.001 A 
HETATM   13  C20 UNK     1      18.735   3.404  30.328  1.00  0.00     0.000 A 
HETATM   14  C22 UNK     1      15.655   7.443  31.792  1.00  0.00     0.103 C 
ENDROOT
BRANCH   6  15
HETATM   15  N1  UNK     1      16.104   9.879  33.598  1.00  0.00    -0.316 N 
HETATM   16  C10 UNK     1      14.866   9.713  34.202  1.00  0.00     0.262 C 
HETATM   17  O2  UNK     1      14.325   8.672  34.571  1.00  0.00    -0.267 OA
HETATM   18  H1  UNK     1      16.428  10.814  33.365  1.00  0.00     0.170 HD
BRANCH  16  19
HETATM   19  C6  UNK     1      14.173  10.993  34.390  1.00  0.00     0.108 A 
HETATM   20  C14 UNK     1      14.674  12.027  35.323  1.00  0.00     0.304 A 
HETATM   21  O1  UNK     1      13.930  13.201  35.414  1.00  0.00    -0.274 OA
HETATM   22  O3  UNK     1      15.694  11.866  35.984  1.00  0.00    -0.259 OA
HETATM   23  C11 UNK     1      12.757  13.398  34.658  1.00  0.00     0.089 A 
HETATM   24  C7  UNK     1      12.305  12.412  33.788  1.00  0.00    -0.001 A 
HETATM   25  C16 UNK     1      12.081  14.606  34.817  1.00  0.00     0.038 A 
HETATM   26  C15 UNK     1      11.137  12.644  33.055  1.00  0.00     0.014 A 
HETATM   27  C9  UNK     1      13.061  11.175  33.670  1.00  0.00     0.037 A 
HETATM   28  C19 UNK     1      10.447  13.851  33.203  1.00  0.00     0.001 A 
HETATM   29  C21 UNK     1      10.918  14.829  34.082  1.00  0.00     0.003 A 
ENDBRANCH  16  19
ENDBRANCH   6  15
TORSDOF 2
ENDMDL
MODEL 7
REMARK VINA RESULT:      -9.1      7.349     12.722
REMARK  2 active torsions:
REMARK  status: ('A' for Active; 'I' for Inactive)
REMARK       I    between atoms: C10_16  and  N1_5 
REMARK    1  A    between atoms: C4_10  and  N1_5 
REMARK    2  A    between atoms: C10_16  and  C6_12 
ROOT
HETATM    1  S1  UNK     1      19.775   6.933  33.174  1.00  0.00    -0.075 SA
HETATM    2  N2  UNK     1      14.930   6.147  31.822  1.00  0.00    -0.191 NA
HETATM    3  C1  UNK     1      17.496   8.084  33.458  1.00  0.00     0.011 A 
HETATM    4  C2  UNK     1      18.827   8.223  33.782  1.00  0.00    -0.006 A 
HETATM    5  C3  UNK     1      17.251   6.903  32.699  1.00  0.00     0.090 A 
HETATM    6  C4  UNK     1      18.399   6.209  32.487  1.00  0.00     0.099 A 
HETATM    7  C5  UNK     1      16.529   9.069  33.878  1.00  0.00    -0.023 A 
HETATM    8  C8  UNK     1      19.503   9.294  34.553  1.00  0.00     0.057 C 
HETATM    9  C12 UNK     1      15.881   8.924  35.101  1.00  0.00     0.012 A 
HETATM   10  C13 UNK     1      16.251  10.158  33.058  1.00  0.00     0.012 A 
HETATM   11  C17 UNK     1      14.947   9.875  35.508  1.00  0.00     0.001 A 
HETATM   12  C18 UNK     1      15.317  11.111  33.464  1.00  0.00     0.001 A 
HETATM   13  C20 UNK     1      14.664  10.970  34.690  1.00  0.00     0.000 A 
HETATM   14  C22 UNK     1      15.969   6.485  32.214  1.00  0.00     0.103 C 
ENDROOT
BRANCH   6  15
HETATM   15  N1  UNK     1      18.625   5.011  31.803  1.00  0.00    -0.316 N 
HETATM   16  C10 UNK     1      18.273   3.741  32.240  1.00  0.00     0.262 C 
HETATM   17  O2  UNK     1      17.708   3.418  33.283  1.00  0.00    -0.267 OA
HETATM   18  H1  UNK     1      19.075   5.123  30.899  1.00  0.00     0.170 HD
BRANCH  16  19
HETATM   19  C6  UNK     1      18.660   2.704  31.276  1.00  0.00     0.108 A 
HETATM   20  C14 UNK     1      18.665   2.952  29.817  1.00  0.00     0.304 A 
HETATM   21  O1  UNK     1      19.051   1.888  29.004  1.00  0.00    -0.274 OA
HETATM   22  O3  UNK     1      18.347   4.036  29.341  1.00  0.00    -0.259 OA
HETATM   23  C11 UNK     1      19.419   0.639  29.540  1.00  0.00     0.089 A 
HETATM   24  C7  UNK     1      19.406   0.429  30.914  1.00  0.00    -0.001 A 
HETATM   25  C16 UNK     1      19.791  -0.363  28.646  1.00  0.00     0.038 A 
HETATM   26  C15 UNK     1      19.778  -0.825  31.408  1.00  0.00     0.014 A 
HETATM   27  C9  UNK     1      19.008   1.519  31.790  1.00  0.00     0.037 A 
HETATM   28  C19 UNK     1      20.154  -1.841  30.524  1.00  0.00     0.001 A 
HETATM   29  C21 UNK     1      20.160  -1.610  29.147  1.00  0.00     0.003 A 
ENDBRANCH  16  19
ENDBRANCH   6  15
TORSDOF 2
ENDMDL
MODEL 8
REMARK VINA RESULT:      -9.0     16.849     20.730
REMARK  2 active torsions:
REMARK  status: ('A' for Active; 'I' for Inactive)
REMARK       I    between atoms: C10_16  and  N1_5 
REMARK    1  A    between atoms: C4_10  and  N1_5 
REMARK    2  A    between atoms: C10_16  and  C6_12 
ROOT
HETATM    1  S1  UNK     1      17.523  -5.455  14.986  1.00  0.00    -0.075 SA
HETATM    2  N2  UNK     1      20.182  -3.021  11.391  1.00  0.00    -0.191 NA
HETATM    3  C1  UNK     1      18.462  -5.934  12.643  1.00  0.00     0.011 A 
HETATM    4  C2  UNK     1      17.747  -6.520  13.664  1.00  0.00    -0.006 A 
HETATM    5  C3  UNK     1      18.830  -4.592  12.950  1.00  0.00     0.090 A 
HETATM    6  C4  UNK     1      18.380  -4.229  14.179  1.00  0.00     0.099 A 
HETATM    7  C5  UNK     1      18.758  -6.667  11.436  1.00  0.00    -0.023 A 
HETATM    8  C8  UNK     1      17.179  -7.887  13.753  1.00  0.00     0.057 C 
HETATM    9  C12 UNK     1      19.929  -7.415  11.352  1.00  0.00     0.012 A 
HETATM   10  C13 UNK     1      17.872  -6.623  10.366  1.00  0.00     0.012 A 
HETATM   11  C17 UNK     1      20.216  -8.124  10.186  1.00  0.00     0.001 A 
HETATM   12  C18 UNK     1      18.157  -7.333   9.199  1.00  0.00     0.001 A 
HETATM   13  C20 UNK     1      19.330  -8.083   9.109  1.00  0.00     0.000 A 
HETATM   14  C22 UNK     1      19.576  -3.724  12.089  1.00  0.00     0.103 C 
ENDROOT
BRANCH   6  15
HETATM   15  N1  UNK     1      18.509  -3.023  14.876  1.00  0.00    -0.316 N 
HETATM   16  C10 UNK     1      19.523  -2.699  15.767  1.00  0.00     0.262 C 
HETATM   17  O2  UNK     1      20.485  -3.381  16.117  1.00  0.00    -0.267 OA
HETATM   18  H1  UNK     1      17.784  -2.341  14.671  1.00  0.00     0.170 HD
BRANCH  16  19
HETATM   19  C6  UNK     1      19.352  -1.351  16.322  1.00  0.00     0.108 A 
HETATM   20  C14 UNK     1      19.335  -0.146  15.463  1.00  0.00     0.304 A 
HETATM   21  O1  UNK     1      19.166   1.078  16.107  1.00  0.00    -0.274 OA
HETATM   22  O3  UNK     1      19.461  -0.214  14.246  1.00  0.00    -0.259 OA
HETATM   23  C11 UNK     1      19.019   1.168  17.505  1.00  0.00     0.089 A 
HETATM   24  C7  UNK     1      19.039   0.022  18.293  1.00  0.00    -0.001 A 
HETATM   25  C16 UNK     1      18.854   2.437  18.058  1.00  0.00     0.038 A 
HETATM   26  C15 UNK     1      18.890   0.152  19.677  1.00  0.00     0.014 A 
HETATM   27  C9  UNK     1      19.213  -1.271  17.650  1.00  0.00     0.037 A 
HETATM   28  C19 UNK     1      18.724   1.418  20.246  1.00  0.00     0.001 A 
HETATM   29  C21 UNK     1      18.707   2.557  19.438  1.00  0.00     0.003 A 
ENDBRANCH  16  19
ENDBRANCH   6  15
TORSDOF 2
ENDMDL
MODEL 9
REMARK VINA RESULT:      -9.0     29.049     30.472
REMARK  2 active torsions:
REMARK  status: ('A' for Active; 'I' for Inactive)
REMARK       I    between atoms: C10_16  and  N1_5 
REMARK    1  A    between atoms: C4_10  and  N1_5 
REMARK    2  A    between atoms: C10_16  and  C6_12 
ROOT
HETATM    1  S1  UNK     1      15.276  12.819   8.401  1.00  0.00    -0.075 SA
HETATM    2  N2  UNK     1      17.537   8.439   9.673  1.00  0.00    -0.191 NA
HETATM    3  C1  UNK     1      17.627  11.984   9.012  1.00  0.00     0.011 A 
HETATM    4  C2  UNK     1      16.940  13.126   8.662  1.00  0.00    -0.006 A 
HETATM    5  C3  UNK     1      16.775  10.844   9.067  1.00  0.00     0.090 A 
HETATM    6  C4  UNK     1      15.494  11.173   8.759  1.00  0.00     0.099 A 
HETATM    7  C5  UNK     1      19.045  12.030   9.276  1.00  0.00    -0.023 A 
HETATM    8  C8  UNK     1      17.439  14.511   8.492  1.00  0.00     0.057 C 
HETATM    9  C12 UNK     1      19.948  11.830   8.236  1.00  0.00     0.012 A 
HETATM   10  C13 UNK     1      19.499  12.275  10.567  1.00  0.00     0.012 A 
HETATM   11  C17 UNK     1      21.318  11.874   8.490  1.00  0.00     0.001 A 
HETATM   12  C18 UNK     1      20.870  12.321  10.823  1.00  0.00     0.001 A 
HETATM   13  C20 UNK     1      21.780  12.120   9.784  1.00  0.00     0.000 A 
HETATM   14  C22 UNK     1      17.195   9.516   9.402  1.00  0.00     0.103 C 
ENDROOT
BRANCH   6  15
HETATM   15  N1  UNK     1      14.342  10.381   8.689  1.00  0.00    -0.316 N 
HETATM   16  C10 UNK     1      13.767   9.681   9.740  1.00  0.00     0.262 C 
HETATM   17  O2  UNK     1      14.137   9.614  10.911  1.00  0.00    -0.267 OA
HETATM   18  H1  UNK     1      13.906  10.356   7.771  1.00  0.00     0.170 HD
BRANCH  16  19
HETATM   19  C6  UNK     1      12.566   8.951   9.318  1.00  0.00     0.108 A 
HETATM   20  C14 UNK     1      11.314   8.979  10.107  1.00  0.00     0.304 A 
HETATM   21  O1  UNK     1      10.241   8.246   9.604  1.00  0.00    -0.274 OA
HETATM   22  O3  UNK     1      11.218   9.614  11.151  1.00  0.00    -0.259 OA
HETATM   23  C11 UNK     1      10.340   7.514   8.404  1.00  0.00     0.089 A 
HETATM   24  C7  UNK     1      11.527   7.502   7.680  1.00  0.00    -0.001 A 
HETATM   25  C16 UNK     1       9.213   6.812   7.980  1.00  0.00     0.038 A 
HETATM   26  C15 UNK     1      11.586   6.763   6.494  1.00  0.00     0.014 A 
HETATM   27  C9  UNK     1      12.665   8.257   8.179  1.00  0.00     0.037 A 
HETATM   28  C19 UNK     1      10.463   6.054   6.056  1.00  0.00     0.001 A 
HETATM   29  C21 UNK     1       9.280   6.079   6.798  1.00  0.00     0.003 A 
ENDBRANCH  16  19
ENDBRANCH   6  15
TORSDOF 2
ENDMDL
MODEL 10
REMARK VINA RESULT:      -8.9     11.031     14.961
REMARK  2 active torsions:
REMARK  status: ('A' for Active; 'I' for Inactive)
REMARK       I    between atoms: C10_16  and  N1_5 
REMARK    1  A    between atoms: C4_10  and  N1_5 
REMARK    2  A    between atoms: C10_16  and  C6_12 
ROOT
HETATM    1  S1  UNK     1      19.110   8.352  34.201  1.00  0.00    -0.075 SA
HETATM    2  N2  UNK     1      14.831   6.870  31.874  1.00  0.00    -0.191 NA
HETATM    3  C1  UNK     1      18.364   6.552  32.527  1.00  0.00     0.011 A 
HETATM    4  C2  UNK     1      19.476   7.015  33.197  1.00  0.00    -0.006 A 
HETATM    5  C3  UNK     1      17.197   7.305  32.845  1.00  0.00     0.090 A 
HETATM    6  C4  UNK     1      17.478   8.295  33.732  1.00  0.00     0.099 A 
HETATM    7  C5  UNK     1      18.462   5.427  31.629  1.00  0.00    -0.023 A 
HETATM    8  C8  UNK     1      20.874   6.524  33.155  1.00  0.00     0.057 C 
HETATM    9  C12 UNK     1      18.746   5.641  30.283  1.00  0.00     0.012 A 
HETATM   10  C13 UNK     1      18.272   4.137  32.113  1.00  0.00     0.012 A 
HETATM   11  C17 UNK     1      18.841   4.555  29.414  1.00  0.00     0.001 A 
HETATM   12  C18 UNK     1      18.367   3.050  31.245  1.00  0.00     0.001 A 
HETATM   13  C20 UNK     1      18.651   3.258  29.894  1.00  0.00     0.000 A 
HETATM   14  C22 UNK     1      15.891   7.065  32.309  1.00  0.00     0.103 C 
ENDROOT
BRANCH   6  15
HETATM   15  N1  UNK     1      16.648   9.260  34.310  1.00  0.00    -0.316 N 
HETATM   16  C10 UNK     1      16.763  10.635  34.157  1.00  0.00     0.262 C 
HETATM   17  O2  UNK     1      17.589  11.268  33.502  1.00  0.00    -0.267 OA
HETATM   18  H1  UNK     1      15.893   8.880  34.874  1.00  0.00     0.170 HD
BRANCH  16  19
HETATM   19  C6  UNK     1      15.727  11.357  34.905  1.00  0.00     0.108 A 
HETATM   20  C14 UNK     1      14.311  10.923  34.903  1.00  0.00     0.304 A 
HETATM   21  O1  UNK     1      13.422  11.690  35.652  1.00  0.00    -0.274 OA
HETATM   22  O3  UNK     1      13.935   9.938  34.278  1.00  0.00    -0.259 OA
HETATM   23  C11 UNK     1      13.843  12.823  36.375  1.00  0.00     0.089 A 
HETATM   24  C7  UNK     1      15.178  13.213  36.362  1.00  0.00    -0.001 A 
HETATM   25  C16 UNK     1      12.880  13.526  37.095  1.00  0.00     0.038 A 
HETATM   26  C15 UNK     1      15.558  14.343  37.091  1.00  0.00     0.014 A 
HETATM   27  C9  UNK     1      16.132  12.432  35.589  1.00  0.00     0.037 A 
HETATM   28  C19 UNK     1      14.603  15.059  37.819  1.00  0.00     0.001 A 
HETATM   29  C21 UNK     1      13.267  14.652  37.820  1.00  0.00     0.003 A 
ENDBRANCH  16  19
ENDBRANCH   6  15
TORSDOF 2
ENDMDL
