MODEL 1
REMARK VINA RESULT:      -8.6      0.000      0.000
REMARK  6 active torsions:
REMARK  status: ('A' for Active; 'I' for Inactive)
REMARK    1  A    between atoms: C3_10  and  O2_2 
REMARK    2  A    between atoms: C6_13  and  O3_3 
REMARK    3  A    between atoms: C8_15  and  O4_4 
REMARK    4  A    between atoms: C15_22  and  O6_6 
REMARK    5  A    between atoms: C13_20  and  O7_7 
REMARK    6  A    between atoms: C4_11  and  C9_16 
ROOT
HETATM    1  O1  UNK     1      17.964   3.667  33.295  1.00  0.00    -0.309 OA
HETATM    2  O5  UNK     1      19.111   2.303  29.631  1.00  0.00    -0.287 OA
HETATM    3  C1  UNK     1      18.633   1.801  31.890  1.00  0.00     0.084 A 
HETATM    4  C2  UNK     1      18.235   2.334  33.115  1.00  0.00     0.096 A 
HETATM    5  C3  UNK     1      18.895   0.436  31.765  1.00  0.00     0.121 A 
HETATM    6  C4  UNK     1      18.100   4.520  32.211  1.00  0.00     0.090 A 
HETATM    7  C5  UNK     1      18.769   2.703  30.736  1.00  0.00     0.190 A 
HETATM    8  C6  UNK     1      18.756  -0.396  32.877  1.00  0.00     0.136 A 
HETATM    9  C7  UNK     1      18.097   1.500  34.226  1.00  0.00     0.078 A 
HETATM   10  C8  UNK     1      18.359   0.135  34.106  1.00  0.00     0.107 A 
HETATM   11  C10 UNK     1      18.469   4.127  30.982  1.00  0.00     0.094 A 
ENDROOT
BRANCH   6  12
HETATM   12  C9  UNK     1      17.779   5.929  32.514  1.00  0.00     0.001 A 
HETATM   13  C11 UNK     1      16.906   6.643  31.690  1.00  0.00     0.053 A 
HETATM   14  C13 UNK     1      16.604   7.975  31.976  1.00  0.00     0.099 A 
HETATM   15  C15 UNK     1      17.175   8.597  33.085  1.00  0.00     0.101 A 
HETATM   16  C14 UNK     1      18.048   7.887  33.910  1.00  0.00     0.040 A 
HETATM   17  C12 UNK     1      18.350   6.556  33.625  1.00  0.00     0.017 A 
BRANCH  14  18
HETATM   18  O7  UNK     1      15.750   8.657  31.162  1.00  0.00    -0.358 OA
HETATM   19  H15 UNK     1      14.994   8.962  31.693  1.00  0.00     0.217 HD
ENDBRANCH  14  18
BRANCH  15  20
HETATM   20  O6  UNK     1      16.888   9.897  33.375  1.00  0.00    -0.353 OA
HETATM   21  C19 UNK     1      16.043  10.138  34.500  1.00  0.00     0.210 C 
ENDBRANCH  15  20
ENDBRANCH   6  12
BRANCH   5  22
HETATM   22  O2  UNK     1      19.287  -0.121  30.583  1.00  0.00    -0.352 OA
HETATM   23  C16 UNK     1      20.684  -0.331  30.399  1.00  0.00     0.210 C 
ENDBRANCH   5  22
BRANCH  10  24
HETATM   24  O4  UNK     1      18.221  -0.670  35.196  1.00  0.00    -0.353 OA
HETATM   25  C18 UNK     1      16.892  -0.996  35.597  1.00  0.00     0.210 C 
ENDBRANCH  10  24
BRANCH   8  26
HETATM   26  O3  UNK     1      19.010  -1.733  32.769  1.00  0.00    -0.351 OA
HETATM   27  C17 UNK     1      20.227  -2.207  33.340  1.00  0.00     0.210 C 
ENDBRANCH   8  26
TORSDOF 6
ENDMDL
MODEL 2
REMARK VINA RESULT:      -8.2      1.440      2.025
REMARK  6 active torsions:
REMARK  status: ('A' for Active; 'I' for Inactive)
REMARK    1  A    between atoms: C3_10  and  O2_2 
REMARK    2  A    between atoms: C6_13  and  O3_3 
REMARK    3  A    between atoms: C8_15  and  O4_4 
REMARK    4  A    between atoms: C15_22  and  O6_6 
REMARK    5  A    between atoms: C13_20  and  O7_7 
REMARK    6  A    between atoms: C4_11  and  C9_16 
ROOT
HETATM    1  O1  UNK     1      18.248   4.027  34.347  1.00  0.00    -0.309 OA
HETATM    2  O5  UNK     1      18.265   1.951  30.842  1.00  0.00    -0.287 OA
HETATM    3  C1  UNK     1      18.317   1.885  33.202  1.00  0.00     0.084 A 
HETATM    4  C2  UNK     1      18.307   2.656  34.364  1.00  0.00     0.096 A 
HETATM    5  C3  UNK     1      18.377   0.492  33.280  1.00  0.00     0.121 A 
HETATM    6  C4  UNK     1      18.205   4.671  33.120  1.00  0.00     0.090 A 
HETATM    7  C5  UNK     1      18.262   2.565  31.900  1.00  0.00     0.190 A 
HETATM    8  C6  UNK     1      18.428  -0.126  34.530  1.00  0.00     0.136 A 
HETATM    9  C7  UNK     1      18.357   2.036  35.613  1.00  0.00     0.078 A 
HETATM   10  C8  UNK     1      18.418   0.644  35.695  1.00  0.00     0.107 A 
HETATM   11  C10 UNK     1      18.203   4.040  31.936  1.00  0.00     0.094 A 
ENDROOT
BRANCH   6  12
HETATM   12  C9  UNK     1      18.138   6.143  33.218  1.00  0.00     0.001 A 
HETATM   13  C11 UNK     1      19.133   6.847  33.901  1.00  0.00     0.053 A 
HETATM   14  C13 UNK     1      19.069   8.237  33.993  1.00  0.00     0.099 A 
HETATM   15  C15 UNK     1      18.011   8.928  33.403  1.00  0.00     0.101 A 
HETATM   16  C14 UNK     1      17.017   8.228  32.720  1.00  0.00     0.040 A 
HETATM   17  C12 UNK     1      17.080   6.838  32.627  1.00  0.00     0.017 A 
BRANCH  14  18
HETATM   18  O7  UNK     1      20.046   8.909  34.664  1.00  0.00    -0.358 OA
HETATM   19  H15 UNK     1      19.683   9.759  34.969  1.00  0.00     0.217 HD
ENDBRANCH  14  18
BRANCH  15  20
HETATM   20  O6  UNK     1      17.938  10.286  33.485  1.00  0.00    -0.353 OA
HETATM   21  C19 UNK     1      16.819  10.833  34.181  1.00  0.00     0.210 C 
ENDBRANCH  15  20
ENDBRANCH   6  12
BRANCH   5  22
HETATM   22  O2  UNK     1      18.390  -0.295  32.166  1.00  0.00    -0.352 OA
HETATM   23  C16 UNK     1      19.661  -0.751  31.711  1.00  0.00     0.210 C 
ENDBRANCH   5  22
BRANCH  10  24
HETATM   24  O4  UNK     1      18.467   0.049  36.919  1.00  0.00    -0.353 OA
HETATM   25  C18 UNK     1      17.652   0.611  37.945  1.00  0.00     0.210 C 
ENDBRANCH  10  24
BRANCH   8  26
HETATM   26  O3  UNK     1      18.487  -1.486  34.620  1.00  0.00    -0.351 OA
HETATM   27  C17 UNK     1      19.740  -2.054  34.994  1.00  0.00     0.210 C 
ENDBRANCH   8  26
TORSDOF 6
ENDMDL
MODEL 3
REMARK VINA RESULT:      -8.0     15.757     18.677
REMARK  6 active torsions:
REMARK  status: ('A' for Active; 'I' for Inactive)
REMARK    1  A    between atoms: C3_10  and  O2_2 
REMARK    2  A    between atoms: C6_13  and  O3_3 
REMARK    3  A    between atoms: C8_15  and  O4_4 
REMARK    4  A    between atoms: C15_22  and  O6_6 
REMARK    5  A    between atoms: C13_20  and  O7_7 
REMARK    6  A    between atoms: C4_11  and  C9_16 
ROOT
HETATM    1  O1  UNK     1      19.362  -0.801  15.092  1.00  0.00    -0.309 OA
HETATM    2  O5  UNK     1      17.618  -4.443  15.637  1.00  0.00    -0.287 OA
HETATM    3  C1  UNK     1      18.692  -2.943  14.161  1.00  0.00     0.084 A 
HETATM    4  C2  UNK     1      19.277  -1.682  14.044  1.00  0.00     0.096 A 
HETATM    5  C3  UNK     1      18.634  -3.799  13.060  1.00  0.00     0.121 A 
HETATM    6  C4  UNK     1      18.836  -1.180  16.317  1.00  0.00     0.090 A 
HETATM    7  C5  UNK     1      18.142  -3.351  15.462  1.00  0.00     0.190 A 
HETATM    8  C6  UNK     1      19.165  -3.385  11.837  1.00  0.00     0.136 A 
HETATM    9  C7  UNK     1      19.807  -1.271  12.820  1.00  0.00     0.078 A 
HETATM   10  C8  UNK     1      19.750  -2.123  11.718  1.00  0.00     0.107 A 
HETATM   11  C10 UNK     1      18.256  -2.366  16.557  1.00  0.00     0.094 A 
ENDROOT
BRANCH   6  12
HETATM   12  C9  UNK     1      18.985  -0.160  17.375  1.00  0.00     0.001 A 
HETATM   13  C11 UNK     1      18.890   1.198  17.060  1.00  0.00     0.053 A 
HETATM   14  C13 UNK     1      19.032   2.160  18.059  1.00  0.00     0.099 A 
HETATM   15  C15 UNK     1      19.269   1.770  19.376  1.00  0.00     0.101 A 
HETATM   16  C14 UNK     1      19.365   0.415  19.694  1.00  0.00     0.040 A 
HETATM   17  C12 UNK     1      19.223  -0.548  18.696  1.00  0.00     0.017 A 
BRANCH  14  18
HETATM   18  O7  UNK     1      18.937   3.481  17.735  1.00  0.00    -0.358 OA
HETATM   19  H15 UNK     1      18.008   3.682  17.524  1.00  0.00     0.217 HD
ENDBRANCH  14  18
BRANCH  15  20
HETATM   20  O6  UNK     1      19.409   2.700  20.361  1.00  0.00    -0.353 OA
HETATM   21  C19 UNK     1      19.730   2.219  21.666  1.00  0.00     0.210 C 
ENDBRANCH  15  20
ENDBRANCH   6  12
BRANCH   5  22
HETATM   22  O2  UNK     1      18.069  -5.039  13.136  1.00  0.00    -0.352 OA
HETATM   23  C16 UNK     1      18.949  -6.137  13.363  1.00  0.00     0.210 C 
ENDBRANCH   5  22
BRANCH  10  24
HETATM   24  O4  UNK     1      20.271  -1.712  10.528  1.00  0.00    -0.353 OA
HETATM   25  C18 UNK     1      21.609  -1.218  10.543  1.00  0.00     0.210 C 
ENDBRANCH  10  24
BRANCH   8  26
HETATM   26  O3  UNK     1      19.114  -4.213  10.753  1.00  0.00    -0.351 OA
HETATM   27  C17 UNK     1      20.319  -4.887  10.399  1.00  0.00     0.210 C 
ENDBRANCH   8  26
TORSDOF 6
ENDMDL
MODEL 4
REMARK VINA RESULT:      -8.0      1.404      1.785
REMARK  6 active torsions:
REMARK  status: ('A' for Active; 'I' for Inactive)
REMARK    1  A    between atoms: C3_10  and  O2_2 
REMARK    2  A    between atoms: C6_13  and  O3_3 
REMARK    3  A    between atoms: C8_15  and  O4_4 
REMARK    4  A    between atoms: C15_22  and  O6_6 
REMARK    5  A    between atoms: C13_20  and  O7_7 
REMARK    6  A    between atoms: C4_11  and  C9_16 
ROOT
HETATM    1  O1  UNK     1      17.892   4.323  33.181  1.00  0.00    -0.309 OA
HETATM    2  O5  UNK     1      18.915   4.146  29.242  1.00  0.00    -0.287 OA
HETATM    3  C1  UNK     1      18.619   2.993  31.282  1.00  0.00     0.084 A 
HETATM    4  C2  UNK     1      18.256   3.124  32.622  1.00  0.00     0.096 A 
HETATM    5  C3  UNK     1      18.979   1.747  30.766  1.00  0.00     0.121 A 
HETATM    6  C4  UNK     1      17.893   5.453  32.379  1.00  0.00     0.090 A 
HETATM    7  C5  UNK     1      18.612   4.189  30.426  1.00  0.00     0.190 A 
HETATM    8  C6  UNK     1      18.976   0.629  31.602  1.00  0.00     0.136 A 
HETATM    9  C7  UNK     1      18.253   2.005  33.456  1.00  0.00     0.078 A 
HETATM   10  C8  UNK     1      18.614   0.758  32.944  1.00  0.00     0.107 A 
HETATM   11  C10 UNK     1      18.216   5.454  31.076  1.00  0.00     0.094 A 
ENDROOT
BRANCH   6  12
HETATM   12  C9  UNK     1      17.482   6.686  33.079  1.00  0.00     0.001 A 
HETATM   13  C11 UNK     1      16.147   6.872  33.449  1.00  0.00     0.053 A 
HETATM   14  C13 UNK     1      15.759   8.037  34.110  1.00  0.00     0.099 A 
HETATM   15  C15 UNK     1      16.703   9.021  34.402  1.00  0.00     0.101 A 
HETATM   16  C14 UNK     1      18.036   8.839  34.034  1.00  0.00     0.040 A 
HETATM   17  C12 UNK     1      18.425   7.674  33.374  1.00  0.00     0.017 A 
BRANCH  14  18
HETATM   18  O7  UNK     1      14.454   8.203  34.464  1.00  0.00    -0.358 OA
HETATM   19  H15 UNK     1      13.917   7.551  33.980  1.00  0.00     0.217 HD
ENDBRANCH  14  18
BRANCH  15  20
HETATM   20  O6  UNK     1      16.337  10.163  35.048  1.00  0.00    -0.353 OA
HETATM   21  C19 UNK     1      16.393  11.377  34.299  1.00  0.00     0.210 C 
ENDBRANCH  15  20
ENDBRANCH   6  12
BRANCH   5  22
HETATM   22  O2  UNK     1      19.341   1.581  29.461  1.00  0.00    -0.352 OA
HETATM   23  C16 UNK     1      18.356   1.046  28.581  1.00  0.00     0.210 C 
ENDBRANCH   5  22
BRANCH  10  24
HETATM   24  O4  UNK     1      18.607  -0.328  33.767  1.00  0.00    -0.353 OA
HETATM   25  C18 UNK     1      18.253  -0.107  35.130  1.00  0.00     0.210 C 
ENDBRANCH  10  24
BRANCH   8  26
HETATM   26  O3  UNK     1      19.327  -0.595  31.111  1.00  0.00    -0.351 OA
HETATM   27  C17 UNK     1      20.714  -0.921  31.123  1.00  0.00     0.210 C 
ENDBRANCH   8  26
TORSDOF 6
ENDMDL
MODEL 5
REMARK VINA RESULT:      -7.9      1.301      3.034
REMARK  6 active torsions:
REMARK  status: ('A' for Active; 'I' for Inactive)
REMARK    1  A    between atoms: C3_10  and  O2_2 
REMARK    2  A    between atoms: C6_13  and  O3_3 
REMARK    3  A    between atoms: C8_15  and  O4_4 
REMARK    4  A    between atoms: C15_22  and  O6_6 
REMARK    5  A    between atoms: C13_20  and  O7_7 
REMARK    6  A    between atoms: C4_11  and  C9_16 
ROOT
HETATM    1  O1  UNK     1      18.174   4.201  31.972  1.00  0.00    -0.309 OA
HETATM    2  O5  UNK     1      18.367   1.898  35.328  1.00  0.00    -0.287 OA
HETATM    3  C1  UNK     1      18.545   2.019  32.975  1.00  0.00     0.084 A 
HETATM    4  C2  UNK     1      18.465   2.864  31.869  1.00  0.00     0.096 A 
HETATM    5  C3  UNK     1      18.845   0.666  32.810  1.00  0.00     0.121 A 
HETATM    6  C4  UNK     1      17.943   4.731  33.233  1.00  0.00     0.090 A 
HETATM    7  C5  UNK     1      18.309   2.580  34.314  1.00  0.00     0.190 A 
HETATM    8  C6  UNK     1      19.064   0.162  31.527  1.00  0.00     0.136 A 
HETATM    9  C7  UNK     1      18.684   2.357  30.587  1.00  0.00     0.078 A 
HETATM   10  C8  UNK     1      18.983   1.005  30.418  1.00  0.00     0.107 A 
HETATM   11  C10 UNK     1      17.998   4.023  34.372  1.00  0.00     0.094 A 
ENDROOT
BRANCH   6  12
HETATM   12  C9  UNK     1      17.645   6.177  33.230  1.00  0.00     0.001 A 
HETATM   13  C11 UNK     1      16.876   6.733  32.205  1.00  0.00     0.053 A 
HETATM   14  C13 UNK     1      16.595   8.099  32.203  1.00  0.00     0.099 A 
HETATM   15  C15 UNK     1      17.082   8.914  33.224  1.00  0.00     0.101 A 
HETATM   16  C14 UNK     1      17.851   8.362  34.249  1.00  0.00     0.040 A 
HETATM   17  C12 UNK     1      18.132   6.996  34.252  1.00  0.00     0.017 A 
BRANCH  14  18
HETATM   18  O7  UNK     1      15.844   8.627  31.196  1.00  0.00    -0.358 OA
HETATM   19  H15 UNK     1      16.139   9.540  31.035  1.00  0.00     0.217 HD
ENDBRANCH  14  18
BRANCH  15  20
HETATM   20  O6  UNK     1      16.814  10.250  33.234  1.00  0.00    -0.353 OA
HETATM   21  C19 UNK     1      15.936  10.727  34.252  1.00  0.00     0.210 C 
ENDBRANCH  15  20
ENDBRANCH   6  12
BRANCH   5  22
HETATM   22  O2  UNK     1      18.931  -0.191  33.868  1.00  0.00    -0.352 OA
HETATM   23  C16 UNK     1      17.782  -0.983  34.153  1.00  0.00     0.210 C 
ENDBRANCH   5  22
BRANCH  10  24
HETATM   24  O4  UNK     1      19.197   0.521  29.163  1.00  0.00    -0.353 OA
HETATM   25  C18 UNK     1      18.222   0.839  28.172  1.00  0.00     0.210 C 
ENDBRANCH  10  24
BRANCH   8  26
HETATM   26  O3  UNK     1      19.358  -1.160  31.352  1.00  0.00    -0.351 OA
HETATM   27  C17 UNK     1      20.737  -1.520  31.354  1.00  0.00     0.210 C 
ENDBRANCH   8  26
TORSDOF 6
ENDMDL
MODEL 6
REMARK VINA RESULT:      -7.8      2.897      9.335
REMARK  6 active torsions:
REMARK  status: ('A' for Active; 'I' for Inactive)
REMARK    1  A    between atoms: C3_10  and  O2_2 
REMARK    2  A    between atoms: C6_13  and  O3_3 
REMARK    3  A    between atoms: C8_15  and  O4_4 
REMARK    4  A    between atoms: C15_22  and  O6_6 
REMARK    5  A    between atoms: C13_20  and  O7_7 
REMARK    6  A    between atoms: C4_11  and  C9_16 
ROOT
HETATM    1  O1  UNK     1      16.628   7.726  32.485  1.00  0.00    -0.309 OA
HETATM    2  O5  UNK     1      19.455   9.971  34.374  1.00  0.00    -0.287 OA
HETATM    3  C1  UNK     1      17.196   9.736  33.727  1.00  0.00     0.084 A 
HETATM    4  C2  UNK     1      16.279   8.919  33.067  1.00  0.00     0.096 A 
HETATM    5  C3  UNK     1      16.783  10.939  34.302  1.00  0.00     0.121 A 
HETATM    6  C4  UNK     1      17.953   7.323  32.552  1.00  0.00     0.090 A 
HETATM    7  C5  UNK     1      18.599   9.306  33.808  1.00  0.00     0.190 A 
HETATM    8  C6  UNK     1      15.443  11.322  34.211  1.00  0.00     0.136 A 
HETATM    9  C7  UNK     1      14.940   9.304  32.977  1.00  0.00     0.078 A 
HETATM   10  C8  UNK     1      14.524  10.506  33.549  1.00  0.00     0.107 A 
HETATM   11  C10 UNK     1      18.925   8.017  33.164  1.00  0.00     0.094 A 
ENDROOT
BRANCH   6  12
HETATM   12  C9  UNK     1      18.217   6.025  31.899  1.00  0.00     0.001 A 
HETATM   13  C11 UNK     1      17.853   4.833  32.531  1.00  0.00     0.053 A 
HETATM   14  C13 UNK     1      18.104   3.608  31.914  1.00  0.00     0.099 A 
HETATM   15  C15 UNK     1      18.721   3.569  30.664  1.00  0.00     0.101 A 
HETATM   16  C14 UNK     1      19.086   4.757  30.030  1.00  0.00     0.040 A 
HETATM   17  C12 UNK     1      18.835   5.983  30.646  1.00  0.00     0.017 A 
BRANCH  14  18
HETATM   18  O7  UNK     1      17.743   2.455  32.544  1.00  0.00    -0.358 OA
HETATM   19  H15 UNK     1      17.561   1.778  31.869  1.00  0.00     0.217 HD
ENDBRANCH  14  18
BRANCH  15  20
HETATM   20  O6  UNK     1      18.971   2.379  30.051  1.00  0.00    -0.353 OA
HETATM   21  C19 UNK     1      18.179   2.061  28.907  1.00  0.00     0.210 C 
ENDBRANCH  15  20
ENDBRANCH   6  12
BRANCH   5  22
HETATM   22  O2  UNK     1      17.651  11.765  34.955  1.00  0.00    -0.352 OA
HETATM   23  C16 UNK     1      18.068  12.940  34.265  1.00  0.00     0.210 C 
ENDBRANCH   5  22
BRANCH  10  24
HETATM   24  O4  UNK     1      13.215  10.872  33.456  1.00  0.00    -0.353 OA
HETATM   25  C18 UNK     1      12.876  11.810  32.438  1.00  0.00     0.210 C 
ENDBRANCH  10  24
BRANCH   8  26
HETATM   26  O3  UNK     1      15.027  12.497  34.768  1.00  0.00    -0.351 OA
HETATM   27  C17 UNK     1      14.575  12.445  36.119  1.00  0.00     0.210 C 
ENDBRANCH   8  26
TORSDOF 6
ENDMDL
MODEL 7
REMARK VINA RESULT:      -7.7     15.478     18.143
REMARK  6 active torsions:
REMARK  status: ('A' for Active; 'I' for Inactive)
REMARK    1  A    between atoms: C3_10  and  O2_2 
REMARK    2  A    between atoms: C6_13  and  O3_3 
REMARK    3  A    between atoms: C8_15  and  O4_4 
REMARK    4  A    between atoms: C15_22  and  O6_6 
REMARK    5  A    between atoms: C13_20  and  O7_7 
REMARK    6  A    between atoms: C4_11  and  C9_16 
ROOT
HETATM    1  O1  UNK     1      18.616  -2.263  16.300  1.00  0.00    -0.309 OA
HETATM    2  O5  UNK     1      19.233  -1.169  12.424  1.00  0.00    -0.287 OA
HETATM    3  C1  UNK     1      18.711  -2.891  13.954  1.00  0.00     0.084 A 
HETATM    4  C2  UNK     1      18.511  -3.197  15.300  1.00  0.00     0.096 A 
HETATM    5  C3  UNK     1      18.590  -3.882  12.979  1.00  0.00     0.121 A 
HETATM    6  C4  UNK     1      18.942  -0.961  15.955  1.00  0.00     0.090 A 
HETATM    7  C5  UNK     1      19.048  -1.508  13.585  1.00  0.00     0.190 A 
HETATM    8  C6  UNK     1      18.267  -5.186  13.359  1.00  0.00     0.136 A 
HETATM    9  C7  UNK     1      18.189  -4.501  15.677  1.00  0.00     0.078 A 
HETATM   10  C8  UNK     1      18.068  -5.495  14.706  1.00  0.00     0.107 A 
HETATM   11  C10 UNK     1      19.152  -0.542  14.697  1.00  0.00     0.094 A 
ENDROOT
BRANCH   6  12
HETATM   12  C9  UNK     1      19.024  -0.038  17.105  1.00  0.00     0.001 A 
HETATM   13  C11 UNK     1      18.954   1.342  16.904  1.00  0.00     0.053 A 
HETATM   14  C13 UNK     1      19.032   2.213  17.991  1.00  0.00     0.099 A 
HETATM   15  C15 UNK     1      19.181   1.707  19.282  1.00  0.00     0.101 A 
HETATM   16  C14 UNK     1      19.252   0.329  19.486  1.00  0.00     0.040 A 
HETATM   17  C12 UNK     1      19.174  -0.542  18.400  1.00  0.00     0.017 A 
BRANCH  14  18
HETATM   18  O7  UNK     1      18.963   3.557  17.779  1.00  0.00    -0.358 OA
HETATM   19  H15 UNK     1      19.829   3.866  17.462  1.00  0.00     0.217 HD
ENDBRANCH  14  18
BRANCH  15  20
HETATM   20  O6  UNK     1      19.258   2.547  20.351  1.00  0.00    -0.353 OA
HETATM   21  C19 UNK     1      19.860   2.031  21.538  1.00  0.00     0.210 C 
ENDBRANCH  15  20
ENDBRANCH   6  12
BRANCH   5  22
HETATM   22  O2  UNK     1      18.779  -3.620  11.654  1.00  0.00    -0.352 OA
HETATM   23  C16 UNK     1      20.068  -3.904  11.116  1.00  0.00     0.210 C 
ENDBRANCH   5  22
BRANCH  10  24
HETATM   24  O4  UNK     1      17.753  -6.765  15.085  1.00  0.00    -0.353 OA
HETATM   25  C18 UNK     1      16.476  -6.963  15.689  1.00  0.00     0.210 C 
ENDBRANCH  10  24
BRANCH   8  26
HETATM   26  O3  UNK     1      18.147  -6.165  12.416  1.00  0.00    -0.351 OA
HETATM   27  C17 UNK     1      19.214  -7.105  12.322  1.00  0.00     0.210 C 
ENDBRANCH   8  26
TORSDOF 6
ENDMDL
MODEL 8
REMARK VINA RESULT:      -7.3      3.365      9.908
REMARK  6 active torsions:
REMARK  status: ('A' for Active; 'I' for Inactive)
REMARK    1  A    between atoms: C3_10  and  O2_2 
REMARK    2  A    between atoms: C6_13  and  O3_3 
REMARK    3  A    between atoms: C8_15  and  O4_4 
REMARK    4  A    between atoms: C15_22  and  O6_6 
REMARK    5  A    between atoms: C13_20  and  O7_7 
REMARK    6  A    between atoms: C4_11  and  C9_16 
ROOT
HETATM    1  O1  UNK     1      17.843   9.055  33.177  1.00  0.00    -0.309 OA
HETATM    2  O5  UNK     1      13.990   9.100  34.500  1.00  0.00    -0.287 OA
HETATM    3  C1  UNK     1      16.046  10.245  34.298  1.00  0.00     0.084 A 
HETATM    4  C2  UNK     1      17.353  10.164  33.820  1.00  0.00     0.096 A 
HETATM    5  C3  UNK     1      15.601  11.400  34.944  1.00  0.00     0.121 A 
HETATM    6  C4  UNK     1      17.002   7.967  33.005  1.00  0.00     0.090 A 
HETATM    7  C5  UNK     1      15.149   9.096  34.109  1.00  0.00     0.190 A 
HETATM    8  C6  UNK     1      16.475  12.476  35.109  1.00  0.00     0.136 A 
HETATM    9  C7  UNK     1      18.225  11.241  33.986  1.00  0.00     0.078 A 
HETATM   10  C8  UNK     1      17.784  12.396  34.632  1.00  0.00     0.107 A 
HETATM   11  C10 UNK     1      15.724   7.926  33.414  1.00  0.00     0.094 A 
ENDROOT
BRANCH   6  12
HETATM   12  C9  UNK     1      17.628   6.831  32.298  1.00  0.00     0.001 A 
HETATM   13  C11 UNK     1      18.364   7.049  31.132  1.00  0.00     0.053 A 
HETATM   14  C13 UNK     1      18.954   5.976  30.464  1.00  0.00     0.099 A 
HETATM   15  C15 UNK     1      18.810   4.681  30.961  1.00  0.00     0.101 A 
HETATM   16  C14 UNK     1      18.075   4.459  32.126  1.00  0.00     0.040 A 
HETATM   17  C12 UNK     1      17.485   5.532  32.793  1.00  0.00     0.017 A 
BRANCH  14  18
HETATM   18  O7  UNK     1      19.669   6.206  29.327  1.00  0.00    -0.358 OA
HETATM   19  H15 UNK     1      20.001   7.120  29.350  1.00  0.00     0.217 HD
ENDBRANCH  14  18
BRANCH  15  20
HETATM   20  O6  UNK     1      19.382   3.625  30.319  1.00  0.00    -0.353 OA
HETATM   21  C19 UNK     1      18.503   2.626  29.804  1.00  0.00     0.210 C 
ENDBRANCH  15  20
ENDBRANCH   6  12
BRANCH   5  22
HETATM   22  O2  UNK     1      14.330  11.516  35.426  1.00  0.00    -0.352 OA
HETATM   23  C16 UNK     1      13.417  12.299  34.662  1.00  0.00     0.210 C 
ENDBRANCH   5  22
BRANCH  10  24
HETATM   24  O4  UNK     1      18.643  13.442  34.789  1.00  0.00    -0.353 OA
HETATM   25  C18 UNK     1      18.720  14.383  33.720  1.00  0.00     0.210 C 
ENDBRANCH  10  24
BRANCH   8  26
HETATM   26  O3  UNK     1      16.053  13.611  35.740  1.00  0.00    -0.351 OA
HETATM   27  C17 UNK     1      16.080  13.605  37.165  1.00  0.00     0.210 C 
ENDBRANCH   8  26
TORSDOF 6
ENDMDL
MODEL 9
REMARK VINA RESULT:      -7.3      2.214      8.063
REMARK  6 active torsions:
REMARK  status: ('A' for Active; 'I' for Inactive)
REMARK    1  A    between atoms: C3_10  and  O2_2 
REMARK    2  A    between atoms: C6_13  and  O3_3 
REMARK    3  A    between atoms: C8_15  and  O4_4 
REMARK    4  A    between atoms: C15_22  and  O6_6 
REMARK    5  A    between atoms: C13_20  and  O7_7 
REMARK    6  A    between atoms: C4_11  and  C9_16 
ROOT
HETATM    1  O1  UNK     1      18.759   0.743  33.916  1.00  0.00    -0.309 OA
HETATM    2  O5  UNK     1      19.517  -0.088  30.000  1.00  0.00    -0.287 OA
HETATM    3  C1  UNK     1      18.874   1.512  31.614  1.00  0.00     0.084 A 
HETATM    4  C2  UNK     1      18.631   1.728  32.970  1.00  0.00     0.096 A 
HETATM    5  C3  UNK     1      18.729   2.553  30.696  1.00  0.00     0.121 A 
HETATM    6  C4  UNK     1      19.139  -0.525  33.501  1.00  0.00     0.090 A 
HETATM    7  C5  UNK     1      19.285   0.171  31.173  1.00  0.00     0.190 A 
HETATM    8  C6  UNK     1      18.338   3.816  31.144  1.00  0.00     0.136 A 
HETATM    9  C7  UNK     1      18.240   2.992  33.415  1.00  0.00     0.078 A 
HETATM   10  C8  UNK     1      18.093   4.035  32.500  1.00  0.00     0.107 A 
HETATM   11  C10 UNK     1      19.406  -0.855  32.228  1.00  0.00     0.094 A 
ENDROOT
BRANCH   6  12
HETATM   12  C9  UNK     1      19.250  -1.506  34.599  1.00  0.00     0.001 A 
HETATM   13  C11 UNK     1      18.485  -1.354  35.757  1.00  0.00     0.053 A 
HETATM   14  C13 UNK     1      18.592  -2.281  36.794  1.00  0.00     0.099 A 
HETATM   15  C15 UNK     1      19.463  -3.363  36.676  1.00  0.00     0.101 A 
HETATM   16  C14 UNK     1      20.228  -3.519  35.520  1.00  0.00     0.040 A 
HETATM   17  C12 UNK     1      20.122  -2.592  34.483  1.00  0.00     0.017 A 
BRANCH  14  18
HETATM   18  O7  UNK     1      17.839  -2.118  37.918  1.00  0.00    -0.358 OA
HETATM   19  H15 UNK     1      17.270  -1.338  37.799  1.00  0.00     0.217 HD
ENDBRANCH  14  18
BRANCH  15  20
HETATM   20  O6  UNK     1      19.575  -4.276  37.681  1.00  0.00    -0.353 OA
HETATM   21  C19 UNK     1      20.790  -5.023  37.744  1.00  0.00     0.210 C 
ENDBRANCH  15  20
ENDBRANCH   6  12
BRANCH   5  22
HETATM   22  O2  UNK     1      18.956   2.380  29.362  1.00  0.00    -0.352 OA
HETATM   23  C16 UNK     1      17.823   2.102  28.543  1.00  0.00     0.210 C 
ENDBRANCH   5  22
BRANCH  10  24
HETATM   24  O4  UNK     1      17.711   5.265  32.946  1.00  0.00    -0.353 OA
HETATM   25  C18 UNK     1      18.662   6.000  33.713  1.00  0.00     0.210 C 
ENDBRANCH  10  24
BRANCH   8  26
HETATM   26  O3  UNK     1      18.191   4.843  30.256  1.00  0.00    -0.351 OA
HETATM   27  C17 UNK     1      19.339   5.653  30.012  1.00  0.00     0.210 C 
ENDBRANCH   8  26
TORSDOF 6
ENDMDL
MODEL 10
REMARK VINA RESULT:      -7.1     23.589     26.028
REMARK  6 active torsions:
REMARK  status: ('A' for Active; 'I' for Inactive)
REMARK    1  A    between atoms: C3_10  and  O2_2 
REMARK    2  A    between atoms: C6_13  and  O3_3 
REMARK    3  A    between atoms: C8_15  and  O4_4 
REMARK    4  A    between atoms: C15_22  and  O6_6 
REMARK    5  A    between atoms: C13_20  and  O7_7 
REMARK    6  A    between atoms: C4_11  and  C9_16 
ROOT
HETATM    1  O1  UNK     1      14.520   9.769   8.190  1.00  0.00    -0.309 OA
HETATM    2  O5  UNK     1      17.920   8.819  10.223  1.00  0.00    -0.287 OA
HETATM    3  C1  UNK     1      16.783  10.363   8.843  1.00  0.00     0.084 A 
HETATM    4  C2  UNK     1      15.590  10.627   8.171  1.00  0.00     0.096 A 
HETATM    5  C3  UNK     1      17.839  11.274   8.790  1.00  0.00     0.121 A 
HETATM    6  C4  UNK     1      14.635   8.585   8.902  1.00  0.00     0.090 A 
HETATM    7  C5  UNK     1      16.905   9.112   9.607  1.00  0.00     0.190 A 
HETATM    8  C6  UNK     1      17.695  12.453   8.057  1.00  0.00     0.136 A 
HETATM    9  C7  UNK     1      15.448  11.807   7.439  1.00  0.00     0.078 A 
HETATM   10  C8  UNK     1      16.502  12.719   7.383  1.00  0.00     0.107 A 
HETATM   11  C10 UNK     1      15.727   8.222   9.594  1.00  0.00     0.094 A 
ENDROOT
BRANCH   6  12
HETATM   12  C9  UNK     1      13.425   7.739   8.860  1.00  0.00     0.001 A 
HETATM   13  C11 UNK     1      13.296   6.654   9.730  1.00  0.00     0.053 A 
HETATM   14  C13 UNK     1      12.153   5.855   9.688  1.00  0.00     0.099 A 
HETATM   15  C15 UNK     1      11.137   6.137   8.777  1.00  0.00     0.101 A 
HETATM   16  C14 UNK     1      11.262   7.220   7.906  1.00  0.00     0.040 A 
HETATM   17  C12 UNK     1      12.404   8.020   7.947  1.00  0.00     0.017 A 
BRANCH  14  18
HETATM   18  O7  UNK     1      12.043   4.800  10.543  1.00  0.00    -0.358 OA
HETATM   19  H15 UNK     1      11.116   4.730  10.830  1.00  0.00     0.217 HD
ENDBRANCH  14  18
BRANCH  15  20
HETATM   20  O6  UNK     1      10.016   5.365   8.727  1.00  0.00    -0.353 OA
HETATM   21  C19 UNK     1       8.763   6.046   8.667  1.00  0.00     0.210 C 
ENDBRANCH  15  20
ENDBRANCH   6  12
BRANCH   5  22
HETATM   22  O2  UNK     1      19.021  11.050   9.433  1.00  0.00    -0.352 OA
HETATM   23  C16 UNK     1      19.308  11.869  10.563  1.00  0.00     0.210 C 
ENDBRANCH   5  22
BRANCH  10  24
HETATM   24  O4  UNK     1      16.353  13.868   6.666  1.00  0.00    -0.353 OA
HETATM   25  C18 UNK     1      15.020  14.298   6.401  1.00  0.00     0.210 C 
ENDBRANCH  10  24
BRANCH   8  26
HETATM   26  O3  UNK     1      18.721  13.352   7.997  1.00  0.00    -0.351 OA
HETATM   27  C17 UNK     1      19.652  13.197   6.928  1.00  0.00     0.210 C 
ENDBRANCH   8  26
TORSDOF 6
ENDMDL
