MODEL 1
REMARK VINA RESULT:      -9.1      0.000      0.000
REMARK  4 active torsions:
REMARK  status: ('A' for Active; 'I' for Inactive)
REMARK    1  A    between atoms: C1_8  and  S1_1 
REMARK    2  A    between atoms: N1_7  and  S1_1 
REMARK    3  A    between atoms: C4_11  and  N1_7 
REMARK    4  A    between atoms: C4_11  and  C8_15 
ROOT
HETATM    1  O1  UNK     1      20.951  -2.818  30.527  1.00  0.00    -0.275 OA
HETATM    2  O5  UNK     1      21.620  -4.497  31.933  1.00  0.00    -0.260 OA
HETATM    3  C1  UNK     1      19.054   0.860  29.955  1.00  0.00     0.080 A 
HETATM    4  C2  UNK     1      19.758  -0.907  31.450  1.00  0.00    -0.001 A 
HETATM    5  C3  UNK     1      19.126   0.321  31.242  1.00  0.00     0.039 A 
HETATM    6  C5  UNK     1      19.611   0.177  28.871  1.00  0.00     0.028 A 
HETATM    7  C6  UNK     1      20.306  -1.575  30.359  1.00  0.00     0.089 A 
HETATM    8  C7  UNK     1      20.242  -1.049  29.070  1.00  0.00     0.040 A 
HETATM    9  C9  UNK     1      19.860  -1.513  32.767  1.00  0.00     0.020 A 
HETATM   10  C11 UNK     1      20.473  -2.691  32.918  1.00  0.00     0.083 A 
HETATM   11  C12 UNK     1      21.062  -3.416  31.778  1.00  0.00     0.288 A 
ENDROOT
BRANCH   3  12
HETATM   12  S1  UNK     1      18.262   2.397  29.699  1.00  0.00     0.259 S 
HETATM   13  O2  UNK     1      18.001   2.558  28.275  1.00  0.00    -0.201 OA
HETATM   14  O3  UNK     1      17.156   2.488  30.642  1.00  0.00    -0.201 OA
BRANCH  12  15
HETATM   15  N1  UNK     1      19.469   3.514  30.164  1.00  0.00    -0.309 N 
HETATM   16  H2  UNK     1      20.456   3.274  30.012  1.00  0.00     0.172 HD
BRANCH  15  17
HETATM   17  C4  UNK     1      19.147   4.947  30.249  1.00  0.00     0.197 C 
BRANCH  17  18
HETATM   18  C8  UNK     1      19.128   5.494  31.650  1.00  0.00     0.070 A 
HETATM   19  C10 UNK     1      20.054   6.166  32.371  1.00  0.00     0.036 A 
HETATM   20  C13 UNK     1      19.439   6.405  33.624  1.00  0.00     0.027 A 
HETATM   21  C14 UNK     1      18.183   5.850  33.545  1.00  0.00     0.142 A 
HETATM   22  O4  UNK     1      17.986   5.284  32.325  1.00  0.00    -0.325 OA
ENDBRANCH  17  18
ENDBRANCH  15  17
ENDBRANCH  12  15
ENDBRANCH   3  12
TORSDOF 4
ENDMDL
MODEL 2
REMARK VINA RESULT:      -8.6      3.475      6.226
REMARK  4 active torsions:
REMARK  status: ('A' for Active; 'I' for Inactive)
REMARK    1  A    between atoms: C1_8  and  S1_1 
REMARK    2  A    between atoms: N1_7  and  S1_1 
REMARK    3  A    between atoms: C4_11  and  N1_7 
REMARK    4  A    between atoms: C4_11  and  C8_15 
ROOT
HETATM    1  O1  UNK     1      18.945   0.549  28.563  1.00  0.00    -0.275 OA
HETATM    2  O5  UNK     1      17.858   2.440  27.867  1.00  0.00    -0.260 OA
HETATM    3  C1  UNK     1      20.535  -1.759  31.662  1.00  0.00     0.080 A 
HETATM    4  C2  UNK     1      19.383   0.243  30.938  1.00  0.00    -0.001 A 
HETATM    5  C3  UNK     1      19.920  -0.540  31.963  1.00  0.00     0.039 A 
HETATM    6  C5  UNK     1      20.616  -2.201  30.339  1.00  0.00     0.028 A 
HETATM    7  C6  UNK     1      19.474  -0.212  29.626  1.00  0.00     0.089 A 
HETATM    8  C7  UNK     1      20.083  -1.426  29.311  1.00  0.00     0.040 A 
HETATM    9  C9  UNK     1      18.735   1.517  31.195  1.00  0.00     0.020 A 
HETATM   10  C11 UNK     1      18.236   2.233  30.183  1.00  0.00     0.083 A 
HETATM   11  C12 UNK     1      18.319   1.772  28.785  1.00  0.00     0.288 A 
ENDROOT
BRANCH   3  12
HETATM   12  S1  UNK     1      21.205  -2.734  32.946  1.00  0.00     0.259 S 
HETATM   13  O2  UNK     1      21.426  -4.084  32.444  1.00  0.00    -0.201 OA
HETATM   14  O3  UNK     1      22.321  -1.998  33.526  1.00  0.00    -0.201 OA
BRANCH  12  15
HETATM   15  N1  UNK     1      19.929  -2.776  34.082  1.00  0.00    -0.309 N 
HETATM   16  H2  UNK     1      19.118  -3.378  33.898  1.00  0.00     0.172 HD
BRANCH  15  17
HETATM   17  C4  UNK     1      20.189  -2.435  35.489  1.00  0.00     0.197 C 
BRANCH  17  18
HETATM   18  C8  UNK     1      19.265  -1.391  36.053  1.00  0.00     0.070 A 
HETATM   19  C10 UNK     1      18.321  -1.446  37.019  1.00  0.00     0.036 A 
HETATM   20  C13 UNK     1      17.794  -0.134  37.091  1.00  0.00     0.027 A 
HETATM   21  C14 UNK     1      18.475   0.603  36.151  1.00  0.00     0.142 A 
HETATM   22  O4  UNK     1      19.387  -0.171  35.506  1.00  0.00    -0.325 OA
ENDBRANCH  17  18
ENDBRANCH  15  17
ENDBRANCH  12  15
ENDBRANCH   3  12
TORSDOF 4
ENDMDL
MODEL 3
REMARK VINA RESULT:      -8.3      3.422      7.550
REMARK  4 active torsions:
REMARK  status: ('A' for Active; 'I' for Inactive)
REMARK    1  A    between atoms: C1_8  and  S1_1 
REMARK    2  A    between atoms: N1_7  and  S1_1 
REMARK    3  A    between atoms: C4_11  and  N1_7 
REMARK    4  A    between atoms: C4_11  and  C8_15 
ROOT
HETATM    1  O1  UNK     1      18.920   0.718  28.504  1.00  0.00    -0.275 OA
HETATM    2  O5  UNK     1      17.820   2.614  27.842  1.00  0.00    -0.260 OA
HETATM    3  C1  UNK     1      20.486  -1.656  31.565  1.00  0.00     0.080 A 
HETATM    4  C2  UNK     1      19.321   0.351  30.877  1.00  0.00    -0.001 A 
HETATM    5  C3  UNK     1      19.850  -0.454  31.889  1.00  0.00     0.039 A 
HETATM    6  C5  UNK     1      20.596  -2.059  30.232  1.00  0.00     0.028 A 
HETATM    7  C6  UNK     1      19.440  -0.066  29.554  1.00  0.00     0.089 A 
HETATM    8  C7  UNK     1      20.071  -1.262  29.216  1.00  0.00     0.040 A 
HETATM    9  C9  UNK     1      18.651   1.609  31.157  1.00  0.00     0.020 A 
HETATM   10  C11 UNK     1      18.161   2.347  30.157  1.00  0.00     0.083 A 
HETATM   11  C12 UNK     1      18.274   1.926  28.749  1.00  0.00     0.288 A 
ENDROOT
BRANCH   3  12
HETATM   12  S1  UNK     1      21.147  -2.658  32.834  1.00  0.00     0.259 S 
HETATM   13  O2  UNK     1      21.302  -4.015  32.326  1.00  0.00    -0.201 OA
HETATM   14  O3  UNK     1      22.303  -1.967  33.388  1.00  0.00    -0.201 OA
BRANCH  12  15
HETATM   15  N1  UNK     1      19.897  -2.650  33.999  1.00  0.00    -0.309 N 
HETATM   16  H2  UNK     1      19.007  -3.114  33.778  1.00  0.00     0.172 HD
BRANCH  15  17
HETATM   17  C4  UNK     1      20.225  -2.503  35.425  1.00  0.00     0.197 C 
BRANCH  17  18
HETATM   18  C8  UNK     1      20.248  -3.798  36.190  1.00  0.00     0.070 A 
HETATM   19  C10 UNK     1      20.320  -4.065  37.513  1.00  0.00     0.036 A 
HETATM   20  C13 UNK     1      20.302  -5.478  37.603  1.00  0.00     0.027 A 
HETATM   21  C14 UNK     1      20.218  -5.942  36.311  1.00  0.00     0.142 A 
HETATM   22  O4  UNK     1      20.184  -4.905  35.433  1.00  0.00    -0.325 OA
ENDBRANCH  17  18
ENDBRANCH  15  17
ENDBRANCH  12  15
ENDBRANCH   3  12
TORSDOF 4
ENDMDL
MODEL 4
REMARK VINA RESULT:      -8.3      1.783      7.422
REMARK  4 active torsions:
REMARK  status: ('A' for Active; 'I' for Inactive)
REMARK    1  A    between atoms: C1_8  and  S1_1 
REMARK    2  A    between atoms: N1_7  and  S1_1 
REMARK    3  A    between atoms: C4_11  and  N1_7 
REMARK    4  A    between atoms: C4_11  and  C8_15 
ROOT
HETATM    1  O1  UNK     1      19.754   7.652  33.049  1.00  0.00    -0.275 OA
HETATM    2  O5  UNK     1      19.345   9.056  34.811  1.00  0.00    -0.260 OA
HETATM    3  C1  UNK     1      18.734   4.259  30.835  1.00  0.00     0.080 A 
HETATM    4  C2  UNK     1      18.292   5.737  32.700  1.00  0.00    -0.001 A 
HETATM    5  C3  UNK     1      17.964   4.605  31.949  1.00  0.00     0.039 A 
HETATM    6  C5  UNK     1      19.832   5.039  30.466  1.00  0.00     0.028 A 
HETATM    7  C6  UNK     1      19.390   6.503  32.318  1.00  0.00     0.089 A 
HETATM    8  C7  UNK     1      20.166   6.170  31.209  1.00  0.00     0.040 A 
HETATM    9  C9  UNK     1      17.527   6.142  33.866  1.00  0.00     0.020 A 
HETATM   10  C11 UNK     1      17.877   7.232  34.554  1.00  0.00     0.083 A 
HETATM   11  C12 UNK     1      19.036   8.059  34.169  1.00  0.00     0.288 A 
ENDROOT
BRANCH   3  12
HETATM   12  S1  UNK     1      18.321   2.842  29.901  1.00  0.00     0.259 S 
HETATM   13  O2  UNK     1      17.154   2.209  30.500  1.00  0.00    -0.201 OA
HETATM   14  O3  UNK     1      18.279   3.233  28.498  1.00  0.00    -0.201 OA
BRANCH  12  15
HETATM   15  N1  UNK     1      19.677   1.831  30.144  1.00  0.00    -0.309 N 
HETATM   16  H2  UNK     1      20.360   2.080  30.870  1.00  0.00     0.172 HD
BRANCH  15  17
HETATM   17  C4  UNK     1      19.611   0.412  29.762  1.00  0.00     0.197 C 
BRANCH  17  18
HETATM   18  C8  UNK     1      19.704  -0.544  30.920  1.00  0.00     0.070 A 
HETATM   19  C10 UNK     1      20.563  -1.551  31.194  1.00  0.00     0.036 A 
HETATM   20  C13 UNK     1      20.126  -2.077  32.435  1.00  0.00     0.027 A 
HETATM   21  C14 UNK     1      19.031  -1.331  32.801  1.00  0.00     0.142 A 
HETATM   22  O4  UNK     1      18.765  -0.380  31.866  1.00  0.00    -0.325 OA
ENDBRANCH  17  18
ENDBRANCH  15  17
ENDBRANCH  12  15
ENDBRANCH   3  12
TORSDOF 4
ENDMDL
MODEL 5
REMARK VINA RESULT:      -8.1      6.748      8.941
REMARK  4 active torsions:
REMARK  status: ('A' for Active; 'I' for Inactive)
REMARK    1  A    between atoms: C1_8  and  S1_1 
REMARK    2  A    between atoms: N1_7  and  S1_1 
REMARK    3  A    between atoms: C4_11  and  N1_7 
REMARK    4  A    between atoms: C4_11  and  C8_15 
ROOT
HETATM    1  O1  UNK     1      19.306  -9.602  36.993  1.00  0.00    -0.275 OA
HETATM    2  O5  UNK     1      19.413 -11.514  38.248  1.00  0.00    -0.260 OA
HETATM    3  C1  UNK     1      19.688  -5.451  36.712  1.00  0.00     0.080 A 
HETATM    4  C2  UNK     1      19.805  -7.466  38.048  1.00  0.00    -0.001 A 
HETATM    5  C3  UNK     1      19.928  -6.079  37.938  1.00  0.00     0.039 A 
HETATM    6  C5  UNK     1      19.325  -6.204  35.593  1.00  0.00     0.028 A 
HETATM    7  C6  UNK     1      19.442  -8.200  36.923  1.00  0.00     0.089 A 
HETATM    8  C7  UNK     1      19.200  -7.589  35.694  1.00  0.00     0.040 A 
HETATM    9  C9  UNK     1      20.042  -8.168  39.297  1.00  0.00     0.020 A 
HETATM   10  C11 UNK     1      19.912  -9.496  39.356  1.00  0.00     0.083 A 
HETATM   11  C12 UNK     1      19.529 -10.296  38.178  1.00  0.00     0.288 A 
ENDROOT
BRANCH   3  12
HETATM   12  S1  UNK     1      19.842  -3.716  36.579  1.00  0.00     0.259 S 
HETATM   13  O2  UNK     1      20.536  -3.215  37.758  1.00  0.00    -0.201 OA
HETATM   14  O3  UNK     1      20.376  -3.418  35.257  1.00  0.00    -0.201 OA
BRANCH  12  15
HETATM   15  N1  UNK     1      18.215  -3.196  36.640  1.00  0.00    -0.309 N 
HETATM   16  H2  UNK     1      17.468  -3.899  36.680  1.00  0.00     0.172 HD
BRANCH  15  17
HETATM   17  C4  UNK     1      17.892  -1.863  37.173  1.00  0.00     0.197 C 
BRANCH  17  18
HETATM   18  C8  UNK     1      17.608  -0.829  36.118  1.00  0.00     0.070 A 
HETATM   19  C10 UNK     1      16.454  -0.274  35.684  1.00  0.00     0.036 A 
HETATM   20  C13 UNK     1      16.844   0.636  34.672  1.00  0.00     0.027 A 
HETATM   21  C14 UNK     1      18.214   0.548  34.586  1.00  0.00     0.142 A 
HETATM   22  O4  UNK     1      18.691  -0.358  35.480  1.00  0.00    -0.325 OA
ENDBRANCH  17  18
ENDBRANCH  15  17
ENDBRANCH  12  15
ENDBRANCH   3  12
TORSDOF 4
ENDMDL
MODEL 6
REMARK VINA RESULT:      -8.0      4.351      6.453
REMARK  4 active torsions:
REMARK  status: ('A' for Active; 'I' for Inactive)
REMARK    1  A    between atoms: C1_8  and  S1_1 
REMARK    2  A    between atoms: N1_7  and  S1_1 
REMARK    3  A    between atoms: C4_11  and  N1_7 
REMARK    4  A    between atoms: C4_11  and  C8_15 
ROOT
HETATM    1  O1  UNK     1      18.786   0.551  30.414  1.00  0.00    -0.275 OA
HETATM    2  O5  UNK     1      19.002   0.941  28.168  1.00  0.00    -0.260 OA
HETATM    3  C1  UNK     1      19.725  -1.738  33.780  1.00  0.00     0.080 A 
HETATM    4  C2  UNK     1      19.961  -1.336  31.406  1.00  0.00    -0.001 A 
HETATM    5  C3  UNK     1      20.265  -2.091  32.541  1.00  0.00     0.039 A 
HETATM    6  C5  UNK     1      18.880  -0.631  33.892  1.00  0.00     0.028 A 
HETATM    7  C6  UNK     1      19.118  -0.236  31.536  1.00  0.00     0.089 A 
HETATM    8  C7  UNK     1      18.572   0.128  32.765  1.00  0.00     0.040 A 
HETATM    9  C9  UNK     1      20.495  -1.658  30.094  1.00  0.00     0.020 A 
HETATM   10  C11 UNK     1      20.177  -0.908  29.036  1.00  0.00     0.083 A 
HETATM   11  C12 UNK     1      19.286   0.262  29.148  1.00  0.00     0.288 A 
ENDROOT
BRANCH   3  12
HETATM   12  S1  UNK     1      20.107  -2.687  35.197  1.00  0.00     0.259 S 
HETATM   13  O2  UNK     1      20.363  -4.061  34.786  1.00  0.00    -0.201 OA
HETATM   14  O3  UNK     1      21.123  -1.966  35.952  1.00  0.00    -0.201 OA
BRANCH  12  15
HETATM   15  N1  UNK     1      18.642  -2.644  36.075  1.00  0.00    -0.309 N 
HETATM   16  H2  UNK     1      17.941  -3.377  35.912  1.00  0.00     0.172 HD
BRANCH  15  17
HETATM   17  C4  UNK     1      18.588  -1.961  37.377  1.00  0.00     0.197 C 
BRANCH  17  18
HETATM   18  C8  UNK     1      17.846  -0.652  37.357  1.00  0.00     0.070 A 
HETATM   19  C10 UNK     1      16.868  -0.179  36.553  1.00  0.00     0.036 A 
HETATM   20  C13 UNK     1      16.586   1.119  37.044  1.00  0.00     0.027 A 
HETATM   21  C14 UNK     1      17.429   1.314  38.113  1.00  0.00     0.142 A 
HETATM   22  O4  UNK     1      18.211   0.220  38.311  1.00  0.00    -0.325 OA
ENDBRANCH  17  18
ENDBRANCH  15  17
ENDBRANCH  12  15
ENDBRANCH   3  12
TORSDOF 4
ENDMDL
MODEL 7
REMARK VINA RESULT:      -7.9     22.250     24.806
REMARK  4 active torsions:
REMARK  status: ('A' for Active; 'I' for Inactive)
REMARK    1  A    between atoms: C1_8  and  S1_1 
REMARK    2  A    between atoms: N1_7  and  S1_1 
REMARK    3  A    between atoms: C4_11  and  N1_7 
REMARK    4  A    between atoms: C4_11  and  C8_15 
ROOT
HETATM    1  O1  UNK     1      18.147  10.380   9.447  1.00  0.00    -0.275 OA
HETATM    2  O5  UNK     1      18.821  12.462   8.772  1.00  0.00    -0.260 OA
HETATM    3  C1  UNK     1      15.150   7.485   9.747  1.00  0.00     0.080 A 
HETATM    4  C2  UNK     1      15.852   9.687   9.027  1.00  0.00    -0.001 A 
HETATM    5  C3  UNK     1      14.861   8.708   9.135  1.00  0.00     0.039 A 
HETATM    6  C5  UNK     1      16.428   7.233  10.251  1.00  0.00     0.028 A 
HETATM    7  C6  UNK     1      17.120   9.419   9.536  1.00  0.00     0.089 A 
HETATM    8  C7  UNK     1      17.423   8.204  10.147  1.00  0.00     0.040 A 
HETATM    9  C9  UNK     1      15.605  10.975   8.402  1.00  0.00     0.020 A 
HETATM   10  C11 UNK     1      16.583  11.881   8.322  1.00  0.00     0.083 A 
HETATM   11  C12 UNK     1      17.934  11.620   8.853  1.00  0.00     0.288 A 
ENDROOT
BRANCH   3  12
HETATM   12  S1  UNK     1      13.907   6.265   9.880  1.00  0.00     0.259 S 
HETATM   13  O2  UNK     1      14.463   5.103  10.561  1.00  0.00    -0.201 OA
HETATM   14  O3  UNK     1      12.714   6.904  10.420  1.00  0.00    -0.201 OA
BRANCH  12  15
HETATM   15  N1  UNK     1      13.616   5.855   8.248  1.00  0.00    -0.309 N 
HETATM   16  H2  UNK     1      14.387   5.921   7.572  1.00  0.00     0.172 HD
BRANCH  15  17
HETATM   17  C4  UNK     1      12.521   4.933   7.908  1.00  0.00     0.197 C 
BRANCH  17  18
HETATM   18  C8  UNK     1      11.370   5.580   7.188  1.00  0.00     0.070 A 
HETATM   19  C10 UNK     1      11.287   6.207   5.994  1.00  0.00     0.036 A 
HETATM   20  C13 UNK     1       9.931   6.597   5.878  1.00  0.00     0.027 A 
HETATM   21  C14 UNK     1       9.310   6.165   7.026  1.00  0.00     0.142 A 
HETATM   22  O4  UNK     1      10.197   5.535   7.841  1.00  0.00    -0.325 OA
ENDBRANCH  17  18
ENDBRANCH  15  17
ENDBRANCH  12  15
ENDBRANCH   3  12
TORSDOF 4
ENDMDL
MODEL 8
REMARK VINA RESULT:      -7.9      4.311      6.501
REMARK  4 active torsions:
REMARK  status: ('A' for Active; 'I' for Inactive)
REMARK    1  A    between atoms: C1_8  and  S1_1 
REMARK    2  A    between atoms: N1_7  and  S1_1 
REMARK    3  A    between atoms: C4_11  and  N1_7 
REMARK    4  A    between atoms: C4_11  and  C8_15 
ROOT
HETATM    1  O1  UNK     1      17.818   2.828  31.464  1.00  0.00    -0.275 OA
HETATM    2  O5  UNK     1      17.707   1.528  29.581  1.00  0.00    -0.260 OA
HETATM    3  C1  UNK     1      18.940   6.403  33.312  1.00  0.00     0.080 A 
HETATM    4  C2  UNK     1      18.827   5.038  31.317  1.00  0.00    -0.001 A 
HETATM    5  C3  UNK     1      19.197   6.227  31.949  1.00  0.00     0.039 A 
HETATM    6  C5  UNK     1      18.314   5.393  34.048  1.00  0.00     0.028 A 
HETATM    7  C6  UNK     1      18.205   4.043  32.065  1.00  0.00     0.089 A 
HETATM    8  C7  UNK     1      17.942   4.204  33.424  1.00  0.00     0.040 A 
HETATM    9  C9  UNK     1      19.071   4.804  29.904  1.00  0.00     0.020 A 
HETATM   10  C11 UNK     1      18.701   3.651  29.340  1.00  0.00     0.083 A 
HETATM   11  C12 UNK     1      18.040   2.582  30.112  1.00  0.00     0.288 A 
ENDROOT
BRANCH   3  12
HETATM   12  S1  UNK     1      19.405   7.891  34.100  1.00  0.00     0.259 S 
HETATM   13  O2  UNK     1      19.147   7.766  35.528  1.00  0.00    -0.201 OA
HETATM   14  O3  UNK     1      20.745   8.234  33.645  1.00  0.00    -0.201 OA
BRANCH  12  15
HETATM   15  N1  UNK     1      18.300   9.017  33.441  1.00  0.00    -0.309 N 
HETATM   16  H2  UNK     1      18.408   9.305  32.461  1.00  0.00     0.172 HD
BRANCH  15  17
HETATM   17  C4  UNK     1      16.955   9.149  34.022  1.00  0.00     0.197 C 
BRANCH  17  18
HETATM   18  C8  UNK     1      15.897   8.342  33.319  1.00  0.00     0.070 A 
HETATM   19  C10 UNK     1      15.802   7.886  32.050  1.00  0.00     0.036 A 
HETATM   20  C13 UNK     1      14.569   7.192  32.003  1.00  0.00     0.027 A 
HETATM   21  C14 UNK     1      14.026   7.291  33.262  1.00  0.00     0.142 A 
HETATM   22  O4  UNK     1      14.845   8.003  34.081  1.00  0.00    -0.325 OA
ENDBRANCH  17  18
ENDBRANCH  15  17
ENDBRANCH  12  15
ENDBRANCH   3  12
TORSDOF 4
ENDMDL
MODEL 9
REMARK VINA RESULT:      -7.8      2.125      2.585
REMARK  4 active torsions:
REMARK  status: ('A' for Active; 'I' for Inactive)
REMARK    1  A    between atoms: C1_8  and  S1_1 
REMARK    2  A    between atoms: N1_7  and  S1_1 
REMARK    3  A    between atoms: C4_11  and  N1_7 
REMARK    4  A    between atoms: C4_11  and  C8_15 
ROOT
HETATM    1  O1  UNK     1      21.010  -2.913  30.593  1.00  0.00    -0.275 OA
HETATM    2  O5  UNK     1      21.635  -4.660  31.935  1.00  0.00    -0.260 OA
HETATM    3  C1  UNK     1      19.185   0.819  30.154  1.00  0.00     0.080 A 
HETATM    4  C2  UNK     1      19.842  -1.021  31.582  1.00  0.00    -0.001 A 
HETATM    5  C3  UNK     1      19.235   0.227  31.419  1.00  0.00     0.039 A 
HETATM    6  C5  UNK     1      19.741   0.171  29.049  1.00  0.00     0.028 A 
HETATM    7  C6  UNK     1      20.390  -1.653  30.470  1.00  0.00     0.089 A 
HETATM    8  C7  UNK     1      20.349  -1.074  29.203  1.00  0.00     0.040 A 
HETATM    9  C9  UNK     1      19.920  -1.682  32.874  1.00  0.00     0.020 A 
HETATM   10  C11 UNK     1      20.510  -2.875  32.983  1.00  0.00     0.083 A 
HETATM   11  C12 UNK     1      21.097  -3.564  31.819  1.00  0.00     0.288 A 
ENDROOT
BRANCH   3  12
HETATM   12  S1  UNK     1      18.424   2.379  29.954  1.00  0.00     0.259 S 
HETATM   13  O2  UNK     1      19.458   3.406  29.937  1.00  0.00    -0.201 OA
HETATM   14  O3  UNK     1      17.498   2.281  28.834  1.00  0.00    -0.201 OA
BRANCH  12  15
HETATM   15  N1  UNK     1      17.522   2.536  31.397  1.00  0.00    -0.309 N 
HETATM   16  H2  UNK     1      16.765   1.868  31.586  1.00  0.00     0.172 HD
BRANCH  15  17
HETATM   17  C4  UNK     1      18.117   3.204  32.564  1.00  0.00     0.197 C 
BRANCH  17  18
HETATM   18  C8  UNK     1      18.053   2.401  33.835  1.00  0.00     0.070 A 
HETATM   19  C10 UNK     1      18.705   2.519  35.013  1.00  0.00     0.036 A 
HETATM   20  C13 UNK     1      18.209   1.461  35.813  1.00  0.00     0.027 A 
HETATM   21  C14 UNK     1      17.291   0.793  35.037  1.00  0.00     0.142 A 
HETATM   22  O4  UNK     1      17.191   1.371  33.811  1.00  0.00    -0.325 OA
ENDBRANCH  17  18
ENDBRANCH  15  17
ENDBRANCH  12  15
ENDBRANCH   3  12
TORSDOF 4
ENDMDL
MODEL 10
REMARK VINA RESULT:      -7.8      6.324      7.891
REMARK  4 active torsions:
REMARK  status: ('A' for Active; 'I' for Inactive)
REMARK    1  A    between atoms: C1_8  and  S1_1 
REMARK    2  A    between atoms: N1_7  and  S1_1 
REMARK    3  A    between atoms: C4_11  and  N1_7 
REMARK    4  A    between atoms: C4_11  and  C8_15 
ROOT
HETATM    1  O1  UNK     1      20.508   6.339  32.672  1.00  0.00    -0.275 OA
HETATM    2  O5  UNK     1      22.386   5.713  31.521  1.00  0.00    -0.260 OA
HETATM    3  C1  UNK     1      16.411   7.157  32.710  1.00  0.00     0.080 A 
HETATM    4  C2  UNK     1      18.389   6.493  31.484  1.00  0.00    -0.001 A 
HETATM    5  C3  UNK     1      17.020   6.771  31.513  1.00  0.00     0.039 A 
HETATM    6  C5  UNK     1      17.164   7.267  33.882  1.00  0.00     0.028 A 
HETATM    7  C6  UNK     1      19.124   6.609  32.660  1.00  0.00     0.089 A 
HETATM    8  C7  UNK     1      18.530   6.992  33.861  1.00  0.00     0.040 A 
HETATM    9  C9  UNK     1      19.072   6.089  30.267  1.00  0.00     0.020 A 
HETATM   10  C11 UNK     1      20.383   5.834  30.286  1.00  0.00     0.083 A 
HETATM   11  C12 UNK     1      21.183   5.949  31.520  1.00  0.00     0.288 A 
ENDROOT
BRANCH   3  12
HETATM   12  S1  UNK     1      14.699   7.504  32.742  1.00  0.00     0.259 S 
HETATM   13  O2  UNK     1      14.042   6.715  31.708  1.00  0.00    -0.201 OA
HETATM   14  O3  UNK     1      14.249   7.388  34.123  1.00  0.00    -0.201 OA
BRANCH  12  15
HETATM   15  N1  UNK     1      14.649   9.151  32.288  1.00  0.00    -0.309 N 
HETATM   16  H2  UNK     1      14.576   9.391  31.292  1.00  0.00     0.172 HD
BRANCH  15  17
HETATM   17  C4  UNK     1      14.169  10.159  33.245  1.00  0.00     0.197 C 
BRANCH  17  18
HETATM   18  C8  UNK     1      15.263  10.944  33.916  1.00  0.00     0.070 A 
HETATM   19  C10 UNK     1      15.235  11.893  34.878  1.00  0.00     0.036 A 
HETATM   20  C13 UNK     1      16.591  12.246  35.083  1.00  0.00     0.027 A 
HETATM   21  C14 UNK     1      17.323  11.469  34.217  1.00  0.00     0.142 A 
HETATM   22  O4  UNK     1      16.505  10.662  33.491  1.00  0.00    -0.325 OA
ENDBRANCH  17  18
ENDBRANCH  15  17
ENDBRANCH  12  15
ENDBRANCH   3  12
TORSDOF 4
ENDMDL
