MODEL 1
REMARK VINA RESULT:     -11.2      0.000      0.000
REMARK  5 active torsions:
REMARK  status: ('A' for Active; 'I' for Inactive)
REMARK    1  A    between atoms: C1_9  and  N1_7 
REMARK       I    between atoms: C11_19  and  N1_7 
REMARK       I    between atoms: C12_20  and  N2_8 
REMARK    2  A    between atoms: C2_10  and  N2_8 
REMARK    3  A    between atoms: C1_9  and  C2_10 
REMARK    4  A    between atoms: C11_19  and  C3_11 
REMARK    5  A    between atoms: C12_20  and  C4_12 
ROOT
HETATM    1  C1  UNK     1      18.214  -1.917  36.816  1.00  0.00     0.142 C 
ENDROOT
BRANCH   1   2
HETATM    2  N1  UNK     1      18.550  -1.458  35.489  1.00  0.00    -0.355 N 
HETATM    3  C11 UNK     1      17.747  -0.594  34.764  1.00  0.00     0.257 C 
HETATM    4  O3  UNK     1      16.677  -0.116  35.132  1.00  0.00    -0.267 OA
HETATM    5  H5  UNK     1      19.447  -1.753  35.116  1.00  0.00     0.162 HD
BRANCH   3   6
HETATM    6  C3  UNK     1      18.302  -0.272  33.443  1.00  0.00     0.108 A 
HETATM    7  C13 UNK     1      18.219   1.089  32.867  1.00  0.00     0.304 A 
HETATM    8  O1  UNK     1      18.783   1.270  31.608  1.00  0.00    -0.274 OA
HETATM    9  O5  UNK     1      17.682   2.015  33.466  1.00  0.00    -0.259 OA
HETATM   10  C9  UNK     1      19.403   0.214  30.912  1.00  0.00     0.089 A 
HETATM   11  C17 UNK     1      19.939   0.493  29.656  1.00  0.00     0.038 A 
HETATM   12  C5  UNK     1      19.470  -1.058  31.472  1.00  0.00    -0.001 A 
HETATM   13  C21 UNK     1      20.559  -0.532  28.944  1.00  0.00     0.003 A 
HETATM   14  C19 UNK     1      20.635  -1.816  29.490  1.00  0.00     0.001 A 
HETATM   15  C15 UNK     1      20.092  -2.080  30.751  1.00  0.00     0.014 A 
HETATM   16  C7  UNK     1      18.889  -1.279  32.787  1.00  0.00     0.037 A 
ENDBRANCH   3   6
ENDBRANCH   1   2
BRANCH   1  17
HETATM   17  C2  UNK     1      19.434  -2.530  37.488  1.00  0.00     0.142 C 
BRANCH  17  18
HETATM   18  N2  UNK     1      19.386  -3.966  37.446  1.00  0.00    -0.355 N 
HETATM   19  C12 UNK     1      19.753  -4.701  36.331  1.00  0.00     0.257 C 
HETATM   20  O4  UNK     1      20.154  -4.254  35.262  1.00  0.00    -0.267 OA
HETATM   21  H6  UNK     1      19.049  -4.436  38.280  1.00  0.00     0.162 HD
BRANCH  19  22
HETATM   22  C4  UNK     1      19.619  -6.155  36.534  1.00  0.00     0.108 A 
HETATM   23  C14 UNK     1      18.309  -6.797  36.780  1.00  0.00     0.304 A 
HETATM   24  O2  UNK     1      18.312  -8.177  36.957  1.00  0.00    -0.274 OA
HETATM   25  O6  UNK     1      17.268  -6.150  36.825  1.00  0.00    -0.259 OA
HETATM   26  C10 UNK     1      19.501  -8.931  36.907  1.00  0.00     0.089 A 
HETATM   27  C6  UNK     1      20.723  -8.307  36.675  1.00  0.00    -0.001 A 
HETATM   28  C18 UNK     1      19.404 -10.308  37.095  1.00  0.00     0.038 A 
HETATM   29  C16 UNK     1      21.880  -9.088  36.632  1.00  0.00     0.014 A 
HETATM   30  C8  UNK     1      20.753  -6.865  36.486  1.00  0.00     0.037 A 
HETATM   31  C20 UNK     1      21.799 -10.471  36.819  1.00  0.00     0.001 A 
HETATM   32  C22 UNK     1      20.563 -11.079  37.050  1.00  0.00     0.003 A 
ENDBRANCH  19  22
ENDBRANCH  17  18
ENDBRANCH   1  17
TORSDOF 5
ENDMDL
MODEL 2
REMARK VINA RESULT:     -11.2      0.141      8.921
REMARK  5 active torsions:
REMARK  status: ('A' for Active; 'I' for Inactive)
REMARK    1  A    between atoms: C1_9  and  N1_7 
REMARK       I    between atoms: C11_19  and  N1_7 
REMARK       I    between atoms: C12_20  and  N2_8 
REMARK    2  A    between atoms: C2_10  and  N2_8 
REMARK    3  A    between atoms: C1_9  and  C2_10 
REMARK    4  A    between atoms: C11_19  and  C3_11 
REMARK    5  A    between atoms: C12_20  and  C4_12 
ROOT
HETATM    1  C1  UNK     1      19.463  -2.535  37.489  1.00  0.00     0.142 C 
ENDROOT
BRANCH   1   2
HETATM    2  N1  UNK     1      19.449  -3.978  37.436  1.00  0.00    -0.355 N 
HETATM    3  C11 UNK     1      19.831  -4.695  36.316  1.00  0.00     0.257 C 
HETATM    4  O3  UNK     1      20.219  -4.224  35.249  1.00  0.00    -0.267 OA
HETATM    5  H5  UNK     1      19.197  -4.464  38.291  1.00  0.00     0.162 HD
BRANCH   3   6
HETATM    6  C3  UNK     1      19.733  -6.147  36.507  1.00  0.00     0.108 A 
HETATM    7  C13 UNK     1      18.447  -6.815  36.811  1.00  0.00     0.304 A 
HETATM    8  O1  UNK     1      18.483  -8.197  36.970  1.00  0.00    -0.274 OA
HETATM    9  O5  UNK     1      17.400  -6.187  36.916  1.00  0.00    -0.259 OA
HETATM   10  C9  UNK     1      19.681  -8.928  36.850  1.00  0.00     0.089 A 
HETATM   11  C17 UNK     1      19.617 -10.309  37.026  1.00  0.00     0.038 A 
HETATM   12  C5  UNK     1      20.879  -8.281  36.564  1.00  0.00    -0.001 A 
HETATM   13  C21 UNK     1      20.786 -11.060  36.913  1.00  0.00     0.003 A 
HETATM   14  C19 UNK     1      21.998 -10.426  36.628  1.00  0.00     0.001 A 
HETATM   15  C15 UNK     1      22.047  -9.041  36.453  1.00  0.00     0.014 A 
HETATM   16  C7  UNK     1      20.874  -6.836  36.392  1.00  0.00     0.037 A 
ENDBRANCH   3   6
ENDBRANCH   1   2
BRANCH   1  17
HETATM   17  C2  UNK     1      18.241  -1.968  36.780  1.00  0.00     0.142 C 
BRANCH  17  18
HETATM   18  N2  UNK     1      18.570  -1.517  35.455  1.00  0.00    -0.355 N 
HETATM   19  C12 UNK     1      17.839  -0.551  34.783  1.00  0.00     0.257 C 
HETATM   20  O4  UNK     1      16.846   0.033  35.201  1.00  0.00    -0.267 OA
HETATM   21  H6  UNK     1      19.371  -1.954  35.009  1.00  0.00     0.162 HD
BRANCH  19  22
HETATM   22  C4  UNK     1      18.375  -0.257  33.442  1.00  0.00     0.108 A 
HETATM   23  C14 UNK     1      18.269   1.087  32.831  1.00  0.00     0.304 A 
HETATM   24  O2  UNK     1      18.812   1.241  31.559  1.00  0.00    -0.274 OA
HETATM   25  O6  UNK     1      17.729   2.023  33.412  1.00  0.00    -0.259 OA
HETATM   26  C10 UNK     1      19.435   0.173  30.883  1.00  0.00     0.089 A 
HETATM   27  C6  UNK     1      19.525  -1.082  31.476  1.00  0.00    -0.001 A 
HETATM   28  C18 UNK     1      19.952   0.424  29.614  1.00  0.00     0.038 A 
HETATM   29  C16 UNK     1      20.149  -2.116  30.774  1.00  0.00     0.014 A 
HETATM   30  C8  UNK     1      18.965  -1.275  32.804  1.00  0.00     0.037 A 
HETATM   31  C20 UNK     1      20.673  -1.880  29.499  1.00  0.00     0.001 A 
HETATM   32  C22 UNK     1      20.574  -0.612  28.920  1.00  0.00     0.003 A 
ENDBRANCH  19  22
ENDBRANCH  17  18
ENDBRANCH   1  17
TORSDOF 5
ENDMDL
MODEL 3
REMARK VINA RESULT:     -10.7      4.732     10.168
REMARK  5 active torsions:
REMARK  status: ('A' for Active; 'I' for Inactive)
REMARK    1  A    between atoms: C1_9  and  N1_7 
REMARK       I    between atoms: C11_19  and  N1_7 
REMARK       I    between atoms: C12_20  and  N2_8 
REMARK    2  A    between atoms: C2_10  and  N2_8 
REMARK    3  A    between atoms: C1_9  and  C2_10 
REMARK    4  A    between atoms: C11_19  and  C3_11 
REMARK    5  A    between atoms: C12_20  and  C4_12 
ROOT
HETATM    1  C1  UNK     1      20.490  -1.920  30.219  1.00  0.00     0.142 C 
ENDROOT
BRANCH   1   2
HETATM    2  N1  UNK     1      19.999  -1.603  31.540  1.00  0.00    -0.355 N 
HETATM    3  C11 UNK     1      20.360  -2.315  32.670  1.00  0.00     0.257 C 
HETATM    4  O3  UNK     1      21.120  -3.280  32.709  1.00  0.00    -0.267 OA
HETATM    5  H5  UNK     1      19.407  -0.783  31.622  1.00  0.00     0.162 HD
BRANCH   3   6
HETATM    6  C3  UNK     1      19.732  -1.801  33.894  1.00  0.00     0.108 A 
HETATM    7  C13 UNK     1      20.430  -1.813  35.200  1.00  0.00     0.304 A 
HETATM    8  O1  UNK     1      19.730  -1.297  36.287  1.00  0.00    -0.274 OA
HETATM    9  O5  UNK     1      21.568  -2.253  35.323  1.00  0.00    -0.259 OA
HETATM   10  C9  UNK     1      18.423  -0.788  36.155  1.00  0.00     0.089 A 
HETATM   11  C17 UNK     1      17.804  -0.293  37.301  1.00  0.00     0.038 A 
HETATM   12  C5  UNK     1      17.786  -0.787  34.918  1.00  0.00    -0.001 A 
HETATM   13  C21 UNK     1      16.511   0.217  37.203  1.00  0.00     0.003 A 
HETATM   14  C19 UNK     1      15.855   0.226  35.969  1.00  0.00     0.001 A 
HETATM   15  C15 UNK     1      16.489  -0.273  34.829  1.00  0.00     0.014 A 
HETATM   16  C7  UNK     1      18.491  -1.319  33.763  1.00  0.00     0.037 A 
ENDBRANCH   3   6
ENDBRANCH   1   2
BRANCH   1  17
HETATM   17  C2  UNK     1      20.527  -0.669  29.354  1.00  0.00     0.142 C 
BRANCH  17  18
HETATM   18  N2  UNK     1      20.034   0.475  30.071  1.00  0.00    -0.355 N 
HETATM   19  C12 UNK     1      19.151   1.388  29.518  1.00  0.00     0.257 C 
HETATM   20  O4  UNK     1      18.682   1.356  28.386  1.00  0.00    -0.267 OA
HETATM   21  H6  UNK     1      20.376   0.603  31.018  1.00  0.00     0.162 HD
BRANCH  19  22
HETATM   22  C4  UNK     1      18.790   2.471  30.451  1.00  0.00     0.108 A 
HETATM   23  C14 UNK     1      18.372   2.202  31.845  1.00  0.00     0.304 A 
HETATM   24  O2  UNK     1      18.055   3.307  32.628  1.00  0.00    -0.274 OA
HETATM   25  O6  UNK     1      18.306   1.062  32.293  1.00  0.00    -0.259 OA
HETATM   26  C10 UNK     1      18.127   4.621  32.124  1.00  0.00     0.089 A 
HETATM   27  C6  UNK     1      18.523   4.853  30.810  1.00  0.00    -0.001 A 
HETATM   28  C18 UNK     1      17.792   5.664  32.984  1.00  0.00     0.038 A 
HETATM   29  C16 UNK     1      18.582   6.169  30.347  1.00  0.00     0.014 A 
HETATM   30  C8  UNK     1      18.860   3.717  29.966  1.00  0.00     0.037 A 
HETATM   31  C20 UNK     1      18.249   7.227  31.198  1.00  0.00     0.001 A 
HETATM   32  C22 UNK     1      17.854   6.974  32.514  1.00  0.00     0.003 A 
ENDBRANCH  19  22
ENDBRANCH  17  18
ENDBRANCH   1  17
TORSDOF 5
ENDMDL
MODEL 4
REMARK VINA RESULT:     -10.7      4.645      7.603
REMARK  5 active torsions:
REMARK  status: ('A' for Active; 'I' for Inactive)
REMARK    1  A    between atoms: C1_9  and  N1_7 
REMARK       I    between atoms: C11_19  and  N1_7 
REMARK       I    between atoms: C12_20  and  N2_8 
REMARK    2  A    between atoms: C2_10  and  N2_8 
REMARK    3  A    between atoms: C1_9  and  C2_10 
REMARK    4  A    between atoms: C11_19  and  C3_11 
REMARK    5  A    between atoms: C12_20  and  C4_12 
ROOT
HETATM    1  C1  UNK     1      19.154   1.436  29.383  1.00  0.00     0.142 C 
ENDROOT
BRANCH   1   2
HETATM    2  N1  UNK     1      19.223   2.679  30.115  1.00  0.00    -0.355 N 
HETATM    3  C11 UNK     1      18.148   3.208  30.808  1.00  0.00     0.257 C 
HETATM    4  O3  UNK     1      17.027   2.714  30.895  1.00  0.00    -0.267 OA
HETATM    5  H5  UNK     1      20.129   3.138  30.152  1.00  0.00     0.162 HD
BRANCH   3   6
HETATM    6  C3  UNK     1      18.466   4.477  31.473  1.00  0.00     0.108 A 
HETATM    7  C13 UNK     1      19.549   5.366  30.994  1.00  0.00     0.304 A 
HETATM    8  O1  UNK     1      19.754   6.543  31.708  1.00  0.00    -0.274 OA
HETATM    9  O5  UNK     1      20.233   5.085  30.015  1.00  0.00    -0.259 OA
HETATM   10  C9  UNK     1      18.973   6.876  32.832  1.00  0.00     0.089 A 
HETATM   11  C17 UNK     1      19.254   8.076  33.482  1.00  0.00     0.038 A 
HETATM   12  C5  UNK     1      17.961   6.026  33.266  1.00  0.00    -0.001 A 
HETATM   13  C21 UNK     1      18.498   8.432  34.597  1.00  0.00     0.003 A 
HETATM   14  C19 UNK     1      17.478   7.591  35.048  1.00  0.00     0.001 A 
HETATM   15  C15 UNK     1      17.208   6.391  34.386  1.00  0.00     0.014 A 
HETATM   16  C7  UNK     1      17.722   4.788  32.541  1.00  0.00     0.037 A 
ENDBRANCH   3   6
ENDBRANCH   1   2
BRANCH   1  17
HETATM   17  C2  UNK     1      20.229   0.475  29.869  1.00  0.00     0.142 C 
BRANCH  17  18
HETATM   18  N2  UNK     1      19.971   0.043  31.216  1.00  0.00    -0.355 N 
HETATM   19  C12 UNK     1      19.752  -1.282  31.554  1.00  0.00     0.257 C 
HETATM   20  O4  UNK     1      19.745  -2.239  30.788  1.00  0.00    -0.267 OA
HETATM   21  H6  UNK     1      19.939   0.764  31.929  1.00  0.00     0.162 HD
BRANCH  19  22
HETATM   22  C4  UNK     1      19.514  -1.474  32.996  1.00  0.00     0.108 A 
HETATM   23  C14 UNK     1      20.274  -2.461  33.795  1.00  0.00     0.304 A 
HETATM   24  O2  UNK     1      19.958  -2.550  35.147  1.00  0.00    -0.274 OA
HETATM   25  O6  UNK     1      21.142  -3.169  33.294  1.00  0.00    -0.259 OA
HETATM   26  C10 UNK     1      18.963  -1.741  35.732  1.00  0.00     0.089 A 
HETATM   27  C6  UNK     1      18.260  -0.819  34.964  1.00  0.00    -0.001 A 
HETATM   28  C18 UNK     1      18.718  -1.900  37.094  1.00  0.00     0.038 A 
HETATM   29  C16 UNK     1      17.282  -0.035  35.580  1.00  0.00     0.014 A 
HETATM   30  C8  UNK     1      18.567  -0.703  33.547  1.00  0.00     0.037 A 
HETATM   31  C20 UNK     1      17.023  -0.184  36.946  1.00  0.00     0.001 A 
HETATM   32  C22 UNK     1      17.741  -1.115  37.701  1.00  0.00     0.003 A 
ENDBRANCH  19  22
ENDBRANCH  17  18
ENDBRANCH   1  17
TORSDOF 5
ENDMDL
MODEL 5
REMARK VINA RESULT:     -10.6      4.680     10.993
REMARK  5 active torsions:
REMARK  status: ('A' for Active; 'I' for Inactive)
REMARK    1  A    between atoms: C1_9  and  N1_7 
REMARK       I    between atoms: C11_19  and  N1_7 
REMARK       I    between atoms: C12_20  and  N2_8 
REMARK    2  A    between atoms: C2_10  and  N2_8 
REMARK    3  A    between atoms: C1_9  and  C2_10 
REMARK    4  A    between atoms: C11_19  and  C3_11 
REMARK    5  A    between atoms: C12_20  and  C4_12 
ROOT
HETATM    1  C1  UNK     1      20.150   0.462  29.795  1.00  0.00     0.142 C 
ENDROOT
BRANCH   1   2
HETATM    2  N1  UNK     1      19.885   0.049  31.154  1.00  0.00    -0.355 N 
HETATM    3  C11 UNK     1      19.758  -1.277  31.528  1.00  0.00     0.257 C 
HETATM    4  O3  UNK     1      19.849  -2.253  30.786  1.00  0.00    -0.267 OA
HETATM    5  H5  UNK     1      19.849   0.782  31.855  1.00  0.00     0.162 HD
BRANCH   3   6
HETATM    6  C3  UNK     1      19.491  -1.443  32.962  1.00  0.00     0.108 A 
HETATM    7  C13 UNK     1      20.226  -2.427  33.789  1.00  0.00     0.304 A 
HETATM    8  O1  UNK     1      19.884  -2.490  35.137  1.00  0.00    -0.274 OA
HETATM    9  O5  UNK     1      21.095  -3.151  33.316  1.00  0.00    -0.259 OA
HETATM   10  C9  UNK     1      18.888  -1.660  35.690  1.00  0.00     0.089 A 
HETATM   11  C17 UNK     1      18.616  -1.796  37.050  1.00  0.00     0.038 A 
HETATM   12  C5  UNK     1      18.209  -0.743  34.895  1.00  0.00    -0.001 A 
HETATM   13  C21 UNK     1      17.636  -0.990  37.626  1.00  0.00     0.003 A 
HETATM   14  C19 UNK     1      16.944  -0.064  36.843  1.00  0.00     0.001 A 
HETATM   15  C15 UNK     1      17.228   0.062  35.480  1.00  0.00     0.014 A 
HETATM   16  C7  UNK     1      18.545  -0.653  33.482  1.00  0.00     0.037 A 
ENDBRANCH   3   6
ENDBRANCH   1   2
BRANCH   1  17
HETATM   17  C2  UNK     1      19.098   1.457  29.329  1.00  0.00     0.142 C 
BRANCH  17  18
HETATM   18  N2  UNK     1      19.183   2.688  30.066  1.00  0.00    -0.355 N 
HETATM   19  C12 UNK     1      18.122   3.212  30.786  1.00  0.00     0.257 C 
HETATM   20  O4  UNK     1      17.003   2.723  30.895  1.00  0.00    -0.267 OA
HETATM   21  H6  UNK     1      20.067   3.184  30.026  1.00  0.00     0.162 HD
BRANCH  19  22
HETATM   22  C4  UNK     1      18.456   4.481  31.457  1.00  0.00     0.108 A 
HETATM   23  C14 UNK     1      19.558   5.351  30.989  1.00  0.00     0.304 A 
HETATM   24  O2  UNK     1      19.777   6.524  31.706  1.00  0.00    -0.274 OA
HETATM   25  O6  UNK     1      20.248   5.057  30.018  1.00  0.00    -0.259 OA
HETATM   26  C10 UNK     1      18.991   6.871  32.822  1.00  0.00     0.089 A 
HETATM   27  C6  UNK     1      17.959   6.039  33.245  1.00  0.00    -0.001 A 
HETATM   28  C18 UNK     1      19.284   8.066  33.475  1.00  0.00     0.038 A 
HETATM   29  C16 UNK     1      17.201   6.417  34.356  1.00  0.00     0.014 A 
HETATM   30  C8  UNK     1      17.705   4.805  32.517  1.00  0.00     0.037 A 
HETATM   31  C20 UNK     1      17.484   7.613  35.022  1.00  0.00     0.001 A 
HETATM   32  C22 UNK     1      18.523   8.436  34.581  1.00  0.00     0.003 A 
ENDBRANCH  19  22
ENDBRANCH  17  18
ENDBRANCH   1  17
TORSDOF 5
ENDMDL
MODEL 6
REMARK VINA RESULT:     -10.5      1.621      9.086
REMARK  5 active torsions:
REMARK  status: ('A' for Active; 'I' for Inactive)
REMARK    1  A    between atoms: C1_9  and  N1_7 
REMARK       I    between atoms: C11_19  and  N1_7 
REMARK       I    between atoms: C12_20  and  N2_8 
REMARK    2  A    between atoms: C2_10  and  N2_8 
REMARK    3  A    between atoms: C1_9  and  C2_10 
REMARK    4  A    between atoms: C11_19  and  C3_11 
REMARK    5  A    between atoms: C12_20  and  C4_12 
ROOT
HETATM    1  C1  UNK     1      19.203  -2.603  37.669  1.00  0.00     0.142 C 
ENDROOT
BRANCH   1   2
HETATM    2  N1  UNK     1      19.282  -4.033  37.478  1.00  0.00    -0.355 N 
HETATM    3  C11 UNK     1      20.464  -4.689  37.183  1.00  0.00     0.257 C 
HETATM    4  O3  UNK     1      21.569  -4.170  37.047  1.00  0.00    -0.267 OA
HETATM    5  H5  UNK     1      18.428  -4.562  37.626  1.00  0.00     0.162 HD
BRANCH   3   6
HETATM    6  C3  UNK     1      20.290  -6.140  37.037  1.00  0.00     0.108 A 
HETATM    7  C13 UNK     1      20.267  -6.799  35.712  1.00  0.00     0.304 A 
HETATM    8  O1  UNK     1      20.096  -8.181  35.704  1.00  0.00    -0.274 OA
HETATM    9  O5  UNK     1      20.395  -6.165  34.670  1.00  0.00    -0.259 OA
HETATM   10  C9  UNK     1      19.951  -8.918  36.895  1.00  0.00     0.089 A 
HETATM   11  C17 UNK     1      19.784 -10.297  36.786  1.00  0.00     0.038 A 
HETATM   12  C5  UNK     1      19.974  -8.278  38.131  1.00  0.00    -0.001 A 
HETATM   13  C21 UNK     1      19.637 -11.054  37.947  1.00  0.00     0.003 A 
HETATM   14  C19 UNK     1      19.657 -10.429  39.196  1.00  0.00     0.001 A 
HETATM   15  C15 UNK     1      19.826  -9.045  39.290  1.00  0.00     0.014 A 
HETATM   16  C7  UNK     1      20.151  -6.835  38.172  1.00  0.00     0.037 A 
ENDBRANCH   3   6
ENDBRANCH   1   2
BRANCH   1  17
HETATM   17  C2  UNK     1      18.128  -2.008  36.771  1.00  0.00     0.142 C 
BRANCH  17  18
HETATM   18  N2  UNK     1      18.559  -1.965  35.401  1.00  0.00    -0.355 N 
HETATM   19  C12 UNK     1      19.008  -0.808  34.787  1.00  0.00     0.257 C 
HETATM   20  O4  UNK     1      19.098   0.302  35.300  1.00  0.00    -0.267 OA
HETATM   21  H6  UNK     1      18.507  -2.834  34.878  1.00  0.00     0.162 HD
BRANCH  19  22
HETATM   22  C4  UNK     1      19.396  -1.019  33.380  1.00  0.00     0.108 A 
HETATM   23  C14 UNK     1      20.192  -2.191  32.952  1.00  0.00     0.304 A 
HETATM   24  O2  UNK     1      20.496  -2.279  31.597  1.00  0.00    -0.274 OA
HETATM   25  O6  UNK     1      20.567  -3.046  33.748  1.00  0.00    -0.259 OA
HETATM   26  C10 UNK     1      20.070  -1.304  30.674  1.00  0.00     0.089 A 
HETATM   27  C6  UNK     1      19.323  -0.210  31.098  1.00  0.00    -0.001 A 
HETATM   28  C18 UNK     1      20.422  -1.479  29.338  1.00  0.00     0.038 A 
HETATM   29  C16 UNK     1      18.919   0.737  30.153  1.00  0.00     0.014 A 
HETATM   30  C8  UNK     1      18.988  -0.088  32.508  1.00  0.00     0.037 A 
HETATM   31  C20 UNK     1      19.265   0.575  28.808  1.00  0.00     0.001 A 
HETATM   32  C22 UNK     1      20.015  -0.531  28.402  1.00  0.00     0.003 A 
ENDBRANCH  19  22
ENDBRANCH  17  18
ENDBRANCH   1  17
TORSDOF 5
ENDMDL
MODEL 7
REMARK VINA RESULT:     -10.4      4.807      7.291
REMARK  5 active torsions:
REMARK  status: ('A' for Active; 'I' for Inactive)
REMARK    1  A    between atoms: C1_9  and  N1_7 
REMARK       I    between atoms: C11_19  and  N1_7 
REMARK       I    between atoms: C12_20  and  N2_8 
REMARK    2  A    between atoms: C2_10  and  N2_8 
REMARK    3  A    between atoms: C1_9  and  C2_10 
REMARK    4  A    between atoms: C11_19  and  C3_11 
REMARK    5  A    between atoms: C12_20  and  C4_12 
ROOT
HETATM    1  C1  UNK     1      20.425  -0.199  29.365  1.00  0.00     0.142 C 
ENDROOT
BRANCH   1   2
HETATM    2  N1  UNK     1      19.911   0.900  30.149  1.00  0.00    -0.355 N 
HETATM    3  C11 UNK     1      19.029   1.839  29.644  1.00  0.00     0.257 C 
HETATM    4  O3  UNK     1      18.577   1.870  28.501  1.00  0.00    -0.267 OA
HETATM    5  H5  UNK     1      20.182   0.929  31.127  1.00  0.00     0.162 HD
BRANCH   3   6
HETATM    6  C3  UNK     1      18.649   2.855  30.632  1.00  0.00     0.108 A 
HETATM    7  C13 UNK     1      18.281   2.501  32.022  1.00  0.00     0.304 A 
HETATM    8  O1  UNK     1      17.941   3.554  32.866  1.00  0.00    -0.274 OA
HETATM    9  O5  UNK     1      18.277   1.340  32.415  1.00  0.00    -0.259 OA
HETATM   10  C9  UNK     1      17.944   4.892  32.424  1.00  0.00     0.089 A 
HETATM   11  C17 UNK     1      17.588   5.877  33.343  1.00  0.00     0.038 A 
HETATM   12  C5  UNK     1      18.292   5.203  31.114  1.00  0.00    -0.001 A 
HETATM   13  C21 UNK     1      17.582   7.210  32.935  1.00  0.00     0.003 A 
HETATM   14  C19 UNK     1      17.928   7.541  31.623  1.00  0.00     0.001 A 
HETATM   15  C15 UNK     1      18.283   6.541  30.713  1.00  0.00     0.014 A 
HETATM   16  C7  UNK     1      18.654   4.124  30.207  1.00  0.00     0.037 A 
ENDBRANCH   3   6
ENDBRANCH   1   2
BRANCH   1  17
HETATM   17  C2  UNK     1      20.546  -1.450  30.223  1.00  0.00     0.142 C 
BRANCH  17  18
HETATM   18  N2  UNK     1      20.032  -1.225  31.547  1.00  0.00    -0.355 N 
HETATM   19  C12 UNK     1      20.261  -2.093  32.602  1.00  0.00     0.257 C 
HETATM   20  O4  UNK     1      20.905  -3.135  32.563  1.00  0.00    -0.267 OA
HETATM   21  H6  UNK     1      19.467  -0.394  31.682  1.00  0.00     0.162 HD
BRANCH  19  22
HETATM   22  C4  UNK     1      19.633  -1.644  33.858  1.00  0.00     0.108 A 
HETATM   23  C14 UNK     1      20.349  -1.686  35.153  1.00  0.00     0.304 A 
HETATM   24  O2  UNK     1      19.651  -1.236  36.269  1.00  0.00    -0.274 OA
HETATM   25  O6  UNK     1      21.502  -2.097  35.243  1.00  0.00    -0.259 OA
HETATM   26  C10 UNK     1      18.327  -0.762  36.177  1.00  0.00     0.089 A 
HETATM   27  C6  UNK     1      17.672  -0.731  34.950  1.00  0.00    -0.001 A 
HETATM   28  C18 UNK     1      17.710  -0.331  37.349  1.00  0.00     0.038 A 
HETATM   29  C16 UNK     1      16.360  -0.255  34.898  1.00  0.00     0.014 A 
HETATM   30  C8  UNK     1      18.375  -1.195  33.764  1.00  0.00     0.037 A 
HETATM   31  C20 UNK     1      15.727   0.181  36.066  1.00  0.00     0.001 A 
HETATM   32  C22 UNK     1      16.402   0.143  37.289  1.00  0.00     0.003 A 
ENDBRANCH  19  22
ENDBRANCH  17  18
ENDBRANCH   1  17
TORSDOF 5
ENDMDL
MODEL 8
REMARK VINA RESULT:     -10.3      6.868     13.184
REMARK  5 active torsions:
REMARK  status: ('A' for Active; 'I' for Inactive)
REMARK    1  A    between atoms: C1_9  and  N1_7 
REMARK       I    between atoms: C11_19  and  N1_7 
REMARK       I    between atoms: C12_20  and  N2_8 
REMARK    2  A    between atoms: C2_10  and  N2_8 
REMARK    3  A    between atoms: C1_9  and  C2_10 
REMARK    4  A    between atoms: C11_19  and  C3_11 
REMARK    5  A    between atoms: C12_20  and  C4_12 
ROOT
HETATM    1  C1  UNK     1      19.289   6.270  31.178  1.00  0.00     0.142 C 
ENDROOT
BRANCH   1   2
HETATM    2  N1  UNK     1      19.368   4.832  31.280  1.00  0.00    -0.355 N 
HETATM    3  C11 UNK     1      18.267   4.031  31.530  1.00  0.00     0.257 C 
HETATM    4  O3  UNK     1      17.112   4.416  31.694  1.00  0.00    -0.267 OA
HETATM    5  H5  UNK     1      20.275   4.410  31.102  1.00  0.00     0.162 HD
BRANCH   3   6
HETATM    6  C3  UNK     1      18.601   2.603  31.586  1.00  0.00     0.108 A 
HETATM    7  C13 UNK     1      18.378   1.791  32.804  1.00  0.00     0.304 A 
HETATM    8  O1  UNK     1      18.734   0.447  32.733  1.00  0.00    -0.274 OA
HETATM    9  O5  UNK     1      17.901   2.273  33.826  1.00  0.00    -0.259 OA
HETATM   10  C9  UNK     1      19.281  -0.116  31.564  1.00  0.00     0.089 A 
HETATM   11  C17 UNK     1      19.607  -1.471  31.589  1.00  0.00     0.038 A 
HETATM   12  C5  UNK     1      19.484   0.665  30.430  1.00  0.00    -0.001 A 
HETATM   13  C21 UNK     1      20.150  -2.056  30.448  1.00  0.00     0.003 A 
HETATM   14  C19 UNK     1      20.361  -1.288  29.301  1.00  0.00     0.001 A 
HETATM   15  C15 UNK     1      20.029   0.070  29.290  1.00  0.00     0.014 A 
HETATM   16  C7  UNK     1      19.121   2.073  30.473  1.00  0.00     0.037 A 
ENDBRANCH   3   6
ENDBRANCH   1   2
BRANCH   1  17
HETATM   17  C2  UNK     1      19.283   6.899  32.564  1.00  0.00     0.142 C 
BRANCH  17  18
HETATM   18  N2  UNK     1      18.164   7.787  32.728  1.00  0.00    -0.355 N 
HETATM   19  C12 UNK     1      17.135   7.546  33.623  1.00  0.00     0.257 C 
HETATM   20  O4  UNK     1      17.031   6.581  34.373  1.00  0.00    -0.267 OA
HETATM   21  H6  UNK     1      18.145   8.612  32.138  1.00  0.00     0.162 HD
BRANCH  19  22
HETATM   22  C4  UNK     1      16.105   8.601  33.610  1.00  0.00     0.108 A 
HETATM   23  C14 UNK     1      15.461   9.055  32.357  1.00  0.00     0.304 A 
HETATM   24  O2  UNK     1      14.504  10.059  32.474  1.00  0.00    -0.274 OA
HETATM   25  O6  UNK     1      15.751   8.573  31.267  1.00  0.00    -0.259 OA
HETATM   26  C10 UNK     1      14.162  10.619  33.721  1.00  0.00     0.089 A 
HETATM   27  C6  UNK     1      14.780  10.177  34.886  1.00  0.00    -0.001 A 
HETATM   28  C18 UNK     1      13.192  11.618  33.737  1.00  0.00     0.038 A 
HETATM   29  C16 UNK     1      14.415  10.757  36.103  1.00  0.00     0.014 A 
HETATM   30  C8  UNK     1      15.785   9.130  34.798  1.00  0.00     0.037 A 
HETATM   31  C20 UNK     1      13.443  11.761  36.137  1.00  0.00     0.001 A 
HETATM   32  C22 UNK     1      12.832  12.190  34.956  1.00  0.00     0.003 A 
ENDBRANCH  19  22
ENDBRANCH  17  18
ENDBRANCH   1  17
TORSDOF 5
ENDMDL
MODEL 9
REMARK VINA RESULT:     -10.2      5.759     12.006
REMARK  5 active torsions:
REMARK  status: ('A' for Active; 'I' for Inactive)
REMARK    1  A    between atoms: C1_9  and  N1_7 
REMARK       I    between atoms: C11_19  and  N1_7 
REMARK       I    between atoms: C12_20  and  N2_8 
REMARK    2  A    between atoms: C2_10  and  N2_8 
REMARK    3  A    between atoms: C1_9  and  C2_10 
REMARK    4  A    between atoms: C11_19  and  C3_11 
REMARK    5  A    between atoms: C12_20  and  C4_12 
ROOT
HETATM    1  C1  UNK     1      18.241   2.108  29.743  1.00  0.00     0.142 C 
ENDROOT
BRANCH   1   2
HETATM    2  N1  UNK     1      18.100   1.999  31.177  1.00  0.00    -0.355 N 
HETATM    3  C11 UNK     1      18.813   1.091  31.938  1.00  0.00     0.257 C 
HETATM    4  O3  UNK     1      19.635   0.279  31.519  1.00  0.00    -0.267 OA
HETATM    5  H5  UNK     1      17.483   2.669  31.627  1.00  0.00     0.162 HD
BRANCH   3   6
HETATM    6  C3  UNK     1      18.498   1.173  33.370  1.00  0.00     0.108 A 
HETATM    7  C13 UNK     1      18.163   2.457  34.028  1.00  0.00     0.304 A 
HETATM    8  O1  UNK     1      17.881   2.406  35.390  1.00  0.00    -0.274 OA
HETATM    9  O5  UNK     1      18.131   3.514  33.407  1.00  0.00    -0.259 OA
HETATM   10  C9  UNK     1      17.913   1.196  36.111  1.00  0.00     0.089 A 
HETATM   11  C17 UNK     1      17.617   1.246  37.471  1.00  0.00     0.038 A 
HETATM   12  C5  UNK     1      18.232   0.001  35.473  1.00  0.00    -0.001 A 
HETATM   13  C21 UNK     1      17.641   0.065  38.211  1.00  0.00     0.003 A 
HETATM   14  C19 UNK     1      17.959  -1.144  37.588  1.00  0.00     0.001 A 
HETATM   15  C15 UNK     1      18.253  -1.178  36.222  1.00  0.00     0.014 A 
HETATM   16  C7  UNK     1      18.530   0.021  34.049  1.00  0.00     0.037 A 
ENDBRANCH   3   6
ENDBRANCH   1   2
BRANCH   1  17
HETATM   17  C2  UNK     1      18.862   3.447  29.373  1.00  0.00     0.142 C 
BRANCH  17  18
HETATM   18  N2  UNK     1      18.552   4.454  30.351  1.00  0.00    -0.355 N 
HETATM   19  C12 UNK     1      19.148   5.704  30.362  1.00  0.00     0.257 C 
HETATM   20  O4  UNK     1      19.991   6.117  29.575  1.00  0.00    -0.267 OA
HETATM   21  H6  UNK     1      17.874   4.204  31.064  1.00  0.00     0.162 HD
BRANCH  19  22
HETATM   22  C4  UNK     1      18.663   6.560  31.461  1.00  0.00     0.108 A 
HETATM   23  C14 UNK     1      19.461   6.796  32.685  1.00  0.00     0.304 A 
HETATM   24  O2  UNK     1      18.895   7.622  33.651  1.00  0.00    -0.274 OA
HETATM   25  O6  UNK     1      20.567   6.290  32.845  1.00  0.00    -0.259 OA
HETATM   26  C10 UNK     1      17.626   8.208  33.478  1.00  0.00     0.089 A 
HETATM   27  C6  UNK     1      16.892   7.974  32.319  1.00  0.00    -0.001 A 
HETATM   28  C18 UNK     1      17.143   9.022  34.500  1.00  0.00     0.038 A 
HETATM   29  C16 UNK     1      15.637   8.572  32.184  1.00  0.00     0.014 A 
HETATM   30  C8  UNK     1      17.456   7.114  31.290  1.00  0.00     0.037 A 
HETATM   31  C20 UNK     1      15.139   9.391  33.201  1.00  0.00     0.001 A 
HETATM   32  C22 UNK     1      15.891   9.616  34.357  1.00  0.00     0.003 A 
ENDBRANCH  19  22
ENDBRANCH  17  18
ENDBRANCH   1  17
TORSDOF 5
ENDMDL
MODEL 10
REMARK VINA RESULT:     -10.2      5.684      9.180
REMARK  5 active torsions:
REMARK  status: ('A' for Active; 'I' for Inactive)
REMARK    1  A    between atoms: C1_9  and  N1_7 
REMARK       I    between atoms: C11_19  and  N1_7 
REMARK       I    between atoms: C12_20  and  N2_8 
REMARK    2  A    between atoms: C2_10  and  N2_8 
REMARK    3  A    between atoms: C1_9  and  C2_10 
REMARK    4  A    between atoms: C11_19  and  C3_11 
REMARK    5  A    between atoms: C12_20  and  C4_12 
ROOT
HETATM    1  C1  UNK     1      18.916   3.457  29.330  1.00  0.00     0.142 C 
ENDROOT
BRANCH   1   2
HETATM    2  N1  UNK     1      18.596   4.463  30.316  1.00  0.00    -0.355 N 
HETATM    3  C11 UNK     1      19.218   5.698  30.364  1.00  0.00     0.257 C 
HETATM    4  O3  UNK     1      20.098   6.098  29.605  1.00  0.00    -0.267 OA
HETATM    5  H5  UNK     1      17.838   4.249  30.957  1.00  0.00     0.162 HD
BRANCH   3   6
HETATM    6  C3  UNK     1      18.719   6.546  31.454  1.00  0.00     0.108 A 
HETATM    7  C13 UNK     1      19.511   6.797  32.679  1.00  0.00     0.304 A 
HETATM    8  O1  UNK     1      18.930   7.619  33.641  1.00  0.00    -0.274 OA
HETATM    9  O5  UNK     1      20.624   6.308  32.844  1.00  0.00    -0.259 OA
HETATM   10  C9  UNK     1      17.654   8.186  33.461  1.00  0.00     0.089 A 
HETATM   11  C17 UNK     1      17.156   8.996  34.480  1.00  0.00     0.038 A 
HETATM   12  C5  UNK     1      16.926   7.937  32.301  1.00  0.00    -0.001 A 
HETATM   13  C21 UNK     1      15.896   9.571  34.330  1.00  0.00     0.003 A 
HETATM   14  C19 UNK     1      15.151   9.332  33.173  1.00  0.00     0.001 A 
HETATM   15  C15 UNK     1      15.663   8.517  32.160  1.00  0.00     0.014 A 
HETATM   16  C7  UNK     1      17.506   7.082  31.277  1.00  0.00     0.037 A 
ENDBRANCH   3   6
ENDBRANCH   1   2
BRANCH   1  17
HETATM   17  C2  UNK     1      18.217   2.148  29.663  1.00  0.00     0.142 C 
BRANCH  17  18
HETATM   18  N2  UNK     1      18.073   1.980  31.083  1.00  0.00    -0.355 N 
HETATM   19  C12 UNK     1      18.861   1.117  31.825  1.00  0.00     0.257 C 
HETATM   20  O4  UNK     1      19.758   0.399  31.397  1.00  0.00    -0.267 OA
HETATM   21  H6  UNK     1      17.342   2.520  31.535  1.00  0.00     0.162 HD
BRANCH  19  22
HETATM   22  C4  UNK     1      18.524   1.123  33.260  1.00  0.00     0.108 A 
HETATM   23  C14 UNK     1      18.156   2.366  33.975  1.00  0.00     0.304 A 
HETATM   24  O2  UNK     1      17.860   2.244  35.329  1.00  0.00    -0.274 OA
HETATM   25  O6  UNK     1      18.113   3.452  33.407  1.00  0.00    -0.259 OA
HETATM   26  C10 UNK     1      17.906   1.002  35.992  1.00  0.00     0.089 A 
HETATM   27  C6  UNK     1      18.253  -0.154  35.301  1.00  0.00    -0.001 A 
HETATM   28  C18 UNK     1      17.591   0.979  37.348  1.00  0.00     0.038 A 
HETATM   29  C16 UNK     1      18.288  -1.368  35.992  1.00  0.00     0.014 A 
HETATM   30  C8  UNK     1      18.570  -0.060  33.884  1.00  0.00     0.037 A 
HETATM   31  C20 UNK     1      17.975  -1.407  37.354  1.00  0.00     0.001 A 
HETATM   32  C22 UNK     1      17.627  -0.235  38.031  1.00  0.00     0.003 A 
ENDBRANCH  19  22
ENDBRANCH  17  18
ENDBRANCH   1  17
TORSDOF 5
ENDMDL
