MODEL 1
REMARK VINA RESULT:      -6.9      0.000      0.000
REMARK  3 active torsions:
REMARK  status: ('A' for Active; 'I' for Inactive)
REMARK    1  A    between atoms: C10_13  and  O2_2 
REMARK    2  A    between atoms: C3_6  and  O2_2 
REMARK    3  A    between atoms: C10_13  and  C11_14 
ROOT
HETATM    1  O1  UNK     1      18.813   0.138  32.791  1.00  0.00    -0.275 OA
HETATM    2  O3  UNK     1      17.903   1.636  34.262  1.00  0.00    -0.260 OA
HETATM    3  C1  UNK     1      19.353   0.857  30.515  1.00  0.00     0.031 A 
HETATM    4  C2  UNK     1      19.326  -0.131  31.504  1.00  0.00     0.092 A 
HETATM    5  C3  UNK     1      18.819   2.178  30.858  1.00  0.00     0.088 A 
HETATM    6  C4  UNK     1      19.901   0.509  29.272  1.00  0.00     0.017 A 
HETATM    7  C5  UNK     1      19.806  -1.424  31.286  1.00  0.00     0.038 A 
HETATM    8  C6  UNK     1      18.351   2.419  32.087  1.00  0.00     0.120 A 
HETATM    9  C7  UNK     1      20.388  -0.783  29.039  1.00  0.00     0.001 A 
HETATM   10  C8  UNK     1      20.338  -1.749  30.043  1.00  0.00     0.003 A 
HETATM   11  C9  UNK     1      18.331   1.391  33.139  1.00  0.00     0.290 A 
ENDROOT
BRANCH   5  12
HETATM   12  O2  UNK     1      18.789   3.181  29.909  1.00  0.00    -0.346 OA
BRANCH  12  13
HETATM   13  C10 UNK     1      18.557   4.437  30.515  1.00  0.00     0.202 C 
BRANCH  13  14
HETATM   14  C11 UNK     1      19.657   5.369  30.126  1.00  0.00    -0.011 C 
HETATM   15  C12 UNK     1      20.572   5.842  30.980  1.00  0.00     0.009 C 
ENDBRANCH  13  14
ENDBRANCH  12  13
ENDBRANCH   5  12
TORSDOF 3
ENDMDL
MODEL 2
REMARK VINA RESULT:      -6.7     11.768     14.196
REMARK  3 active torsions:
REMARK  status: ('A' for Active; 'I' for Inactive)
REMARK    1  A    between atoms: C10_13  and  O2_2 
REMARK    2  A    between atoms: C3_6  and  O2_2 
REMARK    3  A    between atoms: C10_13  and  C11_14 
ROOT
HETATM    1  O1  UNK     1      19.494   2.796  17.752  1.00  0.00    -0.275 OA
HETATM    2  O3  UNK     1      19.320   2.909  15.474  1.00  0.00    -0.260 OA
HETATM    3  C1  UNK     1      19.158   0.653  18.885  1.00  0.00     0.031 A 
HETATM    4  C2  UNK     1      19.452   2.019  18.930  1.00  0.00     0.092 A 
HETATM    5  C3  UNK     1      18.882   0.060  17.573  1.00  0.00     0.088 A 
HETATM    6  C4  UNK     1      19.160  -0.047  20.099  1.00  0.00     0.017 A 
HETATM    7  C5  UNK     1      19.729   2.687  20.124  1.00  0.00     0.038 A 
HETATM    8  C6  UNK     1      18.941   0.808  16.467  1.00  0.00     0.120 A 
HETATM    9  C7  UNK     1      19.437   0.610  21.305  1.00  0.00     0.001 A 
HETATM   10  C8  UNK     1      19.718   1.975  21.318  1.00  0.00     0.003 A 
HETATM   11  C9  UNK     1      19.265   2.243  16.502  1.00  0.00     0.290 A 
ENDROOT
BRANCH   5  12
HETATM   12  O2  UNK     1      18.552  -1.278  17.473  1.00  0.00    -0.346 OA
BRANCH  12  13
HETATM   13  C10 UNK     1      18.856  -1.775  16.185  1.00  0.00     0.202 C 
BRANCH  13  14
HETATM   14  C11 UNK     1      17.783  -2.727  15.772  1.00  0.00    -0.011 C 
HETATM   15  C12 UNK     1      17.991  -3.792  14.989  1.00  0.00     0.009 C 
ENDBRANCH  13  14
ENDBRANCH  12  13
ENDBRANCH   5  12
TORSDOF 3
ENDMDL
MODEL 3
REMARK VINA RESULT:      -6.5      1.658      3.626
REMARK  3 active torsions:
REMARK  status: ('A' for Active; 'I' for Inactive)
REMARK    1  A    between atoms: C10_13  and  O2_2 
REMARK    2  A    between atoms: C3_6  and  O2_2 
REMARK    3  A    between atoms: C10_13  and  C11_14 
ROOT
HETATM    1  O1  UNK     1      19.363   1.337  28.977  1.00  0.00    -0.275 OA
HETATM    2  O3  UNK     1      18.408   3.415  28.945  1.00  0.00    -0.260 OA
HETATM    3  C1  UNK     1      19.391   0.052  31.060  1.00  0.00     0.031 A 
HETATM    4  C2  UNK     1      19.692   0.170  29.700  1.00  0.00     0.092 A 
HETATM    5  C3  UNK     1      18.733   1.188  31.711  1.00  0.00     0.088 A 
HETATM    6  C4  UNK     1      19.733  -1.151  31.693  1.00  0.00     0.017 A 
HETATM    7  C5  UNK     1      20.320  -0.849  28.980  1.00  0.00     0.038 A 
HETATM    8  C6  UNK     1      18.415   2.279  31.008  1.00  0.00     0.120 A 
HETATM    9  C7  UNK     1      20.362  -2.182  30.984  1.00  0.00     0.001 A 
HETATM   10  C8  UNK     1      20.657  -2.031  29.631  1.00  0.00     0.003 A 
HETATM   11  C9  UNK     1      18.714   2.407  29.573  1.00  0.00     0.290 A 
ENDROOT
BRANCH   5  12
HETATM   12  O2  UNK     1      18.443   1.140  33.061  1.00  0.00    -0.346 OA
BRANCH  12  13
HETATM   13  C10 UNK     1      18.180   2.435  33.564  1.00  0.00     0.202 C 
BRANCH  13  14
HETATM   14  C11 UNK     1      18.378   2.425  35.043  1.00  0.00    -0.011 C 
HETATM   15  C12 UNK     1      18.881   1.388  35.723  1.00  0.00     0.009 C 
ENDBRANCH  13  14
ENDBRANCH  12  13
ENDBRANCH   5  12
TORSDOF 3
ENDMDL
MODEL 4
REMARK VINA RESULT:      -6.5      1.662      4.173
REMARK  3 active torsions:
REMARK  status: ('A' for Active; 'I' for Inactive)
REMARK    1  A    between atoms: C10_13  and  O2_2 
REMARK    2  A    between atoms: C3_6  and  O2_2 
REMARK    3  A    between atoms: C10_13  and  C11_14 
ROOT
HETATM    1  O1  UNK     1      18.800   2.118  30.442  1.00  0.00    -0.275 OA
HETATM    2  O3  UNK     1      17.786   3.753  31.679  1.00  0.00    -0.260 OA
HETATM    3  C1  UNK     1      19.347  -0.025  31.489  1.00  0.00     0.031 A 
HETATM    4  C2  UNK     1      19.328   0.811  30.368  1.00  0.00     0.092 A 
HETATM    5  C3  UNK     1      18.812   0.508  32.745  1.00  0.00     0.088 A 
HETATM    6  C4  UNK     1      19.868  -1.316  31.321  1.00  0.00     0.017 A 
HETATM    7  C5  UNK     1      19.814   0.407  29.123  1.00  0.00     0.038 A 
HETATM    8  C6  UNK     1      18.302   1.743  32.791  1.00  0.00     0.120 A 
HETATM    9  C7  UNK     1      20.358  -1.735  30.078  1.00  0.00     0.001 A 
HETATM   10  C8  UNK     1      20.334  -0.875  28.981  1.00  0.00     0.003 A 
HETATM   11  C9  UNK     1      18.264   2.626  31.615  1.00  0.00     0.290 A 
ENDROOT
BRANCH   5  12
HETATM   12  O2  UNK     1      18.837  -0.261  33.891  1.00  0.00    -0.346 OA
BRANCH  12  13
HETATM   13  C10 UNK     1      18.235   0.426  34.970  1.00  0.00     0.202 C 
BRANCH  13  14
HETATM   14  C11 UNK     1      17.041  -0.346  35.426  1.00  0.00    -0.011 C 
HETATM   15  C12 UNK     1      15.782   0.095  35.319  1.00  0.00     0.009 C 
ENDBRANCH  13  14
ENDBRANCH  12  13
ENDBRANCH   5  12
TORSDOF 3
ENDMDL
MODEL 5
REMARK VINA RESULT:      -6.4      2.635      4.451
REMARK  3 active torsions:
REMARK  status: ('A' for Active; 'I' for Inactive)
REMARK    1  A    between atoms: C10_13  and  O2_2 
REMARK    2  A    between atoms: C3_6  and  O2_2 
REMARK    3  A    between atoms: C10_13  and  C11_14 
ROOT
HETATM    1  O1  UNK     1      20.666  -2.403  32.015  1.00  0.00    -0.275 OA
HETATM    2  O3  UNK     1      20.566  -3.284  34.123  1.00  0.00    -0.260 OA
HETATM    3  C1  UNK     1      19.393  -0.380  31.489  1.00  0.00     0.031 A 
HETATM    4  C2  UNK     1      20.274  -1.396  31.107  1.00  0.00     0.092 A 
HETATM    5  C3  UNK     1      18.881  -0.406  32.863  1.00  0.00     0.088 A 
HETATM    6  C4  UNK     1      19.076   0.592  30.531  1.00  0.00     0.017 A 
HETATM    7  C5  UNK     1      20.821  -1.471  29.824  1.00  0.00     0.038 A 
HETATM    8  C6  UNK     1      19.275  -1.359  33.713  1.00  0.00     0.120 A 
HETATM    9  C7  UNK     1      19.617   0.531  29.241  1.00  0.00     0.001 A 
HETATM   10  C8  UNK     1      20.485  -0.499  28.887  1.00  0.00     0.003 A 
HETATM   11  C9  UNK     1      20.213  -2.423  33.325  1.00  0.00     0.290 A 
ENDROOT
BRANCH   5  12
HETATM   12  O2  UNK     1      17.981   0.553  33.284  1.00  0.00    -0.346 OA
BRANCH  12  13
HETATM   13  C10 UNK     1      17.718   0.421  34.667  1.00  0.00     0.202 C 
BRANCH  13  14
HETATM   14  C11 UNK     1      16.251   0.227  34.861  1.00  0.00    -0.011 C 
HETATM   15  C12 UNK     1      15.619   0.421  36.024  1.00  0.00     0.009 C 
ENDBRANCH  13  14
ENDBRANCH  12  13
ENDBRANCH   5  12
TORSDOF 3
ENDMDL
MODEL 6
REMARK VINA RESULT:      -6.4      2.436      5.693
REMARK  3 active torsions:
REMARK  status: ('A' for Active; 'I' for Inactive)
REMARK    1  A    between atoms: C10_13  and  O2_2 
REMARK    2  A    between atoms: C3_6  and  O2_2 
REMARK    3  A    between atoms: C10_13  and  C11_14 
ROOT
HETATM    1  O1  UNK     1      18.939   4.362  29.860  1.00  0.00    -0.275 OA
HETATM    2  O3  UNK     1      18.457   2.574  28.518  1.00  0.00    -0.260 OA
HETATM    3  C1  UNK     1      18.510   4.218  32.265  1.00  0.00     0.031 A 
HETATM    4  C2  UNK     1      18.971   4.929  31.152  1.00  0.00     0.092 A 
HETATM    5  C3  UNK     1      17.980   2.870  32.039  1.00  0.00     0.088 A 
HETATM    6  C4  UNK     1      18.600   4.848  33.514  1.00  0.00     0.017 A 
HETATM    7  C5  UNK     1      19.494   6.220  31.251  1.00  0.00     0.038 A 
HETATM    8  C6  UNK     1      17.972   2.345  30.810  1.00  0.00     0.120 A 
HETATM    9  C7  UNK     1      19.123   6.142  33.628  1.00  0.00     0.001 A 
HETATM   10  C8  UNK     1      19.567   6.828  32.499  1.00  0.00     0.003 A 
HETATM   11  C9  UNK     1      18.468   3.078  29.635  1.00  0.00     0.290 A 
ENDROOT
BRANCH   5  12
HETATM   12  O2  UNK     1      17.479   2.137  33.097  1.00  0.00    -0.346 OA
BRANCH  12  13
HETATM   13  C10 UNK     1      18.406   1.151  33.507  1.00  0.00     0.202 C 
BRANCH  13  14
HETATM   14  C11 UNK     1      18.398   1.074  34.997  1.00  0.00    -0.011 C 
HETATM   15  C12 UNK     1      19.006   1.960  35.795  1.00  0.00     0.009 C 
ENDBRANCH  13  14
ENDBRANCH  12  13
ENDBRANCH   5  12
TORSDOF 3
ENDMDL
MODEL 7
REMARK VINA RESULT:      -6.3      1.340      4.795
REMARK  3 active torsions:
REMARK  status: ('A' for Active; 'I' for Inactive)
REMARK    1  A    between atoms: C10_13  and  O2_2 
REMARK    2  A    between atoms: C3_6  and  O2_2 
REMARK    3  A    between atoms: C10_13  and  C11_14 
ROOT
HETATM    1  O1  UNK     1      17.997   3.312  33.119  1.00  0.00    -0.275 OA
HETATM    2  O3  UNK     1      17.798   1.124  33.757  1.00  0.00    -0.260 OA
HETATM    3  C1  UNK     1      18.737   3.846  30.848  1.00  0.00     0.031 A 
HETATM    4  C2  UNK     1      18.308   4.254  32.115  1.00  0.00     0.092 A 
HETATM    5  C3  UNK     1      18.865   2.406  30.605  1.00  0.00     0.088 A 
HETATM    6  C4  UNK     1      19.001   4.847  29.904  1.00  0.00     0.017 A 
HETATM    7  C5  UNK     1      18.152   5.599  32.457  1.00  0.00     0.038 A 
HETATM    8  C6  UNK     1      18.552   1.528  31.564  1.00  0.00     0.120 A 
HETATM    9  C7  UNK     1      18.849   6.200  30.232  1.00  0.00     0.001 A 
HETATM   10  C8  UNK     1      18.428   6.576  31.506  1.00  0.00     0.003 A 
HETATM   11  C9  UNK     1      18.086   1.947  32.894  1.00  0.00     0.290 A 
ENDROOT
BRANCH   5  12
HETATM   12  O2  UNK     1      19.318   1.947  29.384  1.00  0.00    -0.346 OA
BRANCH  12  13
HETATM   13  C10 UNK     1      18.593   0.803  28.977  1.00  0.00     0.202 C 
BRANCH  13  14
HETATM   14  C11 UNK     1      19.553  -0.213  28.454  1.00  0.00    -0.011 C 
HETATM   15  C12 UNK     1      20.371  -0.936  29.227  1.00  0.00     0.009 C 
ENDBRANCH  13  14
ENDBRANCH  12  13
ENDBRANCH   5  12
TORSDOF 3
ENDMDL
MODEL 8
REMARK VINA RESULT:      -6.3      4.318      7.719
REMARK  3 active torsions:
REMARK  status: ('A' for Active; 'I' for Inactive)
REMARK    1  A    between atoms: C10_13  and  O2_2 
REMARK    2  A    between atoms: C3_6  and  O2_2 
REMARK    3  A    between atoms: C10_13  and  C11_14 
ROOT
HETATM    1  O1  UNK     1      16.439   8.909  32.664  1.00  0.00    -0.275 OA
HETATM    2  O3  UNK     1      14.789   7.780  31.554  1.00  0.00    -0.260 OA
HETATM    3  C1  UNK     1      18.451   7.714  33.378  1.00  0.00     0.031 A 
HETATM    4  C2  UNK     1      17.707   8.894  33.282  1.00  0.00     0.092 A 
HETATM    5  C3  UNK     1      17.861   6.491  32.824  1.00  0.00     0.088 A 
HETATM    6  C4  UNK     1      19.711   7.794  33.987  1.00  0.00     0.017 A 
HETATM    7  C5  UNK     1      18.171  10.114  33.777  1.00  0.00     0.038 A 
HETATM    8  C6  UNK     1      16.665   6.528  32.228  1.00  0.00     0.120 A 
HETATM    9  C7  UNK     1      20.190   9.011  34.487  1.00  0.00     0.001 A 
HETATM   10  C8  UNK     1      19.421  10.169  34.385  1.00  0.00     0.003 A 
HETATM   11  C9  UNK     1      15.881   7.767  32.110  1.00  0.00     0.290 A 
ENDROOT
BRANCH   5  12
HETATM   12  O2  UNK     1      18.536   5.291  32.921  1.00  0.00    -0.346 OA
BRANCH  12  13
HETATM   13  C10 UNK     1      18.598   4.646  31.664  1.00  0.00     0.202 C 
BRANCH  13  14
HETATM   14  C11 UNK     1      19.805   5.131  30.933  1.00  0.00    -0.011 C 
HETATM   15  C12 UNK     1      19.761   5.961  29.885  1.00  0.00     0.009 C 
ENDBRANCH  13  14
ENDBRANCH  12  13
ENDBRANCH   5  12
TORSDOF 3
ENDMDL
MODEL 9
REMARK VINA RESULT:      -6.2     10.329     13.238
REMARK  3 active torsions:
REMARK  status: ('A' for Active; 'I' for Inactive)
REMARK    1  A    between atoms: C10_13  and  O2_2 
REMARK    2  A    between atoms: C3_6  and  O2_2 
REMARK    3  A    between atoms: C10_13  and  C11_14 
ROOT
HETATM    1  O1  UNK     1      18.910  -9.412  38.094  1.00  0.00    -0.275 OA
HETATM    2  O3  UNK     1      19.180 -11.500  38.990  1.00  0.00    -0.260 OA
HETATM    3  C1  UNK     1      20.251  -8.746  36.158  1.00  0.00     0.031 A 
HETATM    4  C2  UNK     1      19.267  -8.465  37.111  1.00  0.00     0.092 A 
HETATM    5  C3  UNK     1      20.908 -10.055  36.225  1.00  0.00     0.088 A 
HETATM    6  C4  UNK     1      20.527  -7.756  35.205  1.00  0.00     0.017 A 
HETATM    7  C5  UNK     1      18.580  -7.249  37.142  1.00  0.00     0.038 A 
HETATM    8  C6  UNK     1      20.545 -10.946  37.153  1.00  0.00     0.120 A 
HETATM    9  C7  UNK     1      19.845  -6.533  35.224  1.00  0.00     0.001 A 
HETATM   10  C8  UNK     1      18.875  -6.279  36.191  1.00  0.00     0.003 A 
HETATM   11  C9  UNK     1      19.501 -10.665  38.151  1.00  0.00     0.290 A 
ENDROOT
BRANCH   5  12
HETATM   12  O2  UNK     1      21.911 -10.373  35.331  1.00  0.00    -0.346 OA
BRANCH  12  13
HETATM   13  C10 UNK     1      23.145 -10.542  36.000  1.00  0.00     0.202 C 
BRANCH  13  14
HETATM   14  C11 UNK     1      23.690 -11.891  35.670  1.00  0.00    -0.011 C 
HETATM   15  C12 UNK     1      24.895 -12.326  36.057  1.00  0.00     0.009 C 
ENDBRANCH  13  14
ENDBRANCH  12  13
ENDBRANCH   5  12
TORSDOF 3
ENDMDL
MODEL 10
REMARK VINA RESULT:      -6.1     22.142     23.891
REMARK  3 active torsions:
REMARK  status: ('A' for Active; 'I' for Inactive)
REMARK    1  A    between atoms: C10_13  and  O2_2 
REMARK    2  A    between atoms: C3_6  and  O2_2 
REMARK    3  A    between atoms: C10_13  and  C11_14 
ROOT
HETATM    1  O1  UNK     1      16.043   6.132  10.146  1.00  0.00    -0.275 OA
HETATM    2  O3  UNK     1      15.541   3.920   9.852  1.00  0.00    -0.260 OA
HETATM    3  C1  UNK     1      14.642   7.840   9.093  1.00  0.00     0.031 A 
HETATM    4  C2  UNK     1      15.729   7.486   9.898  1.00  0.00     0.092 A 
HETATM    5  C3  UNK     1      13.849   6.755   8.506  1.00  0.00     0.088 A 
HETATM    6  C4  UNK     1      14.388   9.207   8.918  1.00  0.00     0.017 A 
HETATM    7  C5  UNK     1      16.553   8.435  10.504  1.00  0.00     0.038 A 
HETATM    8  C6  UNK     1      14.152   5.480   8.765  1.00  0.00     0.120 A 
HETATM    9  C7  UNK     1      15.206  10.171   9.521  1.00  0.00     0.001 A 
HETATM   10  C8  UNK     1      16.288   9.787  10.310  1.00  0.00     0.003 A 
HETATM   11  C9  UNK     1      15.285   5.097   9.623  1.00  0.00     0.290 A 
ENDROOT
BRANCH   5  12
HETATM   12  O2  UNK     1      12.785   7.047   7.675  1.00  0.00    -0.346 OA
BRANCH  12  13
HETATM   13  C10 UNK     1      12.171   5.861   7.211  1.00  0.00     0.202 C 
BRANCH  13  14
HETATM   14  C11 UNK     1      11.288   6.198   6.056  1.00  0.00    -0.011 C 
HETATM   15  C12 UNK     1       9.951   6.217   6.118  1.00  0.00     0.009 C 
ENDBRANCH  13  14
ENDBRANCH  12  13
ENDBRANCH   5  12
TORSDOF 3
ENDMDL
