MODEL 1
REMARK VINA RESULT:      -8.9      0.000      0.000
REMARK  6 active torsions:
REMARK  status: ('A' for Active; 'I' for Inactive)
REMARK    1  A    between atoms: C4_10  and  S1_1 
REMARK    2  A    between atoms: N2_6  and  S1_1 
REMARK    3  A    between atoms: C2_8  and  N1_5 
REMARK       I    between atoms: C5_11  and  N1_5 
REMARK    4  A    between atoms: C1_7  and  C3_9 
REMARK    5  A    between atoms: C1_7  and  C5_11 
REMARK    6  A    between atoms: C11_17  and  C6_12 
ROOT
HETATM    1  O1  UNK     1      20.996  -1.339  35.661  1.00  0.00    -0.267 OA
HETATM    2  N1  UNK     1      19.400  -2.444  34.355  1.00  0.00    -0.323 N 
HETATM    3  C5  UNK     1      20.098  -2.165  35.523  1.00  0.00     0.257 C 
HETATM    4  H1  UNK     1      18.683  -3.166  34.399  1.00  0.00     0.169 HD
ENDROOT
BRANCH   3   5
HETATM    5  C1  UNK     1      19.656  -3.015  36.693  1.00  0.00     0.043 C 
HETATM    6  C6  UNK     1      18.638  -2.522  37.445  1.00  0.00     0.029 C 
BRANCH   5   7
HETATM    7  C3  UNK     1      20.278  -4.323  36.977  1.00  0.00    -0.021 A 
HETATM    8  C12 UNK     1      21.303  -4.397  37.904  1.00  0.00     0.012 A 
HETATM    9  C16 UNK     1      21.891  -5.633  38.173  1.00  0.00     0.001 A 
HETATM   10  C18 UNK     1      21.444  -6.776  37.511  1.00  0.00     0.000 A 
HETATM   11  C17 UNK     1      20.411  -6.683  36.579  1.00  0.00     0.001 A 
HETATM   12  C13 UNK     1      19.823  -5.447  36.310  1.00  0.00     0.012 A 
ENDBRANCH   5   7
BRANCH   6  13
HETATM   13  C11 UNK     1      17.955  -1.251  37.255  1.00  0.00    -0.035 A 
HETATM   14  C14 UNK     1      18.170  -0.204  38.150  1.00  0.00     0.011 A 
HETATM   15  C19 UNK     1      17.517   1.015  37.967  1.00  0.00     0.001 A 
HETATM   16  C21 UNK     1      16.647   1.185  36.890  1.00  0.00     0.000 A 
HETATM   17  C20 UNK     1      16.431   0.137  35.995  1.00  0.00     0.001 A 
HETATM   18  C15 UNK     1      17.085  -1.082  36.177  1.00  0.00     0.011 A 
ENDBRANCH   6  13
ENDBRANCH   3   5
BRANCH   2  19
HETATM   19  C2  UNK     1      19.564  -1.835  33.085  1.00  0.00     0.035 A 
HETATM   20  C7  UNK     1      18.883  -0.664  32.805  1.00  0.00     0.031 A 
HETATM   21  C9  UNK     1      19.044  -0.065  31.555  1.00  0.00     0.027 A 
HETATM   22  C4  UNK     1      19.884  -0.648  30.606  1.00  0.00     0.079 A 
HETATM   23  C10 UNK     1      20.562  -1.829  30.907  1.00  0.00     0.027 A 
HETATM   24  C8  UNK     1      20.401  -2.427  32.156  1.00  0.00     0.031 A 
BRANCH  22  25
HETATM   25  S1  UNK     1      20.087   0.101  29.043  1.00  0.00     0.256 S 
HETATM   26  O2  UNK     1      19.593   1.469  29.120  1.00  0.00    -0.201 OA
HETATM   27  O3  UNK     1      21.444  -0.154  28.580  1.00  0.00    -0.201 OA
BRANCH  25  28
HETATM   28  N2  UNK     1      19.003  -0.823  28.097  1.00  0.00    -0.324 N 
HETATM   29  H16 UNK     1      18.195  -1.244  28.571  1.00  0.00     0.169 HD
HETATM   30  H17 UNK     1      18.801  -0.492  27.144  1.00  0.00     0.169 HD
ENDBRANCH  25  28
ENDBRANCH  22  25
ENDBRANCH   2  19
TORSDOF 6
ENDMDL
MODEL 2
REMARK VINA RESULT:      -8.0      3.654      7.208
REMARK  6 active torsions:
REMARK  status: ('A' for Active; 'I' for Inactive)
REMARK    1  A    between atoms: C4_10  and  S1_1 
REMARK    2  A    between atoms: N2_6  and  S1_1 
REMARK    3  A    between atoms: C2_8  and  N1_5 
REMARK       I    between atoms: C5_11  and  N1_5 
REMARK    4  A    between atoms: C1_7  and  C3_9 
REMARK    5  A    between atoms: C1_7  and  C5_11 
REMARK    6  A    between atoms: C11_17  and  C6_12 
ROOT
HETATM    1  O1  UNK     1      21.411  -1.924  35.255  1.00  0.00    -0.267 OA
HETATM    2  N1  UNK     1      19.748  -3.556  35.041  1.00  0.00    -0.323 N 
HETATM    3  C5  UNK     1      20.380  -2.354  34.746  1.00  0.00     0.257 C 
HETATM    4  H1  UNK     1      18.892  -3.772  34.533  1.00  0.00     0.169 HD
ENDROOT
BRANCH   3   5
HETATM    5  C1  UNK     1      19.657  -1.551  33.688  1.00  0.00     0.043 C 
HETATM    6  C6  UNK     1      18.724  -0.669  34.133  1.00  0.00     0.029 C 
BRANCH   5   7
HETATM    7  C3  UNK     1      19.975  -1.698  32.254  1.00  0.00    -0.021 A 
HETATM    8  C12 UNK     1      19.620  -0.689  31.376  1.00  0.00     0.012 A 
HETATM    9  C16 UNK     1      19.920  -0.828  30.021  1.00  0.00     0.001 A 
HETATM   10  C18 UNK     1      20.572  -1.974  29.566  1.00  0.00     0.000 A 
HETATM   11  C17 UNK     1      20.923  -2.981  30.464  1.00  0.00     0.001 A 
HETATM   12  C13 UNK     1      20.622  -2.842  31.819  1.00  0.00     0.012 A 
ENDBRANCH   5   7
BRANCH   6  13
HETATM   13  C11 UNK     1      18.334  -0.444  35.516  1.00  0.00    -0.035 A 
HETATM   14  C14 UNK     1      18.408   0.837  36.061  1.00  0.00     0.011 A 
HETATM   15  C19 UNK     1      18.033   1.054  37.387  1.00  0.00     0.001 A 
HETATM   16  C21 UNK     1      17.585  -0.011  38.168  1.00  0.00     0.000 A 
HETATM   17  C20 UNK     1      17.511  -1.293  37.623  1.00  0.00     0.001 A 
HETATM   18  C15 UNK     1      17.886  -1.510  36.297  1.00  0.00     0.011 A 
ENDBRANCH   6  13
ENDBRANCH   3   5
BRANCH   2  19
HETATM   19  C2  UNK     1      20.157  -4.538  35.977  1.00  0.00     0.035 A 
HETATM   20  C7  UNK     1      20.604  -4.138  37.224  1.00  0.00     0.031 A 
HETATM   21  C9  UNK     1      21.008  -5.105  38.145  1.00  0.00     0.027 A 
HETATM   22  C4  UNK     1      20.956  -6.456  37.805  1.00  0.00     0.079 A 
HETATM   23  C10 UNK     1      20.502  -6.841  36.544  1.00  0.00     0.027 A 
HETATM   24  C8  UNK     1      20.099  -5.875  35.622  1.00  0.00     0.031 A 
BRANCH  22  25
HETATM   25  S1  UNK     1      21.460  -7.667  38.958  1.00  0.00     0.256 S 
HETATM   26  O2  UNK     1      22.471  -7.081  39.827  1.00  0.00    -0.201 OA
HETATM   27  O3  UNK     1      20.271  -8.276  39.538  1.00  0.00    -0.201 OA
BRANCH  25  28
HETATM   28  N2  UNK     1      22.212  -8.804  37.928  1.00  0.00    -0.324 N 
HETATM   29  H16 UNK     1      21.668  -9.163  37.135  1.00  0.00     0.169 HD
HETATM   30  H17 UNK     1      23.211  -8.673  37.722  1.00  0.00     0.169 HD
ENDBRANCH  25  28
ENDBRANCH  22  25
ENDBRANCH   2  19
TORSDOF 6
ENDMDL
MODEL 3
REMARK VINA RESULT:      -7.8     11.827     13.531
REMARK  6 active torsions:
REMARK  status: ('A' for Active; 'I' for Inactive)
REMARK    1  A    between atoms: C4_10  and  S1_1 
REMARK    2  A    between atoms: N2_6  and  S1_1 
REMARK    3  A    between atoms: C2_8  and  N1_5 
REMARK       I    between atoms: C5_11  and  N1_5 
REMARK    4  A    between atoms: C1_7  and  C3_9 
REMARK    5  A    between atoms: C1_7  and  C5_11 
REMARK    6  A    between atoms: C11_17  and  C6_12 
ROOT
HETATM    1  O1  UNK     1      32.088  -8.912  35.886  1.00  0.00    -0.267 OA
HETATM    2  N1  UNK     1      30.283  -7.818  34.875  1.00  0.00    -0.323 N 
HETATM    3  C5  UNK     1      31.135  -8.138  35.925  1.00  0.00     0.257 C 
HETATM    4  H1  UNK     1      29.530  -7.160  35.068  1.00  0.00     0.169 HD
ENDROOT
BRANCH   3   5
HETATM    5  C1  UNK     1      30.780  -7.429  37.212  1.00  0.00     0.043 C 
HETATM    6  C6  UNK     1      31.504  -6.317  37.508  1.00  0.00     0.029 C 
BRANCH   5   7
HETATM    7  C3  UNK     1      29.684  -7.903  38.079  1.00  0.00    -0.021 A 
HETATM    8  C12 UNK     1      29.508  -9.264  38.263  1.00  0.00     0.012 A 
HETATM    9  C16 UNK     1      28.472  -9.712  39.083  1.00  0.00     0.001 A 
HETATM   10  C18 UNK     1      27.629  -8.793  39.706  1.00  0.00     0.000 A 
HETATM   11  C17 UNK     1      27.820  -7.426  39.509  1.00  0.00     0.001 A 
HETATM   12  C13 UNK     1      28.856  -6.977  38.689  1.00  0.00     0.012 A 
ENDBRANCH   5   7
BRANCH   6  13
HETATM   13  C11 UNK     1      32.600  -5.763  36.728  1.00  0.00    -0.035 A 
HETATM   14  C14 UNK     1      33.916  -6.105  37.035  1.00  0.00     0.011 A 
HETATM   15  C19 UNK     1      34.967  -5.575  36.286  1.00  0.00     0.001 A 
HETATM   16  C21 UNK     1      34.701  -4.701  35.232  1.00  0.00     0.000 A 
HETATM   17  C20 UNK     1      33.384  -4.359  34.925  1.00  0.00     0.001 A 
HETATM   18  C15 UNK     1      32.333  -4.890  35.673  1.00  0.00     0.011 A 
ENDBRANCH   6  13
ENDBRANCH   3   5
BRANCH   2  19
HETATM   19  C2  UNK     1      30.333  -8.303  33.545  1.00  0.00     0.035 A 
HETATM   20  C7  UNK     1      29.554  -9.391  33.192  1.00  0.00     0.031 A 
HETATM   21  C9  UNK     1      29.604  -9.869  31.883  1.00  0.00     0.027 A 
HETATM   22  C4  UNK     1      30.433  -9.250  30.947  1.00  0.00     0.079 A 
HETATM   23  C10 UNK     1      31.212  -8.155  31.320  1.00  0.00     0.027 A 
HETATM   24  C8  UNK     1      31.161  -7.677  32.629  1.00  0.00     0.031 A 
BRANCH  22  25
HETATM   25  S1  UNK     1      30.496  -9.848  29.308  1.00  0.00     0.256 S 
HETATM   26  O2  UNK     1      29.850  -8.874  28.438  1.00  0.00    -0.201 OA
HETATM   27  O3  UNK     1      31.858 -10.280  29.024  1.00  0.00    -0.201 OA
BRANCH  25  28
HETATM   28  N2  UNK     1      29.496 -11.229  29.425  1.00  0.00    -0.324 N 
HETATM   29  H16 UNK     1      29.245 -11.557  30.365  1.00  0.00     0.169 HD
HETATM   30  H17 UNK     1      28.742 -11.331  28.734  1.00  0.00     0.169 HD
ENDBRANCH  25  28
ENDBRANCH  22  25
ENDBRANCH   2  19
TORSDOF 6
ENDMDL
MODEL 4
REMARK VINA RESULT:      -7.8     11.821     13.544
REMARK  6 active torsions:
REMARK  status: ('A' for Active; 'I' for Inactive)
REMARK    1  A    between atoms: C4_10  and  S1_1 
REMARK    2  A    between atoms: N2_6  and  S1_1 
REMARK    3  A    between atoms: C2_8  and  N1_5 
REMARK       I    between atoms: C5_11  and  N1_5 
REMARK    4  A    between atoms: C1_7  and  C3_9 
REMARK    5  A    between atoms: C1_7  and  C5_11 
REMARK    6  A    between atoms: C11_17  and  C6_12 
ROOT
HETATM    1  O1  UNK     1      32.095  -8.898  35.884  1.00  0.00    -0.267 OA
HETATM    2  N1  UNK     1      30.290  -7.804  34.876  1.00  0.00    -0.323 N 
HETATM    3  C5  UNK     1      31.142  -8.125  35.925  1.00  0.00     0.257 C 
HETATM    4  H1  UNK     1      29.536  -7.146  35.069  1.00  0.00     0.169 HD
ENDROOT
BRANCH   3   5
HETATM    5  C1  UNK     1      30.786  -7.418  37.213  1.00  0.00     0.043 C 
HETATM    6  C6  UNK     1      31.507  -6.306  37.510  1.00  0.00     0.029 C 
BRANCH   5   7
HETATM    7  C3  UNK     1      29.691  -7.897  38.080  1.00  0.00    -0.021 A 
HETATM    8  C12 UNK     1      29.523  -9.258  38.269  1.00  0.00     0.012 A 
HETATM    9  C16 UNK     1      28.490  -9.710  39.088  1.00  0.00     0.001 A 
HETATM   10  C18 UNK     1      27.639  -8.794  39.706  1.00  0.00     0.000 A 
HETATM   11  C17 UNK     1      27.822  -7.426  39.505  1.00  0.00     0.001 A 
HETATM   12  C13 UNK     1      28.857  -6.974  38.685  1.00  0.00     0.012 A 
ENDBRANCH   5   7
BRANCH   6  13
HETATM   13  C11 UNK     1      32.601  -5.748  36.730  1.00  0.00    -0.035 A 
HETATM   14  C14 UNK     1      32.333  -4.869  35.682  1.00  0.00     0.011 A 
HETATM   15  C19 UNK     1      33.382  -4.333  34.935  1.00  0.00     0.001 A 
HETATM   16  C21 UNK     1      34.699  -4.677  35.236  1.00  0.00     0.000 A 
HETATM   17  C20 UNK     1      34.968  -5.557  36.284  1.00  0.00     0.001 A 
HETATM   18  C15 UNK     1      33.919  -6.092  37.032  1.00  0.00     0.011 A 
ENDBRANCH   6  13
ENDBRANCH   3   5
BRANCH   2  19
HETATM   19  C2  UNK     1      30.341  -8.286  33.544  1.00  0.00     0.035 A 
HETATM   20  C7  UNK     1      31.196  -7.683  32.639  1.00  0.00     0.031 A 
HETATM   21  C9  UNK     1      31.245  -8.157  31.328  1.00  0.00     0.027 A 
HETATM   22  C4  UNK     1      30.439  -9.228  30.944  1.00  0.00     0.079 A 
HETATM   23  C10 UNK     1      29.583  -9.825  31.870  1.00  0.00     0.027 A 
HETATM   24  C8  UNK     1      29.534  -9.350  33.180  1.00  0.00     0.031 A 
BRANCH  22  25
HETATM   25  S1  UNK     1      30.501  -9.823  29.304  1.00  0.00     0.256 S 
HETATM   26  O2  UNK     1      29.851  -8.849  28.437  1.00  0.00    -0.201 OA
HETATM   27  O3  UNK     1      31.863 -10.251  29.018  1.00  0.00    -0.201 OA
BRANCH  25  28
HETATM   28  N2  UNK     1      29.504 -11.207  29.421  1.00  0.00    -0.324 N 
HETATM   29  H16 UNK     1      29.119 -11.593  28.551  1.00  0.00     0.169 HD
HETATM   30  H17 UNK     1      29.759 -11.920  30.116  1.00  0.00     0.169 HD
ENDBRANCH  25  28
ENDBRANCH  22  25
ENDBRANCH   2  19
TORSDOF 6
ENDMDL
MODEL 5
REMARK VINA RESULT:      -7.7     11.498     13.303
REMARK  6 active torsions:
REMARK  status: ('A' for Active; 'I' for Inactive)
REMARK    1  A    between atoms: C4_10  and  S1_1 
REMARK    2  A    between atoms: N2_6  and  S1_1 
REMARK    3  A    between atoms: C2_8  and  N1_5 
REMARK       I    between atoms: C5_11  and  N1_5 
REMARK    4  A    between atoms: C1_7  and  C3_9 
REMARK    5  A    between atoms: C1_7  and  C5_11 
REMARK    6  A    between atoms: C11_17  and  C6_12 
ROOT
HETATM    1  O1  UNK     1      31.818  -8.904  35.835  1.00  0.00    -0.267 OA
HETATM    2  N1  UNK     1      30.343  -7.298  34.986  1.00  0.00    -0.323 N 
HETATM    3  C5  UNK     1      31.046  -7.960  35.985  1.00  0.00     0.257 C 
HETATM    4  H1  UNK     1      29.734  -6.533  35.271  1.00  0.00     0.169 HD
ENDROOT
BRANCH   3   5
HETATM    5  C1  UNK     1      30.770  -7.410  37.365  1.00  0.00     0.043 C 
HETATM    6  C6  UNK     1      31.589  -6.414  37.793  1.00  0.00     0.029 C 
BRANCH   5   7
HETATM    7  C3  UNK     1      29.650  -7.910  38.187  1.00  0.00    -0.021 A 
HETATM    8  C12 UNK     1      29.477  -9.275  38.337  1.00  0.00     0.012 A 
HETATM    9  C16 UNK     1      28.419  -9.747  39.113  1.00  0.00     0.001 A 
HETATM   10  C18 UNK     1      27.550  -8.846  39.727  1.00  0.00     0.000 A 
HETATM   11  C17 UNK     1      27.738  -7.474  39.566  1.00  0.00     0.001 A 
HETATM   12  C13 UNK     1      28.797  -7.002  38.789  1.00  0.00     0.012 A 
ENDBRANCH   5   7
BRANCH   6  13
HETATM   13  C11 UNK     1      32.717  -5.848  37.069  1.00  0.00    -0.035 A 
HETATM   14  C14 UNK     1      33.991  -6.392  37.228  1.00  0.00     0.011 A 
HETATM   15  C19 UNK     1      35.073  -5.851  36.532  1.00  0.00     0.001 A 
HETATM   16  C21 UNK     1      34.879  -4.764  35.680  1.00  0.00     0.000 A 
HETATM   17  C20 UNK     1      33.605  -4.219  35.521  1.00  0.00     0.001 A 
HETATM   18  C15 UNK     1      32.524  -4.761  36.216  1.00  0.00     0.011 A 
ENDBRANCH   6  13
ENDBRANCH   3   5
BRANCH   2  19
HETATM   19  C2  UNK     1      30.370  -7.559  33.593  1.00  0.00     0.035 A 
HETATM   20  C7  UNK     1      31.396  -7.033  32.827  1.00  0.00     0.031 A 
HETATM   21  C9  UNK     1      31.423  -7.290  31.456  1.00  0.00     0.027 A 
HETATM   22  C4  UNK     1      30.423  -8.068  30.874  1.00  0.00     0.079 A 
HETATM   23  C10 UNK     1      29.396  -8.589  31.661  1.00  0.00     0.027 A 
HETATM   24  C8  UNK     1      29.370  -8.333  33.032  1.00  0.00     0.031 A 
BRANCH  22  25
HETATM   25  S1  UNK     1      30.455  -8.389  29.158  1.00  0.00     0.256 S 
HETATM   26  O2  UNK     1      31.579  -9.272  28.877  1.00  0.00    -0.201 OA
HETATM   27  O3  UNK     1      29.114  -8.767  28.732  1.00  0.00    -0.201 OA
BRANCH  25  28
HETATM   28  N2  UNK     1      30.809  -6.835  28.542  1.00  0.00    -0.324 N 
HETATM   29  H16 UNK     1      31.580  -6.753  27.868  1.00  0.00     0.169 HD
HETATM   30  H17 UNK     1      30.018  -6.208  28.349  1.00  0.00     0.169 HD
ENDBRANCH  25  28
ENDBRANCH  22  25
ENDBRANCH   2  19
TORSDOF 6
ENDMDL
MODEL 6
REMARK VINA RESULT:      -7.7     11.605     13.318
REMARK  6 active torsions:
REMARK  status: ('A' for Active; 'I' for Inactive)
REMARK    1  A    between atoms: C4_10  and  S1_1 
REMARK    2  A    between atoms: N2_6  and  S1_1 
REMARK    3  A    between atoms: C2_8  and  N1_5 
REMARK       I    between atoms: C5_11  and  N1_5 
REMARK    4  A    between atoms: C1_7  and  C3_9 
REMARK    5  A    between atoms: C1_7  and  C5_11 
REMARK    6  A    between atoms: C11_17  and  C6_12 
ROOT
HETATM    1  O1  UNK     1      31.835  -8.933  35.845  1.00  0.00    -0.267 OA
HETATM    2  N1  UNK     1      30.348  -7.342  34.990  1.00  0.00    -0.323 N 
HETATM    3  C5  UNK     1      31.055  -7.996  35.991  1.00  0.00     0.257 C 
HETATM    4  H1  UNK     1      29.732  -6.582  35.272  1.00  0.00     0.169 HD
ENDROOT
BRANCH   3   5
HETATM    5  C1  UNK     1      30.772  -7.446  37.370  1.00  0.00     0.043 C 
HETATM    6  C6  UNK     1      31.580  -6.440  37.797  1.00  0.00     0.029 C 
BRANCH   5   7
HETATM    7  C3  UNK     1      29.655  -7.955  38.192  1.00  0.00    -0.021 A 
HETATM    8  C12 UNK     1      28.796  -7.054  38.798  1.00  0.00     0.012 A 
HETATM    9  C16 UNK     1      27.742  -7.535  39.573  1.00  0.00     0.001 A 
HETATM   10  C18 UNK     1      27.562  -8.909  39.730  1.00  0.00     0.000 A 
HETATM   11  C17 UNK     1      28.437  -9.802  39.114  1.00  0.00     0.001 A 
HETATM   12  C13 UNK     1      29.492  -9.321  38.338  1.00  0.00     0.012 A 
ENDBRANCH   5   7
BRANCH   6  13
HETATM   13  C11 UNK     1      32.703  -5.865  37.073  1.00  0.00    -0.035 A 
HETATM   14  C14 UNK     1      32.498  -4.791  36.207  1.00  0.00     0.011 A 
HETATM   15  C19 UNK     1      33.575  -4.238  35.514  1.00  0.00     0.001 A 
HETATM   16  C21 UNK     1      34.857  -4.760  35.685  1.00  0.00     0.000 A 
HETATM   17  C20 UNK     1      35.062  -5.835  36.550  1.00  0.00     0.001 A 
HETATM   18  C15 UNK     1      33.986  -6.387  37.245  1.00  0.00     0.011 A 
ENDBRANCH   6  13
ENDBRANCH   3   5
BRANCH   2  19
HETATM   19  C2  UNK     1      30.381  -7.605  33.598  1.00  0.00     0.035 A 
HETATM   20  C7  UNK     1      31.127  -6.783  32.771  1.00  0.00     0.031 A 
HETATM   21  C9  UNK     1      31.158  -7.042  31.401  1.00  0.00     0.027 A 
HETATM   22  C4  UNK     1      30.443  -8.120  30.880  1.00  0.00     0.079 A 
HETATM   23  C10 UNK     1      29.697  -8.939  31.727  1.00  0.00     0.027 A 
HETATM   24  C8  UNK     1      29.666  -8.680  33.098  1.00  0.00     0.031 A 
BRANCH  22  25
HETATM   25  S1  UNK     1      30.482  -8.446  29.165  1.00  0.00     0.256 S 
HETATM   26  O2  UNK     1      31.593  -9.347  28.893  1.00  0.00    -0.201 OA
HETATM   27  O3  UNK     1      29.138  -8.802  28.730  1.00  0.00    -0.201 OA
BRANCH  25  28
HETATM   28  N2  UNK     1      30.864  -6.898  28.548  1.00  0.00    -0.324 N 
HETATM   29  H16 UNK     1      30.863  -6.109  29.206  1.00  0.00     0.169 HD
HETATM   30  H17 UNK     1      31.596  -6.839  27.829  1.00  0.00     0.169 HD
ENDBRANCH  25  28
ENDBRANCH  22  25
ENDBRANCH   2  19
TORSDOF 6
ENDMDL
MODEL 7
REMARK VINA RESULT:      -7.7      3.521      7.665
REMARK  6 active torsions:
REMARK  status: ('A' for Active; 'I' for Inactive)
REMARK    1  A    between atoms: C4_10  and  S1_1 
REMARK    2  A    between atoms: N2_6  and  S1_1 
REMARK    3  A    between atoms: C2_8  and  N1_5 
REMARK       I    between atoms: C5_11  and  N1_5 
REMARK    4  A    between atoms: C1_7  and  C3_9 
REMARK    5  A    between atoms: C1_7  and  C5_11 
REMARK    6  A    between atoms: C11_17  and  C6_12 
ROOT
HETATM    1  O1  UNK     1      20.899  -1.504  35.456  1.00  0.00    -0.267 OA
HETATM    2  N1  UNK     1      19.201  -3.088  35.744  1.00  0.00    -0.323 N 
HETATM    3  C5  UNK     1      19.727  -1.857  35.369  1.00  0.00     0.257 C 
HETATM    4  H1  UNK     1      18.201  -3.229  35.615  1.00  0.00     0.169 HD
ENDROOT
BRANCH   3   5
HETATM    5  C1  UNK     1      18.682  -0.913  34.819  1.00  0.00     0.043 C 
HETATM    6  C6  UNK     1      18.606  -0.819  33.466  1.00  0.00     0.029 C 
BRANCH   5   7
HETATM    7  C3  UNK     1      17.775  -0.160  35.708  1.00  0.00    -0.021 A 
HETATM    8  C12 UNK     1      18.297   0.488  36.815  1.00  0.00     0.012 A 
HETATM    9  C16 UNK     1      17.440   1.199  37.654  1.00  0.00     0.001 A 
HETATM   10  C18 UNK     1      16.075   1.251  37.374  1.00  0.00     0.000 A 
HETATM   11  C17 UNK     1      15.566   0.592  36.256  1.00  0.00     0.001 A 
HETATM   12  C13 UNK     1      16.423  -0.119  35.416  1.00  0.00     0.012 A 
ENDBRANCH   5   7
BRANCH   6  13
HETATM   13  C11 UNK     1      19.446  -1.512  32.500  1.00  0.00    -0.035 A 
HETATM   14  C14 UNK     1      19.489  -1.078  31.176  1.00  0.00     0.011 A 
HETATM   15  C19 UNK     1      20.295  -1.741  30.250  1.00  0.00     0.001 A 
HETATM   16  C21 UNK     1      21.056  -2.840  30.649  1.00  0.00     0.000 A 
HETATM   17  C20 UNK     1      21.012  -3.275  31.974  1.00  0.00     0.001 A 
HETATM   18  C15 UNK     1      20.207  -2.611  32.900  1.00  0.00     0.011 A 
ENDBRANCH   6  13
ENDBRANCH   3   5
BRANCH   2  19
HETATM   19  C2  UNK     1      19.899  -4.193  36.293  1.00  0.00     0.035 A 
HETATM   20  C7  UNK     1      20.648  -4.015  37.444  1.00  0.00     0.031 A 
HETATM   21  C9  UNK     1      21.335  -5.102  37.983  1.00  0.00     0.027 A 
HETATM   22  C4  UNK     1      21.263  -6.349  37.364  1.00  0.00     0.079 A 
HETATM   23  C10 UNK     1      20.504  -6.510  36.205  1.00  0.00     0.027 A 
HETATM   24  C8  UNK     1      19.816  -5.423  35.665  1.00  0.00     0.031 A 
BRANCH  22  25
HETATM   25  S1  UNK     1      22.123  -7.710  38.039  1.00  0.00     0.256 S 
HETATM   26  O2  UNK     1      23.466  -7.275  38.395  1.00  0.00    -0.201 OA
HETATM   27  O3  UNK     1      21.276  -8.340  39.044  1.00  0.00    -0.201 OA
BRANCH  25  28
HETATM   28  N2  UNK     1      22.220  -8.741  36.679  1.00  0.00    -0.324 N 
HETATM   29  H16 UNK     1      23.154  -9.036  36.370  1.00  0.00     0.169 HD
HETATM   30  H17 UNK     1      21.500  -9.468  36.580  1.00  0.00     0.169 HD
ENDBRANCH  25  28
ENDBRANCH  22  25
ENDBRANCH   2  19
TORSDOF 6
ENDMDL
MODEL 8
REMARK VINA RESULT:      -7.6     11.546     14.105
REMARK  6 active torsions:
REMARK  status: ('A' for Active; 'I' for Inactive)
REMARK    1  A    between atoms: C4_10  and  S1_1 
REMARK    2  A    between atoms: N2_6  and  S1_1 
REMARK    3  A    between atoms: C2_8  and  N1_5 
REMARK       I    between atoms: C5_11  and  N1_5 
REMARK    4  A    between atoms: C1_7  and  C3_9 
REMARK    5  A    between atoms: C1_7  and  C5_11 
REMARK    6  A    between atoms: C11_17  and  C6_12 
ROOT
HETATM    1  O1  UNK     1      31.036  -5.415  33.194  1.00  0.00    -0.267 OA
HETATM    2  N1  UNK     1      30.959  -7.698  33.699  1.00  0.00    -0.323 N 
HETATM    3  C5  UNK     1      31.179  -6.354  33.972  1.00  0.00     0.257 C 
HETATM    4  H1  UNK     1      31.129  -8.363  34.451  1.00  0.00     0.169 HD
ENDROOT
BRANCH   3   5
HETATM    5  C1  UNK     1      31.650  -6.108  35.387  1.00  0.00     0.043 C 
HETATM    6  C6  UNK     1      32.972  -6.310  35.628  1.00  0.00     0.029 C 
BRANCH   5   7
HETATM    7  C3  UNK     1      30.724  -5.643  36.440  1.00  0.00    -0.021 A 
HETATM    8  C12 UNK     1      29.631  -6.424  36.773  1.00  0.00     0.012 A 
HETATM    9  C16 UNK     1      28.757  -5.985  37.767  1.00  0.00     0.001 A 
HETATM   10  C18 UNK     1      28.991  -4.771  38.413  1.00  0.00     0.000 A 
HETATM   11  C17 UNK     1      30.096  -3.996  38.065  1.00  0.00     0.001 A 
HETATM   12  C13 UNK     1      30.970  -4.436  37.070  1.00  0.00     0.012 A 
ENDBRANCH   5   7
BRANCH   6  13
HETATM   13  C11 UNK     1      33.968  -6.764  34.670  1.00  0.00    -0.035 A 
HETATM   14  C14 UNK     1      34.239  -8.125  34.540  1.00  0.00     0.011 A 
HETATM   15  C19 UNK     1      35.193  -8.561  33.620  1.00  0.00     0.001 A 
HETATM   16  C21 UNK     1      35.876  -7.635  32.831  1.00  0.00     0.000 A 
HETATM   17  C20 UNK     1      35.605  -6.273  32.962  1.00  0.00     0.001 A 
HETATM   18  C15 UNK     1      34.650  -5.837  33.881  1.00  0.00     0.011 A 
ENDBRANCH   6  13
ENDBRANCH   3   5
BRANCH   2  19
HETATM   19  C2  UNK     1      30.519  -8.270  32.479  1.00  0.00     0.035 A 
HETATM   20  C7  UNK     1      29.166  -8.487  32.284  1.00  0.00     0.031 A 
HETATM   21  C9  UNK     1      28.732  -9.050  31.084  1.00  0.00     0.027 A 
HETATM   22  C4  UNK     1      29.659  -9.387  30.098  1.00  0.00     0.079 A 
HETATM   23  C10 UNK     1      31.019  -9.160  30.311  1.00  0.00     0.027 A 
HETATM   24  C8  UNK     1      31.452  -8.597  31.511  1.00  0.00     0.031 A 
BRANCH  22  25
HETATM   25  S1  UNK     1      29.117 -10.091  28.595  1.00  0.00     0.256 S 
HETATM   26  O2  UNK     1      27.691  -9.830  28.453  1.00  0.00    -0.201 OA
HETATM   27  O3  UNK     1      30.035  -9.689  27.538  1.00  0.00    -0.201 OA
BRANCH  25  28
HETATM   28  N2  UNK     1      29.343 -11.755  28.915  1.00  0.00    -0.324 N 
HETATM   29  H16 UNK     1      29.514 -12.035  29.888  1.00  0.00     0.169 HD
HETATM   30  H17 UNK     1      28.772 -12.424  28.384  1.00  0.00     0.169 HD
ENDBRANCH  25  28
ENDBRANCH  22  25
ENDBRANCH   2  19
TORSDOF 6
ENDMDL
MODEL 9
REMARK VINA RESULT:      -7.6     10.603     13.626
REMARK  6 active torsions:
REMARK  status: ('A' for Active; 'I' for Inactive)
REMARK    1  A    between atoms: C4_10  and  S1_1 
REMARK    2  A    between atoms: N2_6  and  S1_1 
REMARK    3  A    between atoms: C2_8  and  N1_5 
REMARK       I    between atoms: C5_11  and  N1_5 
REMARK    4  A    between atoms: C1_7  and  C3_9 
REMARK    5  A    between atoms: C1_7  and  C5_11 
REMARK    6  A    between atoms: C11_17  and  C6_12 
ROOT
HETATM    1  O1  UNK     1      30.977  -9.111  33.418  1.00  0.00    -0.267 OA
HETATM    2  N1  UNK     1      28.724  -9.650  33.752  1.00  0.00    -0.323 N 
HETATM    3  C5  UNK     1      29.953  -9.713  33.106  1.00  0.00     0.257 C 
HETATM    4  H1  UNK     1      27.964 -10.207  33.366  1.00  0.00     0.169 HD
ENDROOT
BRANCH   3   5
HETATM    5  C1  UNK     1      29.942 -10.628  31.903  1.00  0.00     0.043 C 
HETATM    6  C6  UNK     1      29.468 -10.098  30.745  1.00  0.00     0.029 C 
BRANCH   5   7
HETATM    7  C3  UNK     1      30.451 -12.012  31.979  1.00  0.00    -0.021 A 
HETATM    8  C12 UNK     1      30.357 -12.829  30.866  1.00  0.00     0.012 A 
HETATM    9  C16 UNK     1      30.838 -14.136  30.938  1.00  0.00     0.001 A 
HETATM   10  C18 UNK     1      31.405 -14.606  32.123  1.00  0.00     0.000 A 
HETATM   11  C17 UNK     1      31.490 -13.770  33.235  1.00  0.00     0.001 A 
HETATM   12  C13 UNK     1      31.009 -12.462  33.163  1.00  0.00     0.012 A 
ENDBRANCH   5   7
BRANCH   6  13
HETATM   13  C11 UNK     1      28.945  -8.753  30.558  1.00  0.00    -0.035 A 
HETATM   14  C14 UNK     1      27.568  -8.535  30.546  1.00  0.00     0.011 A 
HETATM   15  C19 UNK     1      27.067  -7.245  30.368  1.00  0.00     0.001 A 
HETATM   16  C21 UNK     1      27.944  -6.174  30.199  1.00  0.00     0.000 A 
HETATM   17  C20 UNK     1      29.322  -6.391  30.210  1.00  0.00     0.001 A 
HETATM   18  C15 UNK     1      29.823  -7.681  30.390  1.00  0.00     0.011 A 
ENDBRANCH   6  13
ENDBRANCH   3   5
BRANCH   2  19
HETATM   19  C2  UNK     1      28.393  -8.893  34.903  1.00  0.00     0.035 A 
HETATM   20  C7  UNK     1      28.411  -7.511  34.830  1.00  0.00     0.031 A 
HETATM   21  C9  UNK     1      28.085  -6.765  35.964  1.00  0.00     0.027 A 
HETATM   22  C4  UNK     1      27.746  -7.414  37.151  1.00  0.00     0.079 A 
HETATM   23  C10 UNK     1      27.733  -8.808  37.205  1.00  0.00     0.027 A 
HETATM   24  C8  UNK     1      28.058  -9.553  36.072  1.00  0.00     0.031 A 
BRANCH  22  25
HETATM   25  S1  UNK     1      27.338  -6.482  38.569  1.00  0.00     0.256 S 
HETATM   26  O2  UNK     1      25.890  -6.334  38.621  1.00  0.00    -0.201 OA
HETATM   27  O3  UNK     1      28.050  -7.040  39.711  1.00  0.00    -0.201 OA
BRANCH  25  28
HETATM   28  N2  UNK     1      28.031  -4.970  38.176  1.00  0.00    -0.324 N 
HETATM   29  H16 UNK     1      28.819  -4.644  38.748  1.00  0.00     0.169 HD
HETATM   30  H17 UNK     1      28.111  -4.727  37.180  1.00  0.00     0.169 HD
ENDBRANCH  25  28
ENDBRANCH  22  25
ENDBRANCH   2  19
TORSDOF 6
ENDMDL
MODEL 10
REMARK VINA RESULT:      -7.5     11.674     14.058
REMARK  6 active torsions:
REMARK  status: ('A' for Active; 'I' for Inactive)
REMARK    1  A    between atoms: C4_10  and  S1_1 
REMARK    2  A    between atoms: N2_6  and  S1_1 
REMARK    3  A    between atoms: C2_8  and  N1_5 
REMARK       I    between atoms: C5_11  and  N1_5 
REMARK    4  A    between atoms: C1_7  and  C3_9 
REMARK    5  A    between atoms: C1_7  and  C5_11 
REMARK    6  A    between atoms: C11_17  and  C6_12 
ROOT
HETATM    1  O1  UNK     1      28.539 -10.029  33.958  1.00  0.00    -0.267 OA
HETATM    2  N1  UNK     1      30.582  -8.939  33.622  1.00  0.00    -0.323 N 
HETATM    3  C5  UNK     1      29.576  -9.850  33.326  1.00  0.00     0.257 C 
HETATM    4  H1  UNK     1      31.388  -8.913  33.001  1.00  0.00     0.169 HD
ENDROOT
BRANCH   3   5
HETATM    5  C1  UNK     1      29.868 -10.671  32.090  1.00  0.00     0.043 C 
HETATM    6  C6  UNK     1      29.599 -10.082  30.896  1.00  0.00     0.029 C 
BRANCH   5   7
HETATM    7  C3  UNK     1      30.446 -12.027  32.182  1.00  0.00    -0.021 A 
HETATM    8  C12 UNK     1      31.090 -12.410  33.346  1.00  0.00     0.012 A 
HETATM    9  C16 UNK     1      31.635 -13.690  33.433  1.00  0.00     0.001 A 
HETATM   10  C18 UNK     1      31.528 -14.568  32.355  1.00  0.00     0.000 A 
HETATM   11  C17 UNK     1      30.877 -14.166  31.189  1.00  0.00     0.001 A 
HETATM   12  C13 UNK     1      30.331 -12.885  31.103  1.00  0.00     0.012 A 
ENDBRANCH   5   7
BRANCH   6  13
HETATM   13  C11 UNK     1      29.032  -8.758  30.691  1.00  0.00    -0.035 A 
HETATM   14  C14 UNK     1      27.649  -8.587  30.672  1.00  0.00     0.011 A 
HETATM   15  C19 UNK     1      27.106  -7.316  30.476  1.00  0.00     0.001 A 
HETATM   16  C21 UNK     1      27.947  -6.218  30.298  1.00  0.00     0.000 A 
HETATM   17  C20 UNK     1      29.331  -6.389  30.317  1.00  0.00     0.001 A 
HETATM   18  C15 UNK     1      29.874  -7.659  30.513  1.00  0.00     0.011 A 
ENDBRANCH   6  13
ENDBRANCH   3   5
BRANCH   2  19
HETATM   19  C2  UNK     1      30.625  -8.023  34.703  1.00  0.00     0.035 A 
HETATM   20  C7  UNK     1      31.277  -8.384  35.869  1.00  0.00     0.031 A 
HETATM   21  C9  UNK     1      31.318  -7.483  36.933  1.00  0.00     0.027 A 
HETATM   22  C4  UNK     1      30.707  -6.235  36.813  1.00  0.00     0.079 A 
HETATM   23  C10 UNK     1      30.054  -5.888  35.631  1.00  0.00     0.027 A 
HETATM   24  C8  UNK     1      30.013  -6.789  34.567  1.00  0.00     0.031 A 
BRANCH  22  25
HETATM   25  S1  UNK     1      30.759  -5.106  38.144  1.00  0.00     0.256 S 
HETATM   26  O2  UNK     1      29.664  -5.416  39.053  1.00  0.00    -0.201 OA
HETATM   27  O3  UNK     1      32.124  -5.049  38.650  1.00  0.00    -0.201 OA
BRANCH  25  28
HETATM   28  N2  UNK     1      30.410  -3.639  37.341  1.00  0.00    -0.324 N 
HETATM   29  H16 UNK     1      30.881  -2.789  37.673  1.00  0.00     0.169 HD
HETATM   30  H17 UNK     1      30.283  -3.672  36.321  1.00  0.00     0.169 HD
ENDBRANCH  25  28
ENDBRANCH  22  25
ENDBRANCH   2  19
TORSDOF 6
ENDMDL
