MODEL 1
REMARK VINA RESULT:     -10.2      0.000      0.000
REMARK  5 active torsions:
REMARK  status: ('A' for Active; 'I' for Inactive)
REMARK    1  A    between atoms: C20_27  and  O3_4 
REMARK       I    between atoms: C12_19  and  N2_7 
REMARK    2  A    between atoms: C6_13  and  N2_7 
REMARK    3  A    between atoms: C1_8  and  C2_9 
REMARK    4  A    between atoms: C2_9  and  C6_13 
REMARK    5  A    between atoms: C12_19  and  C13_20 
ROOT
HETATM    1  O2  UNK     1      17.177   2.804  31.064  1.00  0.00    -0.267 OA
HETATM    2  N2  UNK     1      18.995   3.585  29.832  1.00  0.00    -0.356 N 
HETATM    3  C12 UNK     1      18.246   2.622  30.485  1.00  0.00     0.257 C 
HETATM    4  H11 UNK     1      19.884   3.338  29.406  1.00  0.00     0.162 HD
ENDROOT
BRANCH   2   5
HETATM    5  C6  UNK     1      18.596   4.971  29.746  1.00  0.00     0.127 C 
BRANCH   5   6
HETATM    6  C2  UNK     1      19.706   5.878  30.273  1.00  0.00     0.061 C 
BRANCH   6   7
HETATM    7  C1  UNK     1      19.529   6.264  31.713  1.00  0.00    -0.022 A 
HETATM    8  C3  UNK     1      18.306   6.607  32.321  1.00  0.00     0.000 A 
HETATM    9  C5  UNK     1      18.599   6.894  33.657  1.00  0.00     0.043 A 
HETATM   10  C7  UNK     1      16.969   6.708  31.885  1.00  0.00     0.033 A 
HETATM   11  N1  UNK     1      19.955   6.721  33.818  1.00  0.00    -0.359 N 
HETATM   12  C9  UNK     1      17.620   7.277  34.579  1.00  0.00     0.031 A 
HETATM   13  C4  UNK     1      20.527   6.337  32.636  1.00  0.00     0.013 A 
HETATM   14  H3  UNK     1      20.452   6.860  34.688  1.00  0.00     0.166 HD
HETATM   15  C8  UNK     1      21.979   6.086  32.539  1.00  0.00     0.068 C 
HETATM   16  C11 UNK     1      16.302   7.370  34.123  1.00  0.00     0.021 A 
HETATM   17  C10 UNK     1      15.980   7.090  32.797  1.00  0.00     0.011 A 
HETATM   18 Br1  UNK     1      14.183   7.228  32.220  1.00  0.00    -0.051 Br
ENDBRANCH   6   7
ENDBRANCH   5   6
ENDBRANCH   2   5
BRANCH   3  19
HETATM   19  C13 UNK     1      18.858   1.289  30.431  1.00  0.00     0.108 A 
HETATM   20  C15 UNK     1      19.090   0.697  31.609  1.00  0.00     0.037 A 
HETATM   21  C14 UNK     1      19.694  -0.626  31.658  1.00  0.00     0.002 A 
HETATM   22  C16 UNK     1      20.023  -1.260  30.465  1.00  0.00     0.089 A 
HETATM   23  C18 UNK     1      19.952  -1.281  32.864  1.00  0.00     0.051 A 
HETATM   24  O1  UNK     1      19.778  -0.631  29.228  1.00  0.00    -0.274 OA
HETATM   25  C19 UNK     1      20.604  -2.527  30.443  1.00  0.00     0.041 A 
HETATM   26  C17 UNK     1      19.202   0.634  29.149  1.00  0.00     0.304 A 
HETATM   27  O4  UNK     1      18.991   1.174  28.068  1.00  0.00    -0.259 OA
HETATM   28  C21 UNK     1      20.859  -3.173  31.649  1.00  0.00     0.039 A 
HETATM   29  C20 UNK     1      20.535  -2.553  32.858  1.00  0.00     0.069 A 
BRANCH  29  30
HETATM   30  O3  UNK     1      20.786  -3.188  34.036  1.00  0.00    -0.356 OA
HETATM   31  C22 UNK     1      20.190  -2.637  35.209  1.00  0.00     0.210 C 
ENDBRANCH  29  30
ENDBRANCH   3  19
TORSDOF 5
ENDMDL
MODEL 2
REMARK VINA RESULT:      -9.8      2.098      2.627
REMARK  5 active torsions:
REMARK  status: ('A' for Active; 'I' for Inactive)
REMARK    1  A    between atoms: C20_27  and  O3_4 
REMARK       I    between atoms: C12_19  and  N2_7 
REMARK    2  A    between atoms: C6_13  and  N2_7 
REMARK    3  A    between atoms: C1_8  and  C2_9 
REMARK    4  A    between atoms: C2_9  and  C6_13 
REMARK    5  A    between atoms: C12_19  and  C13_20 
ROOT
HETATM    1  O2  UNK     1      17.381   2.399  29.737  1.00  0.00    -0.267 OA
HETATM    2  N2  UNK     1      19.125   3.649  30.647  1.00  0.00    -0.356 N 
HETATM    3  C12 UNK     1      18.284   2.554  30.556  1.00  0.00     0.257 C 
HETATM    4  H11 UNK     1      19.825   3.696  31.381  1.00  0.00     0.162 HD
ENDROOT
BRANCH   2   5
HETATM    5  C6  UNK     1      19.040   4.785  29.757  1.00  0.00     0.127 C 
BRANCH   5   6
HETATM    6  C2  UNK     1      19.907   5.932  30.273  1.00  0.00     0.061 C 
BRANCH   6   7
HETATM    7  C1  UNK     1      19.669   6.255  31.720  1.00  0.00    -0.022 A 
HETATM    8  C3  UNK     1      18.422   6.571  32.292  1.00  0.00     0.000 A 
HETATM    9  C5  UNK     1      18.659   6.799  33.649  1.00  0.00     0.043 A 
HETATM   10  C7  UNK     1      17.104   6.691  31.806  1.00  0.00     0.033 A 
HETATM   11  N1  UNK     1      20.008   6.619  33.859  1.00  0.00    -0.359 N 
HETATM   12  C9  UNK     1      17.642   7.142  34.547  1.00  0.00     0.031 A 
HETATM   13  C4  UNK     1      20.629   6.287  32.686  1.00  0.00     0.013 A 
HETATM   14  H3  UNK     1      20.468   6.720  34.754  1.00  0.00     0.166 HD
HETATM   15  C8  UNK     1      22.083   6.040  32.638  1.00  0.00     0.068 C 
HETATM   16  C11 UNK     1      16.344   7.255  34.041  1.00  0.00     0.021 A 
HETATM   17  C10 UNK     1      16.077   7.034  32.691  1.00  0.00     0.011 A 
HETATM   18 Br1  UNK     1      14.305   7.197  32.048  1.00  0.00    -0.051 Br
ENDBRANCH   6   7
ENDBRANCH   5   6
ENDBRANCH   2   5
BRANCH   3  19
HETATM   19  C13 UNK     1      18.569   1.530  31.568  1.00  0.00     0.108 A 
HETATM   20  C15 UNK     1      18.158   1.800  32.813  1.00  0.00     0.037 A 
HETATM   21  C14 UNK     1      18.395   0.845  33.885  1.00  0.00     0.002 A 
HETATM   22  C16 UNK     1      19.053  -0.345  33.595  1.00  0.00     0.089 A 
HETATM   23  C18 UNK     1      17.983   1.084  35.199  1.00  0.00     0.051 A 
HETATM   24  O1  UNK     1      19.484  -0.622  32.282  1.00  0.00    -0.274 OA
HETATM   25  C19 UNK     1      19.311  -1.301  34.576  1.00  0.00     0.041 A 
HETATM   26  C17 UNK     1      19.273   0.271  31.235  1.00  0.00     0.304 A 
HETATM   27  O4  UNK     1      19.651   0.022  30.096  1.00  0.00    -0.259 OA
HETATM   28  C21 UNK     1      18.897  -1.055  35.882  1.00  0.00     0.039 A 
HETATM   29  C20 UNK     1      18.235   0.135  36.195  1.00  0.00     0.069 A 
BRANCH  29  30
HETATM   30  O3  UNK     1      17.831   0.372  37.473  1.00  0.00    -0.356 OA
HETATM   31  C22 UNK     1      17.047   1.542  37.699  1.00  0.00     0.210 C 
ENDBRANCH  29  30
ENDBRANCH   3  19
TORSDOF 5
ENDMDL
MODEL 3
REMARK VINA RESULT:      -9.6      5.693      9.011
REMARK  5 active torsions:
REMARK  status: ('A' for Active; 'I' for Inactive)
REMARK    1  A    between atoms: C20_27  and  O3_4 
REMARK       I    between atoms: C12_19  and  N2_7 
REMARK    2  A    between atoms: C6_13  and  N2_7 
REMARK    3  A    between atoms: C1_8  and  C2_9 
REMARK    4  A    between atoms: C2_9  and  C6_13 
REMARK    5  A    between atoms: C12_19  and  C13_20 
ROOT
HETATM    1  O2  UNK     1      20.318  -4.320  34.858  1.00  0.00    -0.267 OA
HETATM    2  N2  UNK     1      19.104  -3.815  36.783  1.00  0.00    -0.356 N 
HETATM    3  C12 UNK     1      19.700  -4.661  35.865  1.00  0.00     0.257 C 
HETATM    4  H11 UNK     1      18.590  -4.197  37.571  1.00  0.00     0.162 HD
ENDROOT
BRANCH   2   5
HETATM    5  C6  UNK     1      19.137  -2.374  36.665  1.00  0.00     0.127 C 
BRANCH   5   6
HETATM    6  C2  UNK     1      17.770  -1.844  36.237  1.00  0.00     0.061 C 
BRANCH   6   7
HETATM    7  C1  UNK     1      17.847  -0.580  35.429  1.00  0.00    -0.022 A 
HETATM    8  C3  UNK     1      18.371  -0.476  34.126  1.00  0.00     0.000 A 
HETATM    9  C5  UNK     1      18.247   0.867  33.760  1.00  0.00     0.043 A 
HETATM   10  C7  UNK     1      18.943  -1.378  33.206  1.00  0.00     0.033 A 
HETATM   11  N1  UNK     1      17.666   1.523  34.822  1.00  0.00    -0.359 N 
HETATM   12  C9  UNK     1      18.667   1.353  32.518  1.00  0.00     0.031 A 
HETATM   13  C4  UNK     1      17.420   0.644  35.843  1.00  0.00     0.013 A 
HETATM   14  H3  UNK     1      17.455   2.511  34.840  1.00  0.00     0.166 HD
HETATM   15  C8  UNK     1      16.799   1.097  37.103  1.00  0.00     0.068 C 
HETATM   16  C11 UNK     1      19.231   0.440  31.622  1.00  0.00     0.021 A 
HETATM   17  C10 UNK     1      19.368  -0.905  31.960  1.00  0.00     0.011 A 
HETATM   18 Br1  UNK     1      20.137  -2.109  30.718  1.00  0.00    -0.051 Br
ENDBRANCH   6   7
ENDBRANCH   5   6
ENDBRANCH   2   5
BRANCH   3  19
HETATM   19  C13 UNK     1      19.532  -6.079  36.203  1.00  0.00     0.108 A 
HETATM   20  C15 UNK     1      20.613  -6.855  36.052  1.00  0.00     0.037 A 
HETATM   21  C14 UNK     1      20.545  -8.274  36.363  1.00  0.00     0.002 A 
HETATM   22  C16 UNK     1      19.344  -8.808  36.817  1.00  0.00     0.089 A 
HETATM   23  C18 UNK     1      21.648  -9.120  36.221  1.00  0.00     0.051 A 
HETATM   24  O1  UNK     1      18.210  -7.987  36.973  1.00  0.00    -0.274 OA
HETATM   25  C19 UNK     1      19.213 -10.159  37.131  1.00  0.00     0.041 A 
HETATM   26  C17 UNK     1      18.243  -6.625  36.684  1.00  0.00     0.304 A 
HETATM   27  O4  UNK     1      17.251  -5.917  36.823  1.00  0.00    -0.259 OA
HETATM   28  C21 UNK     1      20.316 -10.995  36.987  1.00  0.00     0.039 A 
HETATM   29  C20 UNK     1      21.532 -10.479  36.532  1.00  0.00     0.069 A 
BRANCH  29  30
HETATM   30  O3  UNK     1      22.609 -11.300  36.392  1.00  0.00    -0.356 OA
HETATM   31  C22 UNK     1      23.849 -10.688  36.041  1.00  0.00     0.210 C 
ENDBRANCH  29  30
ENDBRANCH   3  19
TORSDOF 5
ENDMDL
MODEL 4
REMARK VINA RESULT:      -9.6      6.037     11.334
REMARK  5 active torsions:
REMARK  status: ('A' for Active; 'I' for Inactive)
REMARK    1  A    between atoms: C20_27  and  O3_4 
REMARK       I    between atoms: C12_19  and  N2_7 
REMARK    2  A    between atoms: C6_13  and  N2_7 
REMARK    3  A    between atoms: C1_8  and  C2_9 
REMARK    4  A    between atoms: C2_9  and  C6_13 
REMARK    5  A    between atoms: C12_19  and  C13_20 
ROOT
HETATM    1  O2  UNK     1      21.037  -2.156  35.440  1.00  0.00    -0.267 OA
HETATM    2  N2  UNK     1      19.991  -4.155  34.853  1.00  0.00    -0.356 N 
HETATM    3  C12 UNK     1      20.541  -2.910  34.605  1.00  0.00     0.257 C 
HETATM    4  H11 UNK     1      19.579  -4.692  34.096  1.00  0.00     0.162 HD
ENDROOT
BRANCH   2   5
HETATM    5  C6  UNK     1      19.932  -4.742  36.173  1.00  0.00     0.127 C 
BRANCH   5   6
HETATM    6  C2  UNK     1      18.541  -5.317  36.438  1.00  0.00     0.061 C 
BRANCH   6   7
HETATM    7  C1  UNK     1      18.524  -6.815  36.539  1.00  0.00    -0.022 A 
HETATM    8  C3  UNK     1      19.400  -7.589  37.324  1.00  0.00     0.000 A 
HETATM    9  C5  UNK     1      19.033  -8.922  37.123  1.00  0.00     0.043 A 
HETATM   10  C7  UNK     1      20.475  -7.307  38.191  1.00  0.00     0.033 A 
HETATM   11  N1  UNK     1      17.972  -8.920  36.245  1.00  0.00    -0.359 N 
HETATM   12  C9  UNK     1      19.688  -9.989  37.746  1.00  0.00     0.031 A 
HETATM   13  C4  UNK     1      17.657  -7.637  35.887  1.00  0.00     0.013 A 
HETATM   14  H3  UNK     1      17.498  -9.750  35.916  1.00  0.00     0.166 HD
HETATM   15  C8  UNK     1      16.552  -7.359  34.949  1.00  0.00     0.068 C 
HETATM   16  C11 UNK     1      20.751  -9.684  38.602  1.00  0.00     0.021 A 
HETATM   17  C10 UNK     1      21.140  -8.364  38.822  1.00  0.00     0.011 A 
HETATM   18 Br1  UNK     1      22.584  -7.995  39.988  1.00  0.00    -0.051 Br
ENDBRANCH   6   7
ENDBRANCH   5   6
ENDBRANCH   2   5
BRANCH   3  19
HETATM   19  C13 UNK     1      20.487  -2.535  33.187  1.00  0.00     0.108 A 
HETATM   20  C15 UNK     1      19.971  -1.330  32.913  1.00  0.00     0.037 A 
HETATM   21  C14 UNK     1      19.877  -0.870  31.537  1.00  0.00     0.002 A 
HETATM   22  C16 UNK     1      20.329  -1.699  30.516  1.00  0.00     0.089 A 
HETATM   23  C18 UNK     1      19.347   0.380  31.205  1.00  0.00     0.051 A 
HETATM   24  O1  UNK     1      20.870  -2.967  30.811  1.00  0.00    -0.274 OA
HETATM   25  C19 UNK     1      20.266  -1.318  29.177  1.00  0.00     0.041 A 
HETATM   26  C17 UNK     1      20.973  -3.436  32.117  1.00  0.00     0.304 A 
HETATM   27  O4  UNK     1      21.445  -4.540  32.365  1.00  0.00    -0.259 OA
HETATM   28  C21 UNK     1      19.737  -0.071  28.855  1.00  0.00     0.039 A 
HETATM   29  C20 UNK     1      19.277   0.777  29.866  1.00  0.00     0.069 A 
BRANCH  29  30
HETATM   30  O3  UNK     1      18.760   1.995  29.547  1.00  0.00    -0.356 OA
HETATM   31  C22 UNK     1      17.806   2.037  28.487  1.00  0.00     0.210 C 
ENDBRANCH  29  30
ENDBRANCH   3  19
TORSDOF 5
ENDMDL
MODEL 5
REMARK VINA RESULT:      -9.1     15.112     19.050
REMARK  5 active torsions:
REMARK  status: ('A' for Active; 'I' for Inactive)
REMARK    1  A    between atoms: C20_27  and  O3_4 
REMARK       I    between atoms: C12_19  and  N2_7 
REMARK    2  A    between atoms: C6_13  and  N2_7 
REMARK    3  A    between atoms: C1_8  and  C2_9 
REMARK    4  A    between atoms: C2_9  and  C6_13 
REMARK    5  A    between atoms: C12_19  and  C13_20 
ROOT
HETATM    1  O2  UNK     1      17.554  -3.183  15.742  1.00  0.00    -0.267 OA
HETATM    2  N2  UNK     1      19.813  -3.234  15.169  1.00  0.00    -0.356 N 
HETATM    3  C12 UNK     1      18.654  -2.643  15.639  1.00  0.00     0.257 C 
HETATM    4  H11 UNK     1      20.669  -2.693  15.096  1.00  0.00     0.162 HD
ENDROOT
BRANCH   2   5
HETATM    5  C6  UNK     1      19.873  -4.609  14.726  1.00  0.00     0.127 C 
BRANCH   5   6
HETATM    6  C2  UNK     1      19.244  -5.532  15.768  1.00  0.00     0.061 C 
BRANCH   6   7
HETATM    7  C1  UNK     1      18.147  -6.396  15.215  1.00  0.00    -0.022 A 
HETATM    8  C3  UNK     1      18.133  -6.975  13.931  1.00  0.00     0.000 A 
HETATM    9  C5  UNK     1      16.938  -7.691  13.837  1.00  0.00     0.043 A 
HETATM   10  C7  UNK     1      19.009  -6.972  12.827  1.00  0.00     0.033 A 
HETATM   11  N1  UNK     1      16.276  -7.531  15.034  1.00  0.00    -0.359 N 
HETATM   12  C9  UNK     1      16.574  -8.405  12.691  1.00  0.00     0.031 A 
HETATM   13  C4  UNK     1      17.010  -6.743  15.878  1.00  0.00     0.013 A 
HETATM   14  H3  UNK     1      15.378  -7.941  15.252  1.00  0.00     0.166 HD
HETATM   15  C8  UNK     1      16.520  -6.416  17.232  1.00  0.00     0.068 C 
HETATM   16  C11 UNK     1      17.458  -8.388  11.609  1.00  0.00     0.021 A 
HETATM   17  C10 UNK     1      18.658  -7.682  11.674  1.00  0.00     0.011 A 
HETATM   18 Br1  UNK     1      19.828  -7.684  10.186  1.00  0.00    -0.051 Br
ENDBRANCH   6   7
ENDBRANCH   5   6
ENDBRANCH   2   5
BRANCH   3  19
HETATM   19  C13 UNK     1      18.847  -1.242  16.032  1.00  0.00     0.108 A 
HETATM   20  C15 UNK     1      18.701  -0.968  17.334  1.00  0.00     0.037 A 
HETATM   21  C14 UNK     1      18.873   0.393  17.819  1.00  0.00     0.002 A 
HETATM   22  C16 UNK     1      19.190   1.397  16.911  1.00  0.00     0.089 A 
HETATM   23  C18 UNK     1      18.732   0.724  19.169  1.00  0.00     0.051 A 
HETATM   24  O1  UNK     1      19.341   1.102  15.542  1.00  0.00    -0.274 OA
HETATM   25  C19 UNK     1      19.368   2.720  17.312  1.00  0.00     0.041 A 
HETATM   26  C17 UNK     1      19.182  -0.189  15.047  1.00  0.00     0.304 A 
HETATM   27  O4  UNK     1      19.315  -0.437  13.853  1.00  0.00    -0.259 OA
HETATM   28  C21 UNK     1      19.225   3.042  18.659  1.00  0.00     0.039 A 
HETATM   29  C20 UNK     1      18.907   2.048  19.586  1.00  0.00     0.069 A 
BRANCH  29  30
HETATM   30  O3  UNK     1      18.768   2.366  20.902  1.00  0.00    -0.356 OA
HETATM   31  C22 UNK     1      19.860   2.050  21.765  1.00  0.00     0.210 C 
ENDBRANCH  29  30
ENDBRANCH   3  19
TORSDOF 5
ENDMDL
MODEL 6
REMARK VINA RESULT:      -9.0      5.739     10.891
REMARK  5 active torsions:
REMARK  status: ('A' for Active; 'I' for Inactive)
REMARK    1  A    between atoms: C20_27  and  O3_4 
REMARK       I    between atoms: C12_19  and  N2_7 
REMARK    2  A    between atoms: C6_13  and  N2_7 
REMARK    3  A    between atoms: C1_8  and  C2_9 
REMARK    4  A    between atoms: C2_9  and  C6_13 
REMARK    5  A    between atoms: C12_19  and  C13_20 
ROOT
HETATM    1  O2  UNK     1      17.540  -1.125  36.524  1.00  0.00    -0.267 OA
HETATM    2  N2  UNK     1      19.363  -2.179  35.524  1.00  0.00    -0.356 N 
HETATM    3  C12 UNK     1      18.379  -1.212  35.630  1.00  0.00     0.257 C 
HETATM    4  H11 UNK     1      19.994  -2.180  34.728  1.00  0.00     0.162 HD
ENDROOT
BRANCH   2   5
HETATM    5  C6  UNK     1      19.528  -3.245  36.487  1.00  0.00     0.127 C 
BRANCH   5   6
HETATM    6  C2  UNK     1      19.521  -4.602  35.785  1.00  0.00     0.061 C 
BRANCH   6   7
HETATM    7  C1  UNK     1      19.351  -5.759  36.726  1.00  0.00    -0.022 A 
HETATM    8  C3  UNK     1      20.329  -6.233  37.622  1.00  0.00     0.000 A 
HETATM    9  C5  UNK     1      19.753  -7.313  38.296  1.00  0.00     0.043 A 
HETATM   10  C7  UNK     1      21.652  -5.866  37.940  1.00  0.00     0.033 A 
HETATM   11  N1  UNK     1      18.475  -7.460  37.805  1.00  0.00    -0.359 N 
HETATM   12  C9  UNK     1      20.435  -8.044  39.275  1.00  0.00     0.031 A 
HETATM   13  C4  UNK     1      18.225  -6.514  36.848  1.00  0.00     0.013 A 
HETATM   14  H3  UNK     1      17.820  -8.167  38.111  1.00  0.00     0.166 HD
HETATM   15  C8  UNK     1      16.920  -6.456  36.159  1.00  0.00     0.068 C 
HETATM   16  C11 UNK     1      21.745  -7.660  39.573  1.00  0.00     0.021 A 
HETATM   17  C10 UNK     1      22.346  -6.588  38.916  1.00  0.00     0.011 A 
HETATM   18 Br1  UNK     1      24.123  -6.101  39.350  1.00  0.00    -0.051 Br
ENDBRANCH   6   7
ENDBRANCH   5   6
ENDBRANCH   2   5
BRANCH   3  19
HETATM   19  C13 UNK     1      18.417  -0.237  34.534  1.00  0.00     0.108 A 
HETATM   20  C15 UNK     1      18.243   1.045  34.876  1.00  0.00     0.037 A 
HETATM   21  C14 UNK     1      18.265   2.085  33.859  1.00  0.00     0.002 A 
HETATM   22  C16 UNK     1      18.468   1.724  32.531  1.00  0.00     0.089 A 
HETATM   23  C18 UNK     1      18.089   3.435  34.171  1.00  0.00     0.051 A 
HETATM   24  O1  UNK     1      18.649   0.372  32.177  1.00  0.00    -0.274 OA
HETATM   25  C19 UNK     1      18.499   2.671  31.509  1.00  0.00     0.041 A 
HETATM   26  C17 UNK     1      18.634  -0.645  33.127  1.00  0.00     0.304 A 
HETATM   27  O4  UNK     1      18.792  -1.819  32.810  1.00  0.00    -0.259 OA
HETATM   28  C21 UNK     1      18.323   4.014  31.828  1.00  0.00     0.039 A 
HETATM   29  C20 UNK     1      18.117   4.397  33.156  1.00  0.00     0.069 A 
BRANCH  29  30
HETATM   30  O3  UNK     1      17.945   5.712  33.464  1.00  0.00    -0.356 OA
HETATM   31  C22 UNK     1      16.947   6.424  32.734  1.00  0.00     0.210 C 
ENDBRANCH  29  30
ENDBRANCH   3  19
TORSDOF 5
ENDMDL
MODEL 7
REMARK VINA RESULT:      -8.9     15.380     19.267
REMARK  5 active torsions:
REMARK  status: ('A' for Active; 'I' for Inactive)
REMARK    1  A    between atoms: C20_27  and  O3_4 
REMARK       I    between atoms: C12_19  and  N2_7 
REMARK    2  A    between atoms: C6_13  and  N2_7 
REMARK    3  A    between atoms: C1_8  and  C2_9 
REMARK    4  A    between atoms: C2_9  and  C6_13 
REMARK    5  A    between atoms: C12_19  and  C13_20 
ROOT
HETATM    1  O2  UNK     1      18.227  -3.475  15.784  1.00  0.00    -0.267 OA
HETATM    2  N2  UNK     1      20.227  -3.009  14.680  1.00  0.00    -0.356 N 
HETATM    3  C12 UNK     1      19.131  -2.704  15.468  1.00  0.00     0.257 C 
HETATM    4  H11 UNK     1      20.908  -2.290  14.453  1.00  0.00     0.162 HD
ENDROOT
BRANCH   2   5
HETATM    5  C6  UNK     1      20.450  -4.319  14.112  1.00  0.00     0.127 C 
BRANCH   5   6
HETATM    6  C2  UNK     1      19.721  -4.451  12.776  1.00  0.00     0.061 C 
BRANCH   6   7
HETATM    7  C1  UNK     1      19.336  -5.863  12.443  1.00  0.00    -0.022 A 
HETATM    8  C3  UNK     1      18.285  -6.586  13.040  1.00  0.00     0.000 A 
HETATM    9  C5  UNK     1      18.283  -7.846  12.438  1.00  0.00     0.043 A 
HETATM   10  C7  UNK     1      17.324  -6.310  14.035  1.00  0.00     0.033 A 
HETATM   11  N1  UNK     1      19.306  -7.854  11.516  1.00  0.00    -0.359 N 
HETATM   12  C9  UNK     1      17.367  -8.846  12.781  1.00  0.00     0.031 A 
HETATM   13  C4  UNK     1      19.951  -6.647  11.515  1.00  0.00     0.013 A 
HETATM   14  H3  UNK     1      19.541  -8.641  10.927  1.00  0.00     0.166 HD
HETATM   15  C8  UNK     1      21.092  -6.396  10.613  1.00  0.00     0.068 C 
HETATM   16  C11 UNK     1      16.424  -8.548  13.769  1.00  0.00     0.021 A 
HETATM   17  C10 UNK     1      16.402  -7.300  14.388  1.00  0.00     0.011 A 
HETATM   18 Br1  UNK     1      15.109  -6.938  15.722  1.00  0.00    -0.051 Br
ENDBRANCH   6   7
ENDBRANCH   5   6
ENDBRANCH   2   5
BRANCH   3  19
HETATM   19  C13 UNK     1      19.129  -1.310  15.929  1.00  0.00     0.108 A 
HETATM   20  C15 UNK     1      18.944  -1.122  17.241  1.00  0.00     0.037 A 
HETATM   21  C14 UNK     1      18.927   0.224  17.793  1.00  0.00     0.002 A 
HETATM   22  C16 UNK     1      19.106   1.306  16.936  1.00  0.00     0.089 A 
HETATM   23  C18 UNK     1      18.739   0.467  19.155  1.00  0.00     0.051 A 
HETATM   24  O1  UNK     1      19.299   1.101  15.556  1.00  0.00    -0.274 OA
HETATM   25  C19 UNK     1      19.100   2.619  17.401  1.00  0.00     0.041 A 
HETATM   26  C17 UNK     1      19.320  -0.175  14.998  1.00  0.00     0.304 A 
HETATM   27  O4  UNK     1      19.489  -0.344  13.795  1.00  0.00    -0.259 OA
HETATM   28  C21 UNK     1      18.911   2.853  18.760  1.00  0.00     0.039 A 
HETATM   29  C20 UNK     1      18.730   1.781  19.637  1.00  0.00     0.069 A 
BRANCH  29  30
HETATM   30  O3  UNK     1      18.545   2.013  20.965  1.00  0.00    -0.356 OA
HETATM   31  C22 UNK     1      19.716   2.133  21.771  1.00  0.00     0.210 C 
ENDBRANCH  29  30
ENDBRANCH   3  19
TORSDOF 5
ENDMDL
MODEL 8
REMARK VINA RESULT:      -8.9     15.174     16.754
REMARK  5 active torsions:
REMARK  status: ('A' for Active; 'I' for Inactive)
REMARK    1  A    between atoms: C20_27  and  O3_4 
REMARK       I    between atoms: C12_19  and  N2_7 
REMARK    2  A    between atoms: C6_13  and  N2_7 
REMARK    3  A    between atoms: C1_8  and  C2_9 
REMARK    4  A    between atoms: C2_9  and  C6_13 
REMARK    5  A    between atoms: C12_19  and  C13_20 
ROOT
HETATM    1  O2  UNK     1      32.327  -4.903  38.585  1.00  0.00    -0.267 OA
HETATM    2  N2  UNK     1      31.377  -4.259  36.556  1.00  0.00    -0.356 N 
HETATM    3  C12 UNK     1      31.386  -4.875  37.795  1.00  0.00     0.257 C 
HETATM    4  H11 UNK     1      30.555  -4.317  35.963  1.00  0.00     0.162 HD
ENDROOT
BRANCH   2   5
HETATM    5  C6  UNK     1      32.516  -3.547  36.022  1.00  0.00     0.127 C 
BRANCH   5   6
HETATM    6  C2  UNK     1      33.113  -4.308  34.839  1.00  0.00     0.061 C 
BRANCH   6   7
HETATM    7  C1  UNK     1      33.288  -5.776  35.101  1.00  0.00    -0.022 A 
HETATM    8  C3  UNK     1      32.373  -6.785  34.740  1.00  0.00     0.000 A 
HETATM    9  C5  UNK     1      32.929  -7.991  35.172  1.00  0.00     0.043 A 
HETATM   10  C7  UNK     1      31.122  -6.810  34.090  1.00  0.00     0.033 A 
HETATM   11  N1  UNK     1      34.134  -7.691  35.766  1.00  0.00    -0.359 N 
HETATM   12  C9  UNK     1      32.296  -9.224  34.985  1.00  0.00     0.031 A 
HETATM   13  C4  UNK     1      34.358  -6.341  35.725  1.00  0.00     0.013 A 
HETATM   14  H3  UNK     1      34.760  -8.373  36.172  1.00  0.00     0.166 HD
HETATM   15  C8  UNK     1      35.585  -5.756  36.299  1.00  0.00     0.068 C 
HETATM   16  C11 UNK     1      31.057  -9.224  34.338  1.00  0.00     0.021 A 
HETATM   17  C10 UNK     1      30.477  -8.036  33.897  1.00  0.00     0.011 A 
HETATM   18 Br1  UNK     1      28.798  -8.080  33.025  1.00  0.00    -0.051 Br
ENDBRANCH   6   7
ENDBRANCH   5   6
ENDBRANCH   2   5
BRANCH   3  19
HETATM   19  C13 UNK     1      30.112  -5.529  38.115  1.00  0.00     0.108 A 
HETATM   20  C15 UNK     1      29.821  -6.633  37.416  1.00  0.00     0.037 A 
HETATM   21  C14 UNK     1      28.581  -7.352  37.663  1.00  0.00     0.002 A 
HETATM   22  C16 UNK     1      27.706  -6.873  38.632  1.00  0.00     0.089 A 
HETATM   23  C18 UNK     1      28.239  -8.509  36.959  1.00  0.00     0.051 A 
HETATM   24  O1  UNK     1      28.016  -5.709  39.364  1.00  0.00    -0.274 OA
HETATM   25  C19 UNK     1      26.502  -7.514  38.916  1.00  0.00     0.041 A 
HETATM   26  C17 UNK     1      29.195  -5.000  39.151  1.00  0.00     0.304 A 
HETATM   27  O4  UNK     1      29.458  -3.988  39.792  1.00  0.00    -0.259 OA
HETATM   28  C21 UNK     1      26.168  -8.666  38.210  1.00  0.00     0.039 A 
HETATM   29  C20 UNK     1      27.033  -9.163  37.232  1.00  0.00     0.069 A 
BRANCH  29  30
HETATM   30  O3  UNK     1      26.703 -10.290  36.543  1.00  0.00    -0.356 OA
HETATM   31  C22 UNK     1      25.317 -10.624  36.472  1.00  0.00     0.210 C 
ENDBRANCH  29  30
ENDBRANCH   3  19
TORSDOF 5
ENDMDL
MODEL 9
REMARK VINA RESULT:      -8.9     16.156     19.811
REMARK  5 active torsions:
REMARK  status: ('A' for Active; 'I' for Inactive)
REMARK    1  A    between atoms: C20_27  and  O3_4 
REMARK       I    between atoms: C12_19  and  N2_7 
REMARK    2  A    between atoms: C6_13  and  N2_7 
REMARK    3  A    between atoms: C1_8  and  C2_9 
REMARK    4  A    between atoms: C2_9  and  C6_13 
REMARK    5  A    between atoms: C12_19  and  C13_20 
ROOT
HETATM    1  O2  UNK     1      17.504  -3.198  15.811  1.00  0.00    -0.267 OA
HETATM    2  N2  UNK     1      19.527  -3.116  14.656  1.00  0.00    -0.356 N 
HETATM    3  C12 UNK     1      18.516  -2.602  15.449  1.00  0.00     0.257 C 
HETATM    4  H11 UNK     1      20.313  -2.531  14.389  1.00  0.00     0.162 HD
ENDROOT
BRANCH   2   5
HETATM    5  C6  UNK     1      19.515  -4.466  14.140  1.00  0.00     0.127 C 
BRANCH   5   6
HETATM    6  C2  UNK     1      20.454  -4.585  12.941  1.00  0.00     0.061 C 
BRANCH   6   7
HETATM    7  C1  UNK     1      19.817  -4.181  11.642  1.00  0.00    -0.022 A 
HETATM    8  C3  UNK     1      18.861  -4.934  10.934  1.00  0.00     0.000 A 
HETATM    9  C5  UNK     1      18.545  -4.193   9.793  1.00  0.00     0.043 A 
HETATM   10  C7  UNK     1      18.221  -6.175  11.133  1.00  0.00     0.033 A 
HETATM   11  N1  UNK     1      19.297  -3.041   9.838  1.00  0.00    -0.359 N 
HETATM   12  C9  UNK     1      17.619  -4.631   8.840  1.00  0.00     0.031 A 
HETATM   13  C4  UNK     1      20.075  -3.029  10.965  1.00  0.00     0.013 A 
HETATM   14  H3  UNK     1      19.275  -2.312   9.138  1.00  0.00     0.166 HD
HETATM   15  C8  UNK     1      20.980  -1.899  11.251  1.00  0.00     0.068 C 
HETATM   16  C11 UNK     1      16.998  -5.863   9.060  1.00  0.00     0.021 A 
HETATM   17  C10 UNK     1      17.293  -6.625  10.189  1.00  0.00     0.011 A 
HETATM   18 Br1  UNK     1      16.429  -8.289  10.449  1.00  0.00    -0.051 Br
ENDBRANCH   6   7
ENDBRANCH   5   6
ENDBRANCH   2   5
BRANCH   3  19
HETATM   19  C13 UNK     1      18.757  -1.211  15.851  1.00  0.00     0.108 A 
HETATM   20  C15 UNK     1      18.630  -0.943  17.157  1.00  0.00     0.037 A 
HETATM   21  C14 UNK     1      18.850   0.407  17.652  1.00  0.00     0.002 A 
HETATM   22  C16 UNK     1      19.193   1.408  16.749  1.00  0.00     0.089 A 
HETATM   23  C18 UNK     1      18.730   0.731  19.005  1.00  0.00     0.051 A 
HETATM   24  O1  UNK     1      19.324   1.120  15.377  1.00  0.00    -0.274 OA
HETATM   25  C19 UNK     1      19.416   2.721  17.159  1.00  0.00     0.041 A 
HETATM   26  C17 UNK     1      19.120  -0.162  14.872  1.00  0.00     0.304 A 
HETATM   27  O4  UNK     1      19.236  -0.404  13.676  1.00  0.00    -0.259 OA
HETATM   28  C21 UNK     1      19.294   3.037  18.510  1.00  0.00     0.039 A 
HETATM   29  C20 UNK     1      18.951   2.045  19.432  1.00  0.00     0.069 A 
BRANCH  29  30
HETATM   30  O3  UNK     1      18.832   2.357  20.752  1.00  0.00    -0.356 OA
HETATM   31  C22 UNK     1      19.908   1.976  21.607  1.00  0.00     0.210 C 
ENDBRANCH  29  30
ENDBRANCH   3  19
TORSDOF 5
ENDMDL
MODEL 10
REMARK VINA RESULT:      -8.9     22.441     24.521
REMARK  5 active torsions:
REMARK  status: ('A' for Active; 'I' for Inactive)
REMARK    1  A    between atoms: C20_27  and  O3_4 
REMARK       I    between atoms: C12_19  and  N2_7 
REMARK    2  A    between atoms: C6_13  and  N2_7 
REMARK    3  A    between atoms: C1_8  and  C2_9 
REMARK    4  A    between atoms: C2_9  and  C6_13 
REMARK    5  A    between atoms: C12_19  and  C13_20 
ROOT
HETATM    1  O2  UNK     1       8.286   8.522   9.380  1.00  0.00    -0.267 OA
HETATM    2  N2  UNK     1      10.169   7.198   9.015  1.00  0.00    -0.356 N 
HETATM    3  C12 UNK     1       8.830   7.425   9.277  1.00  0.00     0.257 C 
HETATM    4  H11 UNK     1      10.528   6.249   8.976  1.00  0.00     0.162 HD
ENDROOT
BRANCH   2   5
HETATM    5  C6  UNK     1      11.126   8.264   8.823  1.00  0.00     0.127 C 
BRANCH   5   6
HETATM    6  C2  UNK     1      12.206   7.837   7.830  1.00  0.00     0.061 C 
BRANCH   6   7
HETATM    7  C1  UNK     1      13.311   7.037   8.457  1.00  0.00    -0.022 A 
HETATM    8  C3  UNK     1      14.471   7.572   9.051  1.00  0.00     0.000 A 
HETATM    9  C5  UNK     1      15.219   6.482   9.501  1.00  0.00     0.043 A 
HETATM   10  C7  UNK     1      14.975   8.871   9.259  1.00  0.00     0.033 A 
HETATM   11  N1  UNK     1      14.512   5.345   9.177  1.00  0.00    -0.359 N 
HETATM   12  C9  UNK     1      16.450   6.627  10.150  1.00  0.00     0.031 A 
HETATM   13  C4  UNK     1      13.347   5.678   8.541  1.00  0.00     0.013 A 
HETATM   14  H3  UNK     1      14.815   4.403   9.383  1.00  0.00     0.166 HD
HETATM   15  C8  UNK     1      12.405   4.638   8.087  1.00  0.00     0.068 C 
HETATM   16  C11 UNK     1      16.929   7.925  10.345  1.00  0.00     0.021 A 
HETATM   17  C10 UNK     1      16.205   9.032   9.906  1.00  0.00     0.011 A 
HETATM   18 Br1  UNK     1      16.890  10.773  10.190  1.00  0.00    -0.051 Br
ENDBRANCH   6   7
ENDBRANCH   5   6
ENDBRANCH   2   5
BRANCH   3  19
HETATM   19  C13 UNK     1       8.060   6.184   9.428  1.00  0.00     0.108 A 
HETATM   20  C15 UNK     1       7.491   5.984  10.623  1.00  0.00     0.037 A 
HETATM   21  C14 UNK     1       6.708   4.783  10.870  1.00  0.00     0.002 A 
HETATM   22  C16 UNK     1       6.562   3.852   9.847  1.00  0.00     0.089 A 
HETATM   23  C18 UNK     1       6.096   4.534  12.100  1.00  0.00     0.051 A 
HETATM   24  O1  UNK     1       7.164   4.068   8.591  1.00  0.00    -0.274 OA
HETATM   25  C19 UNK     1       5.825   2.681  10.018  1.00  0.00     0.041 A 
HETATM   26  C17 UNK     1       7.920   5.207   8.325  1.00  0.00     0.304 A 
HETATM   27  O4  UNK     1       8.440   5.387   7.230  1.00  0.00    -0.259 OA
HETATM   28  C21 UNK     1       5.219   2.440  11.248  1.00  0.00     0.039 A 
HETATM   29  C20 UNK     1       5.353   3.363  12.288  1.00  0.00     0.069 A 
BRANCH  29  30
HETATM   30  O3  UNK     1       4.759   3.124  13.489  1.00  0.00    -0.356 OA
HETATM   31  C22 UNK     1       5.576   2.568  14.518  1.00  0.00     0.210 C 
ENDBRANCH  29  30
ENDBRANCH   3  19
TORSDOF 5
ENDMDL
