MODEL 1
REMARK VINA RESULT:      -9.8      0.000      0.000
REMARK  7 active torsions:
REMARK  status: ('A' for Active; 'I' for Inactive)
REMARK    1  A    between atoms: C3_14  and  O1_1 
REMARK    2  A    between atoms: C7_18  and  O1_1 
REMARK    3  A    between atoms: C5_16  and  N1_8 
REMARK    4  A    between atoms: N1_8  and  N2_9 
REMARK    5  A    between atoms: C9_20  and  N3_10 
REMARK    6  A    between atoms: C14_25  and  N4_11 
REMARK    7  A    between atoms: C10_21  and  C7_18 
ROOT
HETATM    1  N2  UNK     1      21.066  -4.178  36.830  1.00  0.00    -0.182 NA
HETATM    2  C10 UNK     1      20.132  -3.354  36.461  1.00  0.00     0.052 C 
HETATM    3  C17 UNK     1      18.703  -3.746  36.752  1.00  0.00     0.070 C 
ENDROOT
BRANCH   1   4
HETATM    4  N1  UNK     1      20.685  -5.313  37.441  1.00  0.00    -0.276 N 
HETATM    5  H9  UNK     1      20.068  -5.278  38.240  1.00  0.00     0.189 HD
BRANCH   4   6
HETATM    6  C5  UNK     1      21.068  -6.563  36.929  1.00  0.00     0.083 A 
HETATM    7  C12 UNK     1      20.508  -7.012  35.729  1.00  0.00     0.036 A 
HETATM    8  C15 UNK     1      20.872  -8.249  35.199  1.00  0.00     0.038 A 
HETATM    9  C14 UNK     1      21.800  -9.047  35.867  1.00  0.00     0.105 A 
HETATM   10  C13 UNK     1      22.364  -8.608  37.066  1.00  0.00     0.074 A 
HETATM   11  C9  UNK     1      21.999  -7.370  37.595  1.00  0.00     0.133 A 
BRANCH   9  12
HETATM   12  N4  UNK     1      22.171 -10.308  35.328  1.00  0.00    -0.116 N 
HETATM   13  O6  UNK     1      21.762 -10.623  34.185  1.00  0.00    -0.532 OA
HETATM   14  O7  UNK     1      22.898 -11.070  36.010  1.00  0.00    -0.532 OA
ENDBRANCH   9  12
BRANCH  11  15
HETATM   15  N3  UNK     1      22.590  -6.945  38.818  1.00  0.00    -0.113 N 
HETATM   16  O4  UNK     1      22.340  -7.585  39.865  1.00  0.00    -0.532 OA
HETATM   17  O5  UNK     1      23.343  -5.943  38.809  1.00  0.00    -0.532 OA
ENDBRANCH  11  15
ENDBRANCH   4   6
ENDBRANCH   1   4
BRANCH   2  18
HETATM   18  C7  UNK     1      20.347  -2.019  35.777  1.00  0.00     0.231 C 
BRANCH  18  19
HETATM   19  O1  UNK     1      19.257  -1.769  34.891  1.00  0.00    -0.345 OA
BRANCH  19  20
HETATM   20  C3  UNK     1      19.557  -1.610  33.573  1.00  0.00     0.071 A 
HETATM   21  C4  UNK     1      18.988  -0.564  32.851  1.00  0.00     0.075 A 
HETATM   22  C2  UNK     1      19.311  -0.421  31.502  1.00  0.00     0.092 A 
HETATM   23  C1  UNK     1      20.186  -1.294  30.861  1.00  0.00    -0.002 A 
HETATM   24  O2  UNK     1      18.719   0.647  30.797  1.00  0.00    -0.275 OA
HETATM   25  C6  UNK     1      20.751  -2.341  31.593  1.00  0.00     0.017 A 
HETATM   26  C11 UNK     1      20.477  -1.086  29.453  1.00  0.00     0.020 A 
HETATM   27  C8  UNK     1      20.437  -2.497  32.946  1.00  0.00     0.038 A 
HETATM   28  C16 UNK     1      19.913  -0.072  28.793  1.00  0.00     0.083 A 
HETATM   29  C18 UNK     1      18.983   0.866  29.449  1.00  0.00     0.288 A 
HETATM   30  O3  UNK     1      18.474   1.794  28.829  1.00  0.00    -0.260 OA
ENDBRANCH  19  20
ENDBRANCH  18  19
ENDBRANCH   2  18
TORSDOF 7
ENDMDL
MODEL 2
REMARK VINA RESULT:      -9.7      2.756      9.396
REMARK  7 active torsions:
REMARK  status: ('A' for Active; 'I' for Inactive)
REMARK    1  A    between atoms: C3_14  and  O1_1 
REMARK    2  A    between atoms: C7_18  and  O1_1 
REMARK    3  A    between atoms: C5_16  and  N1_8 
REMARK    4  A    between atoms: N1_8  and  N2_9 
REMARK    5  A    between atoms: C9_20  and  N3_10 
REMARK    6  A    between atoms: C14_25  and  N4_11 
REMARK    7  A    between atoms: C10_21  and  C7_18 
ROOT
HETATM    1  N2  UNK     1      20.202  -2.694  35.019  1.00  0.00    -0.182 NA
HETATM    2  C10 UNK     1      20.046  -3.038  36.262  1.00  0.00     0.052 C 
HETATM    3  C17 UNK     1      18.825  -2.518  36.980  1.00  0.00     0.070 C 
ENDROOT
BRANCH   1   4
HETATM    4  N1  UNK     1      19.262  -1.902  34.473  1.00  0.00    -0.276 N 
HETATM    5  H9  UNK     1      18.455  -1.625  35.012  1.00  0.00     0.189 HD
BRANCH   4   6
HETATM    6  C5  UNK     1      19.429  -1.383  33.179  1.00  0.00     0.083 A 
HETATM    7  C12 UNK     1      20.029  -2.177  32.196  1.00  0.00     0.036 A 
HETATM    8  C15 UNK     1      20.207  -1.685  30.903  1.00  0.00     0.038 A 
HETATM    9  C14 UNK     1      19.786  -0.393  30.585  1.00  0.00     0.105 A 
HETATM   10  C13 UNK     1      19.188   0.406  31.560  1.00  0.00     0.074 A 
HETATM   11  C9  UNK     1      19.010  -0.088  32.852  1.00  0.00     0.133 A 
BRANCH   9  12
HETATM   12  N4  UNK     1      19.968   0.108  29.269  1.00  0.00    -0.116 N 
HETATM   13  O6  UNK     1      20.704  -0.524  28.474  1.00  0.00    -0.532 OA
HETATM   14  O7  UNK     1      19.386   1.170  28.938  1.00  0.00    -0.532 OA
ENDBRANCH   9  12
BRANCH  11  15
HETATM   15  N3  UNK     1      18.395   0.747  33.828  1.00  0.00    -0.113 N 
HETATM   16  O4  UNK     1      18.989   0.948  34.912  1.00  0.00    -0.532 OA
HETATM   17  O5  UNK     1      17.279   1.257  33.571  1.00  0.00    -0.532 OA
ENDBRANCH  11  15
ENDBRANCH   4   6
ENDBRANCH   1   4
BRANCH   2  18
HETATM   18  C7  UNK     1      20.975  -3.934  37.055  1.00  0.00     0.231 C 
BRANCH  18  19
HETATM   19  O1  UNK     1      20.202  -4.716  37.965  1.00  0.00    -0.345 OA
BRANCH  19  20
HETATM   20  C3  UNK     1      20.348  -6.067  37.896  1.00  0.00     0.071 A 
HETATM   21  C4  UNK     1      20.754  -6.665  36.706  1.00  0.00     0.075 A 
HETATM   22  C2  UNK     1      20.897  -8.051  36.661  1.00  0.00     0.092 A 
HETATM   23  C1  UNK     1      20.647  -8.850  37.774  1.00  0.00    -0.002 A 
HETATM   24  O2  UNK     1      21.309  -8.627  35.442  1.00  0.00    -0.275 OA
HETATM   25  C6  UNK     1      20.240  -8.242  38.963  1.00  0.00     0.017 A 
HETATM   26  C11 UNK     1      20.816 -10.288  37.656  1.00  0.00     0.020 A 
HETATM   27  C8  UNK     1      20.092  -6.853  39.023  1.00  0.00     0.038 A 
HETATM   28  C16 UNK     1      21.207 -10.826  36.498  1.00  0.00     0.083 A 
HETATM   29  C18 UNK     1      21.478 -10.001  35.306  1.00  0.00     0.288 A 
HETATM   30  O3  UNK     1      21.838 -10.510  34.250  1.00  0.00    -0.260 OA
ENDBRANCH  19  20
ENDBRANCH  18  19
ENDBRANCH   2  18
TORSDOF 7
ENDMDL
MODEL 3
REMARK VINA RESULT:      -9.7      2.230      2.853
REMARK  7 active torsions:
REMARK  status: ('A' for Active; 'I' for Inactive)
REMARK    1  A    between atoms: C3_14  and  O1_1 
REMARK    2  A    between atoms: C7_18  and  O1_1 
REMARK    3  A    between atoms: C5_16  and  N1_8 
REMARK    4  A    between atoms: N1_8  and  N2_9 
REMARK    5  A    between atoms: C9_20  and  N3_10 
REMARK    6  A    between atoms: C14_25  and  N4_11 
REMARK    7  A    between atoms: C10_21  and  C7_18 
ROOT
HETATM    1  N2  UNK     1      20.048  -4.516  36.041  1.00  0.00    -0.182 NA
HETATM    2  C10 UNK     1      19.877  -3.229  35.991  1.00  0.00     0.052 C 
HETATM    3  C17 UNK     1      19.127  -2.581  37.129  1.00  0.00     0.070 C 
ENDROOT
BRANCH   1   4
HETATM    4  N1  UNK     1      19.542  -5.166  37.104  1.00  0.00    -0.276 N 
HETATM    5  H9  UNK     1      18.989  -4.671  37.788  1.00  0.00     0.189 HD
BRANCH   4   6
HETATM    6  C5  UNK     1      19.703  -6.555  37.233  1.00  0.00     0.083 A 
HETATM    7  C12 UNK     1      20.823  -7.054  37.908  1.00  0.00     0.036 A 
HETATM    8  C15 UNK     1      21.006  -8.429  38.050  1.00  0.00     0.038 A 
HETATM    9  C14 UNK     1      20.069  -9.316  37.518  1.00  0.00     0.105 A 
HETATM   10  C13 UNK     1      18.950  -8.827  36.844  1.00  0.00     0.074 A 
HETATM   11  C9  UNK     1      18.767  -7.451  36.702  1.00  0.00     0.133 A 
BRANCH   9  12
HETATM   12  N4  UNK     1      20.255 -10.716  37.663  1.00  0.00    -0.116 N 
HETATM   13  O6  UNK     1      21.283 -11.246  37.176  1.00  0.00    -0.532 OA
HETATM   14  O7  UNK     1      19.387 -11.385  38.274  1.00  0.00    -0.532 OA
ENDBRANCH   9  12
BRANCH  11  15
HETATM   15  N3  UNK     1      17.616  -6.979  36.011  1.00  0.00    -0.113 N 
HETATM   16  O4  UNK     1      17.404  -7.380  34.844  1.00  0.00    -0.532 OA
HETATM   17  O5  UNK     1      16.849  -6.175  36.593  1.00  0.00    -0.532 OA
ENDBRANCH  11  15
ENDBRANCH   4   6
ENDBRANCH   1   4
BRANCH   2  18
HETATM   18  C7  UNK     1      20.382  -2.311  34.897  1.00  0.00     0.231 C 
BRANCH  18  19
HETATM   19  O1  UNK     1      20.548  -3.065  33.697  1.00  0.00    -0.345 OA
BRANCH  19  20
HETATM   20  C3  UNK     1      20.371  -2.403  32.521  1.00  0.00     0.071 A 
HETATM   21  C4  UNK     1      19.653  -1.210  32.495  1.00  0.00     0.075 A 
HETATM   22  C2  UNK     1      19.485  -0.550  31.278  1.00  0.00     0.092 A 
HETATM   23  C1  UNK     1      20.017  -1.051  30.093  1.00  0.00    -0.002 A 
HETATM   24  O2  UNK     1      18.754   0.656  31.283  1.00  0.00    -0.275 OA
HETATM   25  C6  UNK     1      20.735  -2.248  30.129  1.00  0.00     0.017 A 
HETATM   26  C11 UNK     1      19.803  -0.311  28.861  1.00  0.00     0.020 A 
HETATM   27  C8  UNK     1      20.911  -2.921  31.341  1.00  0.00     0.038 A 
HETATM   28  C16 UNK     1      19.110   0.830  28.874  1.00  0.00     0.083 A 
HETATM   29  C18 UNK     1      18.537   1.382  30.116  1.00  0.00     0.288 A 
HETATM   30  O3  UNK     1      17.903   2.431  30.113  1.00  0.00    -0.260 OA
ENDBRANCH  19  20
ENDBRANCH  18  19
ENDBRANCH   2  18
TORSDOF 7
ENDMDL
MODEL 4
REMARK VINA RESULT:      -9.6      4.984      8.072
REMARK  7 active torsions:
REMARK  status: ('A' for Active; 'I' for Inactive)
REMARK    1  A    between atoms: C3_14  and  O1_1 
REMARK    2  A    between atoms: C7_18  and  O1_1 
REMARK    3  A    between atoms: C5_16  and  N1_8 
REMARK    4  A    between atoms: N1_8  and  N2_9 
REMARK    5  A    between atoms: C9_20  and  N3_10 
REMARK    6  A    between atoms: C14_25  and  N4_11 
REMARK    7  A    between atoms: C10_21  and  C7_18 
ROOT
HETATM    1  N2  UNK     1      18.589   0.780  31.503  1.00  0.00    -0.182 NA
HETATM    2  C10 UNK     1      19.022   1.174  30.344  1.00  0.00     0.052 C 
HETATM    3  C17 UNK     1      19.654   0.136  29.447  1.00  0.00     0.070 C 
ENDROOT
BRANCH   1   4
HETATM    4  N1  UNK     1      18.739  -0.520  31.812  1.00  0.00    -0.276 N 
HETATM    5  H9  UNK     1      18.852  -1.206  31.080  1.00  0.00     0.189 HD
BRANCH   4   6
HETATM    6  C5  UNK     1      18.827  -0.931  33.152  1.00  0.00     0.083 A 
HETATM    7  C12 UNK     1      17.858  -0.499  34.063  1.00  0.00     0.036 A 
HETATM    8  C15 UNK     1      17.921  -0.892  35.400  1.00  0.00     0.038 A 
HETATM    9  C14 UNK     1      18.956  -1.721  35.833  1.00  0.00     0.105 A 
HETATM   10  C13 UNK     1      19.927  -2.156  34.931  1.00  0.00     0.074 A 
HETATM   11  C9  UNK     1      19.862  -1.762  33.595  1.00  0.00     0.133 A 
BRANCH   9  12
HETATM   12  N4  UNK     1      19.021  -2.122  37.195  1.00  0.00    -0.116 N 
HETATM   13  O6  UNK     1      19.926  -2.914  37.551  1.00  0.00    -0.532 OA
HETATM   14  O7  UNK     1      18.172  -1.673  38.002  1.00  0.00    -0.532 OA
ENDBRANCH   9  12
BRANCH  11  15
HETATM   15  N3  UNK     1      20.864  -2.221  32.694  1.00  0.00    -0.113 N 
HETATM   16  O4  UNK     1      21.420  -1.394  31.935  1.00  0.00    -0.532 OA
HETATM   17  O5  UNK     1      21.160  -3.440  32.688  1.00  0.00    -0.532 OA
ENDBRANCH  11  15
ENDBRANCH   4   6
ENDBRANCH   1   4
BRANCH   2  18
HETATM   18  C7  UNK     1      18.934   2.584  29.797  1.00  0.00     0.231 C 
BRANCH  18  19
HETATM   19  O1  UNK     1      17.962   3.312  30.546  1.00  0.00    -0.345 OA
BRANCH  19  20
HETATM   20  C3  UNK     1      18.407   4.379  31.264  1.00  0.00     0.071 A 
HETATM   21  C4  UNK     1      17.632   4.894  32.301  1.00  0.00     0.075 A 
HETATM   22  C2  UNK     1      18.110   5.987  33.022  1.00  0.00     0.092 A 
HETATM   23  C1  UNK     1      19.340   6.574  32.735  1.00  0.00    -0.002 A 
HETATM   24  O2  UNK     1      17.303   6.486  34.065  1.00  0.00    -0.275 OA
HETATM   25  C6  UNK     1      20.110   6.050  31.694  1.00  0.00     0.017 A 
HETATM   26  C11 UNK     1      19.776   7.710  33.528  1.00  0.00     0.020 A 
HETATM   27  C8  UNK     1      19.644   4.955  30.962  1.00  0.00     0.038 A 
HETATM   28  C16 UNK     1      19.007   8.177  34.514  1.00  0.00     0.083 A 
HETATM   29  C18 UNK     1      17.700   7.573  34.837  1.00  0.00     0.288 A 
HETATM   30  O3  UNK     1      17.005   8.013  35.747  1.00  0.00    -0.260 OA
ENDBRANCH  19  20
ENDBRANCH  18  19
ENDBRANCH   2  18
TORSDOF 7
ENDMDL
MODEL 5
REMARK VINA RESULT:      -9.6      6.077      9.585
REMARK  7 active torsions:
REMARK  status: ('A' for Active; 'I' for Inactive)
REMARK    1  A    between atoms: C3_14  and  O1_1 
REMARK    2  A    between atoms: C7_18  and  O1_1 
REMARK    3  A    between atoms: C5_16  and  N1_8 
REMARK    4  A    between atoms: N1_8  and  N2_9 
REMARK    5  A    between atoms: C9_20  and  N3_10 
REMARK    6  A    between atoms: C14_25  and  N4_11 
REMARK    7  A    between atoms: C10_21  and  C7_18 
ROOT
HETATM    1  N2  UNK     1      18.301   2.744  31.989  1.00  0.00    -0.182 NA
HETATM    2  C10 UNK     1      18.635   2.981  30.756  1.00  0.00     0.052 C 
HETATM    3  C17 UNK     1      18.921   1.793  29.870  1.00  0.00     0.070 C 
ENDROOT
BRANCH   1   4
HETATM    4  N1  UNK     1      18.238   1.458  32.376  1.00  0.00    -0.276 N 
HETATM    5  H9  UNK     1      18.286   0.718  31.691  1.00  0.00     0.189 HD
BRANCH   4   6
HETATM    6  C5  UNK     1      18.191   1.124  33.739  1.00  0.00     0.083 A 
HETATM    7  C12 UNK     1      17.872   2.114  34.675  1.00  0.00     0.036 A 
HETATM    8  C15 UNK     1      17.819   1.809  36.034  1.00  0.00     0.038 A 
HETATM    9  C14 UNK     1      18.085   0.510  36.468  1.00  0.00     0.105 A 
HETATM   10  C13 UNK     1      18.404  -0.483  35.542  1.00  0.00     0.074 A 
HETATM   11  C9  UNK     1      18.457  -0.177  34.182  1.00  0.00     0.133 A 
BRANCH   9  12
HETATM   12  N4  UNK     1      18.030   0.199  37.853  1.00  0.00    -0.116 N 
HETATM   13  O6  UNK     1      17.901   1.133  38.680  1.00  0.00    -0.532 OA
HETATM   14  O7  UNK     1      18.113  -1.000  38.210  1.00  0.00    -0.532 OA
ENDBRANCH   9  12
BRANCH  11  15
HETATM   15  N3  UNK     1      18.784  -1.209  33.258  1.00  0.00    -0.113 N 
HETATM   16  O4  UNK     1      18.001  -1.440  32.308  1.00  0.00    -0.532 OA
HETATM   17  O5  UNK     1      19.846  -1.855  33.423  1.00  0.00    -0.532 OA
ENDBRANCH  11  15
ENDBRANCH   4   6
ENDBRANCH   1   4
BRANCH   2  18
HETATM   18  C7  UNK     1      18.745   4.351  30.117  1.00  0.00     0.231 C 
BRANCH  18  19
HETATM   19  O1  UNK     1      19.756   5.098  30.790  1.00  0.00    -0.345 OA
BRANCH  19  20
HETATM   20  C3  UNK     1      19.339   6.076  31.641  1.00  0.00     0.071 A 
HETATM   21  C4  UNK     1      18.109   6.698  31.439  1.00  0.00     0.075 A 
HETATM   22  C2  UNK     1      17.704   7.695  32.324  1.00  0.00     0.092 A 
HETATM   23  C1  UNK     1      18.494   8.083  33.403  1.00  0.00    -0.002 A 
HETATM   24  O2  UNK     1      16.455   8.306  32.093  1.00  0.00    -0.275 OA
HETATM   25  C6  UNK     1      19.726   7.454  33.598  1.00  0.00     0.017 A 
HETATM   26  C11 UNK     1      18.009   9.130  34.286  1.00  0.00     0.020 A 
HETATM   27  C8  UNK     1      20.146   6.452  32.718  1.00  0.00     0.038 A 
HETATM   28  C16 UNK     1      16.825   9.704  34.061  1.00  0.00     0.083 A 
HETATM   29  C18 UNK     1      15.970   9.310  32.925  1.00  0.00     0.288 A 
HETATM   30  O3  UNK     1      14.884   9.846  32.733  1.00  0.00    -0.260 OA
ENDBRANCH  19  20
ENDBRANCH  18  19
ENDBRANCH   2  18
TORSDOF 7
ENDMDL
MODEL 6
REMARK VINA RESULT:      -9.6      5.494      8.657
REMARK  7 active torsions:
REMARK  status: ('A' for Active; 'I' for Inactive)
REMARK    1  A    between atoms: C3_14  and  O1_1 
REMARK    2  A    between atoms: C7_18  and  O1_1 
REMARK    3  A    between atoms: C5_16  and  N1_8 
REMARK    4  A    between atoms: N1_8  and  N2_9 
REMARK    5  A    between atoms: C9_20  and  N3_10 
REMARK    6  A    between atoms: C14_25  and  N4_11 
REMARK    7  A    between atoms: C10_21  and  C7_18 
ROOT
HETATM    1  N2  UNK     1      18.639   1.626  31.037  1.00  0.00    -0.182 NA
HETATM    2  C10 UNK     1      18.463   2.325  29.957  1.00  0.00     0.052 C 
HETATM    3  C17 UNK     1      18.181   1.573  28.678  1.00  0.00     0.070 C 
ENDROOT
BRANCH   1   4
HETATM    4  N1  UNK     1      18.557   0.288  30.929  1.00  0.00    -0.276 N 
HETATM    5  H9  UNK     1      18.196  -0.133  30.086  1.00  0.00     0.189 HD
BRANCH   4   6
HETATM    6  C5  UNK     1      19.048  -0.542  31.950  1.00  0.00     0.083 A 
HETATM    7  C12 UNK     1      18.504  -0.441  33.235  1.00  0.00     0.036 A 
HETATM    8  C15 UNK     1      18.975  -1.254  34.266  1.00  0.00     0.038 A 
HETATM    9  C14 UNK     1      19.993  -2.174  34.018  1.00  0.00     0.105 A 
HETATM   10  C13 UNK     1      20.541  -2.281  32.739  1.00  0.00     0.074 A 
HETATM   11  C9  UNK     1      20.070  -1.468  31.709  1.00  0.00     0.133 A 
BRANCH   9  12
HETATM   12  N4  UNK     1      20.472  -3.002  35.068  1.00  0.00    -0.116 N 
HETATM   13  O6  UNK     1      21.222  -2.503  35.941  1.00  0.00    -0.532 OA
HETATM   14  O7  UNK     1      20.132  -4.209  35.093  1.00  0.00    -0.532 OA
ENDBRANCH   9  12
BRANCH  11  15
HETATM   15  N3  UNK     1      20.646  -1.598  30.414  1.00  0.00    -0.113 N 
HETATM   16  O4  UNK     1      20.797  -2.745  29.931  1.00  0.00    -0.532 OA
HETATM   17  O5  UNK     1      20.983  -0.562  29.795  1.00  0.00    -0.532 OA
ENDBRANCH  11  15
ENDBRANCH   4   6
ENDBRANCH   1   4
BRANCH   2  18
HETATM   18  C7  UNK     1      18.495   3.837  29.865  1.00  0.00     0.231 C 
BRANCH  18  19
HETATM   19  O1  UNK     1      19.512   4.334  30.733  1.00  0.00    -0.345 OA
BRANCH  19  20
HETATM   20  C3  UNK     1      19.148   5.295  31.626  1.00  0.00     0.071 A 
HETATM   21  C4  UNK     1      17.801   5.516  31.901  1.00  0.00     0.075 A 
HETATM   22  C2  UNK     1      17.453   6.506  32.819  1.00  0.00     0.092 A 
HETATM   23  C1  UNK     1      18.415   7.275  33.468  1.00  0.00    -0.002 A 
HETATM   24  O2  UNK     1      16.081   6.707  33.075  1.00  0.00    -0.275 OA
HETATM   25  C6  UNK     1      19.764   7.046  33.186  1.00  0.00     0.017 A 
HETATM   26  C11 UNK     1      17.981   8.289  34.413  1.00  0.00     0.020 A 
HETATM   27  C8  UNK     1      20.128   6.057  32.267  1.00  0.00     0.038 A 
HETATM   28  C16 UNK     1      16.681   8.474  34.651  1.00  0.00     0.083 A 
HETATM   29  C18 UNK     1      15.642   7.672  33.977  1.00  0.00     0.288 A 
HETATM   30  O3  UNK     1      14.451   7.852  34.207  1.00  0.00    -0.260 OA
ENDBRANCH  19  20
ENDBRANCH  18  19
ENDBRANCH   2  18
TORSDOF 7
ENDMDL
MODEL 7
REMARK VINA RESULT:      -9.5      8.385     13.955
REMARK  7 active torsions:
REMARK  status: ('A' for Active; 'I' for Inactive)
REMARK    1  A    between atoms: C3_14  and  O1_1 
REMARK    2  A    between atoms: C7_18  and  O1_1 
REMARK    3  A    between atoms: C5_16  and  N1_8 
REMARK    4  A    between atoms: N1_8  and  N2_9 
REMARK    5  A    between atoms: C9_20  and  N3_10 
REMARK    6  A    between atoms: C14_25  and  N4_11 
REMARK    7  A    between atoms: C10_21  and  C7_18 
ROOT
HETATM    1  N2  UNK     1      17.295   6.394  33.548  1.00  0.00    -0.182 NA
HETATM    2  C10 UNK     1      18.190   5.669  32.946  1.00  0.00     0.052 C 
HETATM    3  C17 UNK     1      19.340   6.388  32.286  1.00  0.00     0.070 C 
ENDROOT
BRANCH   1   4
HETATM    4  N1  UNK     1      17.467   7.727  33.533  1.00  0.00    -0.276 N 
HETATM    5  H9  UNK     1      18.375   8.121  33.331  1.00  0.00     0.189 HD
BRANCH   4   6
HETATM    6  C5  UNK     1      16.374   8.590  33.712  1.00  0.00     0.083 A 
HETATM    7  C12 UNK     1      16.272   9.327  34.897  1.00  0.00     0.036 A 
HETATM    8  C15 UNK     1      15.196  10.191  35.100  1.00  0.00     0.038 A 
HETATM    9  C14 UNK     1      14.214  10.323  34.118  1.00  0.00     0.105 A 
HETATM   10  C13 UNK     1      14.308   9.592  32.934  1.00  0.00     0.074 A 
HETATM   11  C9  UNK     1      15.384   8.728  32.732  1.00  0.00     0.133 A 
BRANCH   9  12
HETATM   12  N4  UNK     1      13.118  11.203  34.325  1.00  0.00    -0.116 N 
HETATM   13  O6  UNK     1      13.008  11.787  35.429  1.00  0.00    -0.532 OA
HETATM   14  O7  UNK     1      12.291  11.372  33.397  1.00  0.00    -0.532 OA
ENDBRANCH   9  12
BRANCH  11  15
HETATM   15  N3  UNK     1      15.456   7.994  31.515  1.00  0.00    -0.113 N 
HETATM   16  O4  UNK     1      14.596   7.112  31.287  1.00  0.00    -0.532 OA
HETATM   17  O5  UNK     1      16.379   8.254  30.706  1.00  0.00    -0.532 OA
ENDBRANCH  11  15
ENDBRANCH   4   6
ENDBRANCH   1   4
BRANCH   2  18
HETATM   18  C7  UNK     1      18.193   4.156  32.863  1.00  0.00     0.231 C 
BRANCH  18  19
HETATM   19  O1  UNK     1      17.619   3.757  31.620  1.00  0.00    -0.345 OA
BRANCH  19  20
HETATM   20  C3  UNK     1      18.195   2.701  30.983  1.00  0.00     0.071 A 
HETATM   21  C4  UNK     1      18.750   1.659  31.723  1.00  0.00     0.075 A 
HETATM   22  C2  UNK     1      19.334   0.588  31.048  1.00  0.00     0.092 A 
HETATM   23  C1  UNK     1      19.375   0.533  29.657  1.00  0.00    -0.002 A 
HETATM   24  O2  UNK     1      19.887  -0.451  31.824  1.00  0.00    -0.275 OA
HETATM   25  C6  UNK     1      18.817   1.583  28.923  1.00  0.00     0.017 A 
HETATM   26  C11 UNK     1      20.000  -0.613  29.020  1.00  0.00     0.020 A 
HETATM   27  C8  UNK     1      18.228   2.663  29.586  1.00  0.00     0.038 A 
HETATM   28  C16 UNK     1      20.521  -1.593  29.761  1.00  0.00     0.083 A 
HETATM   29  C18 UNK     1      20.489  -1.558  31.235  1.00  0.00     0.288 A 
HETATM   30  O3  UNK     1      20.971  -2.467  31.903  1.00  0.00    -0.260 OA
ENDBRANCH  19  20
ENDBRANCH  18  19
ENDBRANCH   2  18
TORSDOF 7
ENDMDL
MODEL 8
REMARK VINA RESULT:      -9.1     15.791     20.751
REMARK  7 active torsions:
REMARK  status: ('A' for Active; 'I' for Inactive)
REMARK    1  A    between atoms: C3_14  and  O1_1 
REMARK    2  A    between atoms: C7_18  and  O1_1 
REMARK    3  A    between atoms: C5_16  and  N1_8 
REMARK    4  A    between atoms: N1_8  and  N2_9 
REMARK    5  A    between atoms: C9_20  and  N3_10 
REMARK    6  A    between atoms: C14_25  and  N4_11 
REMARK    7  A    between atoms: C10_21  and  C7_18 
ROOT
HETATM    1  N2  UNK     1      19.270  -1.996  16.452  1.00  0.00    -0.182 NA
HETATM    2  C10 UNK     1      19.343  -2.561  15.285  1.00  0.00     0.052 C 
HETATM    3  C17 UNK     1      19.056  -1.703  14.077  1.00  0.00     0.070 C 
ENDROOT
BRANCH   1   4
HETATM    4  N1  UNK     1      18.945  -0.692  16.490  1.00  0.00    -0.276 N 
HETATM    5  H9  UNK     1      18.503  -0.255  15.694  1.00  0.00     0.189 HD
BRANCH   4   6
HETATM    6  C5  UNK     1      19.136   0.058  17.662  1.00  0.00     0.083 A 
HETATM    7  C12 UNK     1      19.147  -0.596  18.898  1.00  0.00     0.036 A 
HETATM    8  C15 UNK     1      19.336   0.125  20.076  1.00  0.00     0.038 A 
HETATM    9  C14 UNK     1      19.514   1.508  20.026  1.00  0.00     0.105 A 
HETATM   10  C13 UNK     1      19.505   2.168  18.797  1.00  0.00     0.074 A 
HETATM   11  C9  UNK     1      19.316   1.446  17.619  1.00  0.00     0.133 A 
BRANCH   9  12
HETATM   12  N4  UNK     1      19.706   2.243  21.226  1.00  0.00    -0.116 N 
HETATM   13  O6  UNK     1      18.704   2.705  21.822  1.00  0.00    -0.532 OA
HETATM   14  O7  UNK     1      20.873   2.410  21.656  1.00  0.00    -0.532 OA
ENDBRANCH   9  12
BRANCH  11  15
HETATM   15  N3  UNK     1      19.312   2.144  16.378  1.00  0.00    -0.113 N 
HETATM   16  O4  UNK     1      20.043   1.730  15.449  1.00  0.00    -0.532 OA
HETATM   17  O5  UNK     1      18.575   3.150  16.253  1.00  0.00    -0.532 OA
ENDBRANCH  11  15
ENDBRANCH   4   6
ENDBRANCH   1   4
BRANCH   2  18
HETATM   18  C7  UNK     1      19.710  -4.007  15.022  1.00  0.00     0.231 C 
BRANCH  18  19
HETATM   19  O1  UNK     1      19.053  -4.445  13.834  1.00  0.00    -0.345 OA
BRANCH  19  20
HETATM   20  C3  UNK     1      19.503  -5.599  13.268  1.00  0.00     0.071 A 
HETATM   21  C4  UNK     1      20.601  -6.260  13.813  1.00  0.00     0.075 A 
HETATM   22  C2  UNK     1      21.043  -7.440  13.216  1.00  0.00     0.092 A 
HETATM   23  C1  UNK     1      20.416  -7.973  12.093  1.00  0.00    -0.002 A 
HETATM   24  O2  UNK     1      22.156  -8.087  13.791  1.00  0.00    -0.275 OA
HETATM   25  C6  UNK     1      19.316  -7.302  11.553  1.00  0.00     0.017 A 
HETATM   26  C11 UNK     1      20.930  -9.206  11.522  1.00  0.00     0.020 A 
HETATM   27  C8  UNK     1      18.861  -6.118  12.141  1.00  0.00     0.038 A 
HETATM   28  C16 UNK     1      21.984  -9.813  12.072  1.00  0.00     0.083 A 
HETATM   29  C18 UNK     1      22.665  -9.269  13.262  1.00  0.00     0.288 A 
HETATM   30  O3  UNK     1      23.632  -9.838  13.756  1.00  0.00    -0.260 OA
ENDBRANCH  19  20
ENDBRANCH  18  19
ENDBRANCH   2  18
TORSDOF 7
ENDMDL
MODEL 9
REMARK VINA RESULT:      -9.1      8.050     13.448
REMARK  7 active torsions:
REMARK  status: ('A' for Active; 'I' for Inactive)
REMARK    1  A    between atoms: C3_14  and  O1_1 
REMARK    2  A    between atoms: C7_18  and  O1_1 
REMARK    3  A    between atoms: C5_16  and  N1_8 
REMARK    4  A    between atoms: N1_8  and  N2_9 
REMARK    5  A    between atoms: C9_20  and  N3_10 
REMARK    6  A    between atoms: C14_25  and  N4_11 
REMARK    7  A    between atoms: C10_21  and  C7_18 
ROOT
HETATM    1  N2  UNK     1      17.224   5.844  32.216  1.00  0.00    -0.182 NA
HETATM    2  C10 UNK     1      18.185   5.122  31.722  1.00  0.00     0.052 C 
HETATM    3  C17 UNK     1      19.308   5.844  31.018  1.00  0.00     0.070 C 
ENDROOT
BRANCH   1   4
HETATM    4  N1  UNK     1      17.307   7.176  32.058  1.00  0.00    -0.276 N 
HETATM    5  H9  UNK     1      17.877   7.567  31.322  1.00  0.00     0.189 HD
BRANCH   4   6
HETATM    6  C5  UNK     1      16.541   8.039  32.858  1.00  0.00     0.083 A 
HETATM    7  C12 UNK     1      15.145   7.987  32.777  1.00  0.00     0.036 A 
HETATM    8  C15 UNK     1      14.361   8.833  33.561  1.00  0.00     0.038 A 
HETATM    9  C14 UNK     1      14.968   9.737  34.432  1.00  0.00     0.105 A 
HETATM   10  C13 UNK     1      16.359   9.796  34.519  1.00  0.00     0.074 A 
HETATM   11  C9  UNK     1      17.143   8.950  33.735  1.00  0.00     0.133 A 
BRANCH   9  12
HETATM   12  N4  UNK     1      14.169  10.599  35.230  1.00  0.00    -0.116 N 
HETATM   13  O6  UNK     1      14.438  10.718  36.450  1.00  0.00    -0.532 OA
HETATM   14  O7  UNK     1      13.219  11.217  34.694  1.00  0.00    -0.532 OA
ENDBRANCH   9  12
BRANCH  11  15
HETATM   15  N3  UNK     1      18.560   9.029  33.844  1.00  0.00    -0.113 N 
HETATM   16  O4  UNK     1      19.220   7.967  33.932  1.00  0.00    -0.532 OA
HETATM   17  O5  UNK     1      19.104  10.158  33.847  1.00  0.00    -0.532 OA
ENDBRANCH  11  15
ENDBRANCH   4   6
ENDBRANCH   1   4
BRANCH   2  18
HETATM   18  C7  UNK     1      18.292   3.613  31.807  1.00  0.00     0.231 C 
BRANCH  18  19
HETATM   19  O1  UNK     1      18.223   3.067  30.490  1.00  0.00    -0.345 OA
BRANCH  19  20
HETATM   20  C3  UNK     1      18.767   1.833  30.303  1.00  0.00     0.071 A 
HETATM   21  C4  UNK     1      19.140   1.063  31.402  1.00  0.00     0.075 A 
HETATM   22  C2  UNK     1      19.694  -0.198  31.185  1.00  0.00     0.092 A 
HETATM   23  C1  UNK     1      19.882  -0.705  29.902  1.00  0.00    -0.002 A 
HETATM   24  O2  UNK     1      20.062  -0.954  32.316  1.00  0.00    -0.275 OA
HETATM   25  C6  UNK     1      19.505   0.075  28.806  1.00  0.00     0.017 A 
HETATM   26  C11 UNK     1      20.465  -2.027  29.749  1.00  0.00     0.020 A 
HETATM   27  C8  UNK     1      18.948   1.341  29.008  1.00  0.00     0.038 A 
HETATM   28  C16 UNK     1      20.810  -2.738  30.825  1.00  0.00     0.083 A 
HETATM   29  C18 UNK     1      20.622  -2.222  32.194  1.00  0.00     0.288 A 
HETATM   30  O3  UNK     1      20.943  -2.887  33.173  1.00  0.00    -0.260 OA
ENDBRANCH  19  20
ENDBRANCH  18  19
ENDBRANCH   2  18
TORSDOF 7
ENDMDL
MODEL 10
REMARK VINA RESULT:      -9.1      5.850      8.733
REMARK  7 active torsions:
REMARK  status: ('A' for Active; 'I' for Inactive)
REMARK    1  A    between atoms: C3_14  and  O1_1 
REMARK    2  A    between atoms: C7_18  and  O1_1 
REMARK    3  A    between atoms: C5_16  and  N1_8 
REMARK    4  A    between atoms: N1_8  and  N2_9 
REMARK    5  A    between atoms: C9_20  and  N3_10 
REMARK    6  A    between atoms: C14_25  and  N4_11 
REMARK    7  A    between atoms: C10_21  and  C7_18 
ROOT
HETATM    1  N2  UNK     1      18.707   1.608  31.753  1.00  0.00    -0.182 NA
HETATM    2  C10 UNK     1      18.633   2.273  30.639  1.00  0.00     0.052 C 
HETATM    3  C17 UNK     1      18.330   1.495  29.382  1.00  0.00     0.070 C 
ENDROOT
BRANCH   1   4
HETATM    4  N1  UNK     1      18.508   0.280  31.695  1.00  0.00    -0.276 N 
HETATM    5  H9  UNK     1      18.128  -0.141  30.860  1.00  0.00     0.189 HD
BRANCH   4   6
HETATM    6  C5  UNK     1      18.903  -0.548  32.758  1.00  0.00     0.083 A 
HETATM    7  C12 UNK     1      19.759  -1.625  32.504  1.00  0.00     0.036 A 
HETATM    8  C15 UNK     1      20.166  -2.462  33.543  1.00  0.00     0.038 A 
HETATM    9  C14 UNK     1      19.719  -2.228  34.843  1.00  0.00     0.105 A 
HETATM   10  C13 UNK     1      18.865  -1.156  35.105  1.00  0.00     0.074 A 
HETATM   11  C9  UNK     1      18.458  -0.320  34.066  1.00  0.00     0.133 A 
BRANCH   9  12
HETATM   12  N4  UNK     1      20.134  -3.080  35.901  1.00  0.00    -0.116 N 
HETATM   13  O6  UNK     1      20.508  -4.246  35.630  1.00  0.00    -0.532 OA
HETATM   14  O7  UNK     1      20.114  -2.643  37.077  1.00  0.00    -0.532 OA
ENDBRANCH   9  12
BRANCH  11  15
HETATM   15  N3  UNK     1      17.587   0.767  34.360  1.00  0.00    -0.113 N 
HETATM   16  O4  UNK     1      18.070   1.812  34.854  1.00  0.00    -0.532 OA
HETATM   17  O5  UNK     1      16.364   0.646  34.113  1.00  0.00    -0.532 OA
ENDBRANCH  11  15
ENDBRANCH   4   6
ENDBRANCH   1   4
BRANCH   2  18
HETATM   18  C7  UNK     1      18.805   3.771  30.489  1.00  0.00     0.231 C 
BRANCH  18  19
HETATM   19  O1  UNK     1      17.933   4.433  31.404  1.00  0.00    -0.345 OA
BRANCH  19  20
HETATM   20  C3  UNK     1      18.452   5.477  32.107  1.00  0.00     0.071 A 
HETATM   21  C4  UNK     1      17.745   6.673  32.202  1.00  0.00     0.075 A 
HETATM   22  C2  UNK     1      18.297   7.727  32.929  1.00  0.00     0.092 A 
HETATM   23  C1  UNK     1      19.532   7.614  33.561  1.00  0.00    -0.002 A 
HETATM   24  O2  UNK     1      17.559   8.926  33.006  1.00  0.00    -0.275 OA
HETATM   25  C6  UNK     1      20.234   6.410  33.460  1.00  0.00     0.017 A 
HETATM   26  C11 UNK     1      20.047   8.753  34.301  1.00  0.00     0.020 A 
HETATM   27  C8  UNK     1      19.693   5.345  32.735  1.00  0.00     0.038 A 
HETATM   28  C16 UNK     1      19.342   9.885  34.371  1.00  0.00     0.083 A 
HETATM   29  C18 UNK     1      18.032  10.029  33.709  1.00  0.00     0.288 A 
HETATM   30  O3  UNK     1      17.395  11.074  33.783  1.00  0.00    -0.260 OA
ENDBRANCH  19  20
ENDBRANCH  18  19
ENDBRANCH   2  18
TORSDOF 7
ENDMDL
