MODEL 1
REMARK VINA RESULT:      -9.0      0.000      0.000
REMARK  2 active torsions:
REMARK  status: ('A' for Active; 'I' for Inactive)
REMARK       I    between atoms: C10_16  and  N1_4 
REMARK    1  A    between atoms: C3_9  and  N1_4 
REMARK    2  A    between atoms: C10_16  and  C8_14 
ROOT
HETATM    1  O1  UNK     1      16.538   7.089  33.230  1.00  0.00    -0.275 OA
HETATM    2  O3  UNK     1      15.366   8.621  34.458  1.00  0.00    -0.260 OA
HETATM    3  C1  UNK     1      18.976   7.228  33.158  1.00  0.00     0.004 A 
HETATM    4  C2  UNK     1      17.783   6.608  32.781  1.00  0.00     0.092 A 
HETATM    5  C3  UNK     1      18.956   4.968  31.472  1.00  0.00     0.037 A 
HETATM    6  C4  UNK     1      18.909   8.402  34.040  1.00  0.00    -0.043 A 
HETATM    7  C5  UNK     1      17.757   5.489  31.947  1.00  0.00     0.067 A 
HETATM    8  C6  UNK     1      20.173   6.688  32.670  1.00  0.00     0.017 A 
HETATM    9  C7  UNK     1      20.161   5.566  31.832  1.00  0.00     0.030 A 
HETATM   10  C9  UNK     1      17.711   8.837  34.451  1.00  0.00     0.090 A 
HETATM   11  C11 UNK     1      20.173   9.091  34.464  1.00  0.00     0.049 C 
HETATM   12  C12 UNK     1      16.444   8.194  34.062  1.00  0.00     0.288 A 
ENDROOT
BRANCH   5  13
HETATM   13  N1  UNK     1      18.952   3.849  30.638  1.00  0.00    -0.322 N 
HETATM   14  C10 UNK     1      18.464   2.555  30.908  1.00  0.00     0.274 C 
HETATM   15  O2  UNK     1      17.949   2.226  31.975  1.00  0.00    -0.266 OA
HETATM   16  H4  UNK     1      19.375   4.003  29.726  1.00  0.00     0.169 HD
BRANCH  14  17
HETATM   17  C8  UNK     1      18.647   1.578  29.821  1.00  0.00     0.121 A 
HETATM   18  C13 UNK     1      18.013   1.551  28.635  1.00  0.00     0.058 A 
HETATM   19  C15 UNK     1      18.572   0.425  28.002  1.00  0.00     0.141 A 
HETATM   20  N3  UNK     1      19.485  -0.191  28.758  1.00  0.00    -0.185 NA
HETATM   21  N2  UNK     1      19.506   0.553  29.878  1.00  0.00    -0.269 N 
HETATM   22  C14 UNK     1      20.400   0.187  30.951  1.00  0.00     0.180 C 
ENDBRANCH  14  17
ENDBRANCH   5  13
TORSDOF 2
ENDMDL
MODEL 2
REMARK VINA RESULT:      -8.9      9.508     13.920
REMARK  2 active torsions:
REMARK  status: ('A' for Active; 'I' for Inactive)
REMARK       I    between atoms: C10_16  and  N1_4 
REMARK    1  A    between atoms: C3_9  and  N1_4 
REMARK    2  A    between atoms: C10_16  and  C8_14 
ROOT
HETATM    1  O1  UNK     1      21.354  -9.001  35.204  1.00  0.00    -0.275 OA
HETATM    2  O3  UNK     1      22.407 -10.977  34.741  1.00  0.00    -0.260 OA
HETATM    3  C1  UNK     1      19.822  -8.880  37.103  1.00  0.00     0.004 A 
HETATM    4  C2  UNK     1      20.462  -8.277  36.019  1.00  0.00     0.092 A 
HETATM    5  C3  UNK     1      19.386  -6.171  36.453  1.00  0.00     0.037 A 
HETATM    6  C4  UNK     1      20.098 -10.296  37.383  1.00  0.00    -0.043 A 
HETATM    7  C5  UNK     1      20.257  -6.937  35.684  1.00  0.00     0.067 A 
HETATM    8  C6  UNK     1      18.950  -8.092  37.865  1.00  0.00     0.017 A 
HETATM    9  C7  UNK     1      18.735  -6.747  37.541  1.00  0.00     0.030 A 
HETATM   10  C9  UNK     1      20.951 -10.960  36.591  1.00  0.00     0.090 A 
HETATM   11  C11 UNK     1      19.427 -10.974  38.541  1.00  0.00     0.049 C 
HETATM   12  C12 UNK     1      21.633 -10.338  35.444  1.00  0.00     0.288 A 
ENDROOT
BRANCH   5  13
HETATM   13  N1  UNK     1      19.168  -4.830  36.136  1.00  0.00    -0.322 N 
HETATM   14  C10 UNK     1      20.018  -3.727  36.355  1.00  0.00     0.274 C 
HETATM   15  O2  UNK     1      21.124  -3.809  36.884  1.00  0.00    -0.266 OA
HETATM   16  H4  UNK     1      18.267  -4.641  35.705  1.00  0.00     0.169 HD
BRANCH  14  17
HETATM   17  C8  UNK     1      19.471  -2.424  35.938  1.00  0.00     0.121 A 
HETATM   18  C13 UNK     1      18.736  -1.575  36.678  1.00  0.00     0.058 A 
HETATM   19  C15 UNK     1      18.497  -0.508  35.791  1.00  0.00     0.141 A 
HETATM   20  N3  UNK     1      19.052  -0.699  34.592  1.00  0.00    -0.185 NA
HETATM   21  N2  UNK     1      19.649  -1.897  34.720  1.00  0.00    -0.269 N 
HETATM   22  C14 UNK     1      20.374  -2.447  33.599  1.00  0.00     0.180 C 
ENDBRANCH  14  17
ENDBRANCH   5  13
TORSDOF 2
ENDMDL
MODEL 3
REMARK VINA RESULT:      -8.7      8.233     12.416
REMARK  2 active torsions:
REMARK  status: ('A' for Active; 'I' for Inactive)
REMARK       I    between atoms: C10_16  and  N1_4 
REMARK    1  A    between atoms: C3_9  and  N1_4 
REMARK    2  A    between atoms: C10_16  and  C8_14 
ROOT
HETATM    1  O1  UNK     1      20.724  -7.716  35.128  1.00  0.00    -0.275 OA
HETATM    2  O3  UNK     1      21.473  -9.826  34.663  1.00  0.00    -0.260 OA
HETATM    3  C1  UNK     1      21.327  -6.675  37.253  1.00  0.00     0.004 A 
HETATM    4  C2  UNK     1      20.673  -6.628  36.021  1.00  0.00     0.092 A 
HETATM    5  C3  UNK     1      19.854  -4.409  36.448  1.00  0.00     0.037 A 
HETATM    6  C4  UNK     1      22.076  -7.889  37.606  1.00  0.00    -0.043 A 
HETATM    7  C5  UNK     1      19.940  -5.514  35.608  1.00  0.00     0.067 A 
HETATM    8  C6  UNK     1      21.228  -5.552  38.085  1.00  0.00     0.017 A 
HETATM    9  C7  UNK     1      20.497  -4.428  37.684  1.00  0.00     0.030 A 
HETATM   10  C9  UNK     1      22.107  -8.908  36.737  1.00  0.00     0.090 A 
HETATM   11  C11 UNK     1      22.790  -7.971  38.924  1.00  0.00     0.049 C 
HETATM   12  C12 UNK     1      21.423  -8.874  35.433  1.00  0.00     0.288 A 
ENDROOT
BRANCH   5  13
HETATM   13  N1  UNK     1      19.128  -3.285  36.054  1.00  0.00    -0.322 N 
HETATM   14  C10 UNK     1      19.612  -2.021  35.661  1.00  0.00     0.274 C 
HETATM   15  O2  UNK     1      20.804  -1.729  35.611  1.00  0.00    -0.266 OA
HETATM   16  H4  UNK     1      18.118  -3.407  36.075  1.00  0.00     0.169 HD
BRANCH  14  17
HETATM   17  C8  UNK     1      18.574  -1.026  35.341  1.00  0.00     0.121 A 
HETATM   18  C13 UNK     1      17.825  -0.321  36.210  1.00  0.00     0.058 A 
HETATM   19  C15 UNK     1      17.018   0.465  35.366  1.00  0.00     0.141 A 
HETATM   20  N3  UNK     1      17.262   0.250  34.071  1.00  0.00    -0.185 NA
HETATM   21  N2  UNK     1      18.233  -0.679  34.093  1.00  0.00    -0.269 N 
HETATM   22  C14 UNK     1      18.770  -1.168  32.846  1.00  0.00     0.180 C 
ENDBRANCH  14  17
ENDBRANCH   5  13
TORSDOF 2
ENDMDL
MODEL 4
REMARK VINA RESULT:      -8.6      9.583     13.834
REMARK  2 active torsions:
REMARK  status: ('A' for Active; 'I' for Inactive)
REMARK       I    between atoms: C10_16  and  N1_4 
REMARK    1  A    between atoms: C3_9  and  N1_4 
REMARK    2  A    between atoms: C10_16  and  C8_14 
ROOT
HETATM    1  O1  UNK     1      19.044  -9.111  38.210  1.00  0.00    -0.275 OA
HETATM    2  O3  UNK     1      19.104 -11.239  39.044  1.00  0.00    -0.260 OA
HETATM    3  C1  UNK     1      20.302  -8.586  36.183  1.00  0.00     0.004 A 
HETATM    4  C2  UNK     1      19.457  -8.194  37.223  1.00  0.00     0.092 A 
HETATM    5  C3  UNK     1      19.353  -5.939  36.398  1.00  0.00     0.037 A 
HETATM    6  C4  UNK     1      20.756  -9.983  36.134  1.00  0.00    -0.043 A 
HETATM    7  C5  UNK     1      18.980  -6.888  37.344  1.00  0.00     0.067 A 
HETATM    8  C6  UNK     1      20.667  -7.615  35.241  1.00  0.00     0.017 A 
HETATM    9  C7  UNK     1      20.195  -6.302  35.349  1.00  0.00     0.030 A 
HETATM   10  C9  UNK     1      20.348 -10.832  37.087  1.00  0.00     0.090 A 
HETATM   11  C11 UNK     1      21.665 -10.435  35.028  1.00  0.00     0.049 C 
HETATM   12  C12 UNK     1      19.457 -10.434  38.190  1.00  0.00     0.288 A 
ENDROOT
BRANCH   5  13
HETATM   13  N1  UNK     1      18.886  -4.628  36.499  1.00  0.00    -0.322 N 
HETATM   14  C10 UNK     1      19.632  -3.437  36.611  1.00  0.00     0.274 C 
HETATM   15  O2  UNK     1      20.860  -3.397  36.635  1.00  0.00    -0.266 OA
HETATM   16  H4  UNK     1      17.873  -4.542  36.508  1.00  0.00     0.169 HD
BRANCH  14  17
HETATM   17  C8  UNK     1      18.830  -2.208  36.742  1.00  0.00     0.121 A 
HETATM   18  C13 UNK     1      18.230  -1.741  37.853  1.00  0.00     0.058 A 
HETATM   19  C15 UNK     1      17.620  -0.554  37.407  1.00  0.00     0.141 A 
HETATM   20  N3  UNK     1      17.837  -0.317  36.111  1.00  0.00    -0.185 NA
HETATM   21  N2  UNK     1      18.591  -1.363  35.732  1.00  0.00    -0.269 N 
HETATM   22  C14 UNK     1      19.037  -1.451  34.361  1.00  0.00     0.180 C 
ENDBRANCH  14  17
ENDBRANCH   5  13
TORSDOF 2
ENDMDL
MODEL 5
REMARK VINA RESULT:      -8.6      1.610      2.595
REMARK  2 active torsions:
REMARK  status: ('A' for Active; 'I' for Inactive)
REMARK       I    between atoms: C10_16  and  N1_4 
REMARK    1  A    between atoms: C3_9  and  N1_4 
REMARK    2  A    between atoms: C10_16  and  C8_14 
ROOT
HETATM    1  O1  UNK     1      20.292   7.750  33.513  1.00  0.00    -0.275 OA
HETATM    2  O3  UNK     1      20.969   9.595  34.680  1.00  0.00    -0.260 OA
HETATM    3  C1  UNK     1      17.930   7.495  32.945  1.00  0.00     0.004 A 
HETATM    4  C2  UNK     1      19.244   7.024  32.914  1.00  0.00     0.092 A 
HETATM    5  C3  UNK     1      18.596   5.062  31.685  1.00  0.00     0.037 A 
HETATM    6  C4  UNK     1      17.656   8.772  33.620  1.00  0.00    -0.043 A 
HETATM    7  C5  UNK     1      19.589   5.822  32.294  1.00  0.00     0.067 A 
HETATM    8  C6  UNK     1      16.944   6.715  32.327  1.00  0.00     0.017 A 
HETATM    9  C7  UNK     1      17.276   5.507  31.701  1.00  0.00     0.030 A 
HETATM   10  C9  UNK     1      18.673   9.440  34.181  1.00  0.00     0.090 A 
HETATM   11  C11 UNK     1      16.255   9.305  33.671  1.00  0.00     0.049 C 
HETATM   12  C12 UNK     1      20.064   8.957  34.156  1.00  0.00     0.288 A 
ENDROOT
BRANCH   5  13
HETATM   13  N1  UNK     1      18.921   3.858  31.059  1.00  0.00    -0.322 N 
HETATM   14  C10 UNK     1      18.504   2.554  31.395  1.00  0.00     0.274 C 
HETATM   15  O2  UNK     1      17.758   2.294  32.337  1.00  0.00    -0.266 OA
HETATM   16  H4  UNK     1      19.554   3.952  30.269  1.00  0.00     0.169 HD
BRANCH  14  17
HETATM   17  C8  UNK     1      19.063   1.483  30.553  1.00  0.00     0.121 A 
HETATM   18  C13 UNK     1      19.958   0.546  30.914  1.00  0.00     0.058 A 
HETATM   19  C15 UNK     1      20.125  -0.204  29.734  1.00  0.00     0.141 A 
HETATM   20  N3  UNK     1      19.378   0.250  28.725  1.00  0.00    -0.185 NA
HETATM   21  N2  UNK     1      18.732   1.296  29.269  1.00  0.00    -0.269 N 
HETATM   22  C14 UNK     1      17.807   2.053  28.459  1.00  0.00     0.180 C 
ENDBRANCH  14  17
ENDBRANCH   5  13
TORSDOF 2
ENDMDL
MODEL 6
REMARK VINA RESULT:      -8.5      2.658      7.624
REMARK  2 active torsions:
REMARK  status: ('A' for Active; 'I' for Inactive)
REMARK       I    between atoms: C10_16  and  N1_4 
REMARK    1  A    between atoms: C3_9  and  N1_4 
REMARK    2  A    between atoms: C10_16  and  C8_14 
ROOT
HETATM    1  O1  UNK     1      19.183   0.081  32.805  1.00  0.00    -0.275 OA
HETATM    2  O3  UNK     1      19.882  -2.025  33.356  1.00  0.00    -0.260 OA
HETATM    3  C1  UNK     1      19.275   0.799  30.472  1.00  0.00     0.004 A 
HETATM    4  C2  UNK     1      18.974   1.056  31.810  1.00  0.00     0.092 A 
HETATM    5  C3  UNK     1      18.224   3.282  31.296  1.00  0.00     0.037 A 
HETATM    6  C4  UNK     1      19.820  -0.519  30.115  1.00  0.00    -0.043 A 
HETATM    7  C5  UNK     1      18.454   2.280  32.234  1.00  0.00     0.067 A 
HETATM    8  C6  UNK     1      19.037   1.820  29.543  1.00  0.00     0.017 A 
HETATM    9  C7  UNK     1      18.516   3.052  29.954  1.00  0.00     0.030 A 
HETATM   10  C9  UNK     1      20.009  -1.427  31.082  1.00  0.00     0.090 A 
HETATM   11  C11 UNK     1      20.154  -0.828  28.684  1.00  0.00     0.049 C 
HETATM   12  C12 UNK     1      19.696  -1.170  32.498  1.00  0.00     0.288 A 
ENDROOT
BRANCH   5  13
HETATM   13  N1  UNK     1      17.704   4.512  31.699  1.00  0.00    -0.322 N 
HETATM   14  C10 UNK     1      18.318   5.780  31.661  1.00  0.00     0.274 C 
HETATM   15  O2  UNK     1      19.458   5.977  31.244  1.00  0.00    -0.266 OA
HETATM   16  H4  UNK     1      16.763   4.466  32.082  1.00  0.00     0.169 HD
BRANCH  14  17
HETATM   17  C8  UNK     1      17.508   6.884  32.203  1.00  0.00     0.121 A 
HETATM   18  C13 UNK     1      16.435   7.463  31.634  1.00  0.00     0.058 A 
HETATM   19  C15 UNK     1      16.064   8.440  32.578  1.00  0.00     0.141 A 
HETATM   20  N3  UNK     1      16.862   8.451  33.648  1.00  0.00    -0.185 NA
HETATM   21  N2  UNK     1      17.745   7.473  33.382  1.00  0.00    -0.269 N 
HETATM   22  C14 UNK     1      18.785   7.182  34.340  1.00  0.00     0.180 C 
ENDBRANCH  14  17
ENDBRANCH   5  13
TORSDOF 2
ENDMDL
MODEL 7
REMARK VINA RESULT:      -8.3      2.735      7.684
REMARK  2 active torsions:
REMARK  status: ('A' for Active; 'I' for Inactive)
REMARK       I    between atoms: C10_16  and  N1_4 
REMARK    1  A    between atoms: C3_9  and  N1_4 
REMARK    2  A    between atoms: C10_16  and  C8_14 
ROOT
HETATM    1  O1  UNK     1      19.529   1.041  29.435  1.00  0.00    -0.275 OA
HETATM    2  O3  UNK     1      20.427  -0.623  28.150  1.00  0.00    -0.260 OA
HETATM    3  C1  UNK     1      19.053   0.607  31.791  1.00  0.00     0.004 A 
HETATM    4  C2  UNK     1      19.054   1.466  30.691  1.00  0.00     0.092 A 
HETATM    5  C3  UNK     1      18.110   3.257  31.988  1.00  0.00     0.037 A 
HETATM    6  C4  UNK     1      19.561  -0.762  31.615  1.00  0.00    -0.043 A 
HETATM    7  C5  UNK     1      18.590   2.780  30.773  1.00  0.00     0.067 A 
HETATM    8  C6  UNK     1      18.566   1.105  33.006  1.00  0.00     0.017 A 
HETATM    9  C7  UNK     1      18.098   2.421  33.103  1.00  0.00     0.030 A 
HETATM   10  C9  UNK     1      20.005  -1.138  30.408  1.00  0.00     0.090 A 
HETATM   11  C11 UNK     1      19.574  -1.710  32.778  1.00  0.00     0.049 C 
HETATM   12  C12 UNK     1      20.013  -0.244  29.239  1.00  0.00     0.288 A 
ENDROOT
BRANCH   5  13
HETATM   13  N1  UNK     1      17.643   4.567  32.091  1.00  0.00    -0.322 N 
HETATM   14  C10 UNK     1      18.367   5.769  31.959  1.00  0.00     0.274 C 
HETATM   15  O2  UNK     1      19.572   5.822  31.723  1.00  0.00    -0.266 OA
HETATM   16  H4  UNK     1      16.652   4.645  32.305  1.00  0.00     0.169 HD
BRANCH  14  17
HETATM   17  C8  UNK     1      17.581   6.998  32.166  1.00  0.00     0.121 A 
HETATM   18  C13 UNK     1      16.418   7.330  31.577  1.00  0.00     0.058 A 
HETATM   19  C15 UNK     1      16.125   8.587  32.141  1.00  0.00     0.141 A 
HETATM   20  N3  UNK     1      17.051   8.989  33.014  1.00  0.00    -0.185 NA
HETATM   21  N2  UNK     1      17.939   7.978  33.005  1.00  0.00    -0.269 N 
HETATM   22  C14 UNK     1      19.105   8.057  33.852  1.00  0.00     0.180 C 
ENDBRANCH  14  17
ENDBRANCH   5  13
TORSDOF 2
ENDMDL
MODEL 8
REMARK VINA RESULT:      -8.2      8.878     13.085
REMARK  2 active torsions:
REMARK  status: ('A' for Active; 'I' for Inactive)
REMARK       I    between atoms: C10_16  and  N1_4 
REMARK    1  A    between atoms: C3_9  and  N1_4 
REMARK    2  A    between atoms: C10_16  and  C8_14 
ROOT
HETATM    1  O1  UNK     1      22.485  -6.795  38.260  1.00  0.00    -0.275 OA
HETATM    2  O3  UNK     1      24.126  -8.162  39.075  1.00  0.00    -0.260 OA
HETATM    3  C1  UNK     1      21.179  -7.516  36.326  1.00  0.00     0.004 A 
HETATM    4  C2  UNK     1      21.468  -6.571  37.311  1.00  0.00     0.092 A 
HETATM    5  C3  UNK     1      19.758  -5.087  36.502  1.00  0.00     0.037 A 
HETATM    6  C4  UNK     1      21.961  -8.761  36.294  1.00  0.00    -0.043 A 
HETATM    7  C5  UNK     1      20.774  -5.364  37.411  1.00  0.00     0.067 A 
HETATM    8  C6  UNK     1      20.153  -7.220  35.420  1.00  0.00     0.017 A 
HETATM    9  C7  UNK     1      19.448  -6.013  35.509  1.00  0.00     0.030 A 
HETATM   10  C9  UNK     1      22.923  -8.946  37.209  1.00  0.00     0.090 A 
HETATM   11  C11 UNK     1      21.675  -9.797  35.248  1.00  0.00     0.049 C 
HETATM   12  C12 UNK     1      23.239  -7.958  38.255  1.00  0.00     0.288 A 
ENDROOT
BRANCH   5  13
HETATM   13  N1  UNK     1      19.051  -3.887  36.586  1.00  0.00    -0.322 N 
HETATM   14  C10 UNK     1      19.524  -2.575  36.385  1.00  0.00     0.274 C 
HETATM   15  O2  UNK     1      20.686  -2.302  36.093  1.00  0.00    -0.266 OA
HETATM   16  H4  UNK     1      18.073  -3.992  36.842  1.00  0.00     0.169 HD
BRANCH  14  17
HETATM   17  C8  UNK     1      18.524  -1.512  36.590  1.00  0.00     0.121 A 
HETATM   18  C13 UNK     1      17.992  -1.109  37.758  1.00  0.00     0.058 A 
HETATM   19  C15 UNK     1      17.113  -0.081  37.368  1.00  0.00     0.141 A 
HETATM   20  N3  UNK     1      17.114   0.124  36.048  1.00  0.00    -0.185 NA
HETATM   21  N2  UNK     1      18.001  -0.780  35.599  1.00  0.00    -0.269 N 
HETATM   22  C14 UNK     1      18.277  -0.855  34.183  1.00  0.00     0.180 C 
ENDBRANCH  14  17
ENDBRANCH   5  13
TORSDOF 2
ENDMDL
MODEL 9
REMARK VINA RESULT:      -8.2     13.192     18.408
REMARK  2 active torsions:
REMARK  status: ('A' for Active; 'I' for Inactive)
REMARK       I    between atoms: C10_16  and  N1_4 
REMARK    1  A    between atoms: C3_9  and  N1_4 
REMARK    2  A    between atoms: C10_16  and  C8_14 
ROOT
HETATM    1  O1  UNK     1      20.787  -4.745  14.997  1.00  0.00    -0.275 OA
HETATM    2  O3  UNK     1      21.631  -6.710  14.189  1.00  0.00    -0.260 OA
HETATM    3  C1  UNK     1      18.373  -4.513  15.292  1.00  0.00     0.004 A 
HETATM    4  C2  UNK     1      19.663  -3.986  15.378  1.00  0.00     0.092 A 
HETATM    5  C3  UNK     1      18.839  -1.895  16.232  1.00  0.00     0.037 A 
HETATM    6  C4  UNK     1      18.206  -5.886  14.793  1.00  0.00    -0.043 A 
HETATM    7  C5  UNK     1      19.910  -2.692  15.840  1.00  0.00     0.067 A 
HETATM    8  C6  UNK     1      17.308  -3.695  15.691  1.00  0.00     0.017 A 
HETATM    9  C7  UNK     1      17.541  -2.396  16.157  1.00  0.00     0.030 A 
HETATM   10  C9  UNK     1      19.293  -6.583  14.438  1.00  0.00     0.090 A 
HETATM   11  C11 UNK     1      16.833  -6.482  14.690  1.00  0.00     0.049 C 
HETATM   12  C12 UNK     1      20.660  -6.042  14.523  1.00  0.00     0.288 A 
ENDROOT
BRANCH   5  13
HETATM   13  N1  UNK     1      19.064  -0.600  16.698  1.00  0.00    -0.322 N 
HETATM   14  C10 UNK     1      18.955  -0.110  18.015  1.00  0.00     0.274 C 
HETATM   15  O2  UNK     1      18.629  -0.801  18.978  1.00  0.00    -0.266 OA
HETATM   16  H4  UNK     1      19.325   0.068  15.977  1.00  0.00     0.169 HD
BRANCH  14  17
HETATM   17  C8  UNK     1      19.223   1.330  18.171  1.00  0.00     0.121 A 
HETATM   18  C13 UNK     1      19.159   2.278  17.218  1.00  0.00     0.058 A 
HETATM   19  C15 UNK     1      19.504   3.451  17.916  1.00  0.00     0.141 A 
HETATM   20  N3  UNK     1      19.760   3.227  19.207  1.00  0.00    -0.185 NA
HETATM   21  N2  UNK     1      19.575   1.901  19.329  1.00  0.00    -0.269 N 
HETATM   22  C14 UNK     1      19.762   1.279  20.619  1.00  0.00     0.180 C 
ENDBRANCH  14  17
ENDBRANCH   5  13
TORSDOF 2
ENDMDL
MODEL 10
REMARK VINA RESULT:      -8.1      7.529      9.674
REMARK  2 active torsions:
REMARK  status: ('A' for Active; 'I' for Inactive)
REMARK       I    between atoms: C10_16  and  N1_4 
REMARK    1  A    between atoms: C3_9  and  N1_4 
REMARK    2  A    between atoms: C10_16  and  C8_14 
ROOT
HETATM    1  O1  UNK     1      19.008  -0.454  34.054  1.00  0.00    -0.275 OA
HETATM    2  O3  UNK     1      18.372   1.266  32.687  1.00  0.00    -0.260 OA
HETATM    3  C1  UNK     1      18.238  -0.485  36.372  1.00  0.00     0.004 A 
HETATM    4  C2  UNK     1      18.963  -1.058  35.325  1.00  0.00     0.092 A 
HETATM    5  C3  UNK     1      19.667  -2.893  36.710  1.00  0.00     0.037 A 
HETATM    6  C4  UNK     1      17.517   0.771  36.122  1.00  0.00    -0.043 A 
HETATM    7  C5  UNK     1      19.675  -2.249  35.477  1.00  0.00     0.067 A 
HETATM    8  C6  UNK     1      18.242  -1.148  37.605  1.00  0.00     0.017 A 
HETATM    9  C7  UNK     1      18.952  -2.344  37.772  1.00  0.00     0.030 A 
HETATM   10  C9  UNK     1      17.579   1.323  34.903  1.00  0.00     0.090 A 
HETATM   11  C11 UNK     1      16.728   1.412  37.226  1.00  0.00     0.049 C 
HETATM   12  C12 UNK     1      18.338   0.731  33.789  1.00  0.00     0.288 A 
ENDROOT
BRANCH   5  13
HETATM   13  N1  UNK     1      20.371  -4.085  36.883  1.00  0.00    -0.322 N 
HETATM   14  C10 UNK     1      19.877  -5.405  36.878  1.00  0.00     0.274 C 
HETATM   15  O2  UNK     1      18.694  -5.693  36.712  1.00  0.00    -0.266 OA
HETATM   16  H4  UNK     1      21.368  -3.965  37.047  1.00  0.00     0.169 HD
BRANCH  14  17
HETATM   17  C8  UNK     1      20.883  -6.450  37.131  1.00  0.00     0.121 A 
HETATM   18  C13 UNK     1      21.614  -6.624  38.248  1.00  0.00     0.058 A 
HETATM   19  C15 UNK     1      22.394  -7.755  37.942  1.00  0.00     0.141 A 
HETATM   20  N3  UNK     1      22.151  -8.235  36.720  1.00  0.00    -0.185 NA
HETATM   21  N2  UNK     1      21.208  -7.402  36.247  1.00  0.00    -0.269 N 
HETATM   22  C14 UNK     1      20.680  -7.614  34.920  1.00  0.00     0.180 C 
ENDBRANCH  14  17
ENDBRANCH   5  13
TORSDOF 2
ENDMDL
