MODEL 1
REMARK VINA RESULT:      -8.2      0.000      0.000
REMARK  2 active torsions:
REMARK  status: ('A' for Active; 'I' for Inactive)
REMARK    1  A    between atoms: C14_19  and  O4_4 
REMARK       I    between atoms: C7_12  and  N1_5 
REMARK    2  A    between atoms: C7_12  and  C8_13 
ROOT
HETATM    1  O2  UNK     1      10.768   5.435   9.305  1.00  0.00    -0.271 OA
HETATM    2  O3  UNK     1      12.340   5.041  10.916  1.00  0.00    -0.259 OA
HETATM    3  C8  UNK     1      13.125   5.894   8.850  1.00  0.00     0.108 A 
HETATM    4  C9  UNK     1      12.833   6.311   7.612  1.00  0.00     0.037 A 
HETATM    5  C10 UNK     1      12.077   5.423   9.781  1.00  0.00     0.304 A 
HETATM    6  C11 UNK     1      11.456   6.310   7.144  1.00  0.00     0.002 A 
HETATM    7  C12 UNK     1      10.453   5.872   8.004  1.00  0.00     0.123 A 
HETATM    8  C13 UNK     1      11.104   6.737   5.862  1.00  0.00     0.014 A 
HETATM    9  C14 UNK     1       9.114   5.847   7.618  1.00  0.00     0.102 A 
HETATM   10  C15 UNK     1       9.765   6.718   5.460  1.00  0.00     0.004 A 
HETATM   11  C16 UNK     1       8.773   6.274   6.337  1.00  0.00     0.040 A 
ENDROOT
BRANCH   3  12
HETATM   12  C7  UNK     1      14.552   5.931   9.231  1.00  0.00     0.259 C 
HETATM   13  O1  UNK     1      15.258   4.982   8.885  1.00  0.00    -0.267 OA
HETATM   14  N1  UNK     1      15.001   7.031   9.958  1.00  0.00    -0.348 N 
HETATM   15  C4  UNK     1      16.410   7.095  10.355  1.00  0.00     0.126 C 
HETATM   16  C5  UNK     1      14.182   8.162  10.421  1.00  0.00     0.126 C 
HETATM   17  C2  UNK     1      17.056   8.404   9.912  1.00  0.00     0.024 C 
HETATM   18  C1  UNK     1      16.262   9.611  10.431  1.00  0.00    -0.015 C 
HETATM   19  C3  UNK     1      14.795   9.497   9.996  1.00  0.00     0.024 C 
HETATM   20  C6  UNK     1      16.876  10.918   9.936  1.00  0.00     0.010 C 
ENDBRANCH   3  12
BRANCH   9  21
HETATM   21  O4  UNK     1       8.145   5.416   8.469  1.00  0.00    -0.353 OA
HETATM   22  C17 UNK     1       7.509   6.401   9.284  1.00  0.00     0.210 C 
ENDBRANCH   9  21
TORSDOF 2
ENDMDL
MODEL 2
REMARK VINA RESULT:      -8.1      1.697      2.006
REMARK  2 active torsions:
REMARK  status: ('A' for Active; 'I' for Inactive)
REMARK    1  A    between atoms: C14_19  and  O4_4 
REMARK       I    between atoms: C7_12  and  N1_5 
REMARK    2  A    between atoms: C7_12  and  C8_13 
ROOT
HETATM    1  O2  UNK     1      11.285   7.442   9.650  1.00  0.00    -0.271 OA
HETATM    2  O3  UNK     1      12.767   8.119  11.252  1.00  0.00    -0.259 OA
HETATM    3  C8  UNK     1      13.674   7.542   9.141  1.00  0.00     0.108 A 
HETATM    4  C9  UNK     1      13.453   7.116   7.891  1.00  0.00     0.037 A 
HETATM    5  C10 UNK     1      12.569   7.729  10.107  1.00  0.00     0.304 A 
HETATM    6  C11 UNK     1      12.100   6.824   7.445  1.00  0.00     0.002 A 
HETATM    7  C12 UNK     1      11.045   6.995   8.337  1.00  0.00     0.123 A 
HETATM    8  C13 UNK     1      11.822   6.379   6.150  1.00  0.00     0.014 A 
HETATM    9  C14 UNK     1       9.726   6.733   7.971  1.00  0.00     0.102 A 
HETATM   10  C15 UNK     1      10.504   6.113   5.769  1.00  0.00     0.004 A 
HETATM   11  C16 UNK     1       9.459   6.289   6.678  1.00  0.00     0.040 A 
ENDROOT
BRANCH   3  12
HETATM   12  C7  UNK     1      15.082   7.811   9.499  1.00  0.00     0.259 C 
HETATM   13  O1  UNK     1      15.785   6.847   9.806  1.00  0.00    -0.267 OA
HETATM   14  N1  UNK     1      15.516   9.134   9.472  1.00  0.00    -0.348 N 
HETATM   15  C4  UNK     1      16.906   9.433   9.827  1.00  0.00     0.126 C 
HETATM   16  C5  UNK     1      14.698  10.313   9.149  1.00  0.00     0.126 C 
HETATM   17  C2  UNK     1      17.597  10.248   8.737  1.00  0.00     0.024 C 
HETATM   18  C1  UNK     1      16.803  11.522   8.417  1.00  0.00    -0.015 C 
HETATM   19  C3  UNK     1      15.356  11.158   8.058  1.00  0.00     0.024 C 
HETATM   20  C6  UNK     1      17.464  12.304   7.286  1.00  0.00     0.010 C 
ENDBRANCH   3  12
BRANCH   9  21
HETATM   21  O4  UNK     1       8.705   6.904   8.853  1.00  0.00    -0.353 OA
HETATM   22  C17 UNK     1       7.902   5.762   9.148  1.00  0.00     0.210 C 
ENDBRANCH   9  21
TORSDOF 2
ENDMDL
MODEL 3
REMARK VINA RESULT:      -8.0     24.713     26.967
REMARK  2 active torsions:
REMARK  status: ('A' for Active; 'I' for Inactive)
REMARK    1  A    between atoms: C14_19  and  O4_4 
REMARK       I    between atoms: C7_12  and  N1_5 
REMARK    2  A    between atoms: C7_12  and  C8_13 
ROOT
HETATM    1  O2  UNK     1      18.531   1.150  31.884  1.00  0.00    -0.271 OA
HETATM    2  O3  UNK     1      17.503   1.737  33.838  1.00  0.00    -0.259 OA
HETATM    3  C8  UNK     1      18.342  -0.474  33.701  1.00  0.00     0.108 A 
HETATM    4  C9  UNK     1      18.976  -1.403  32.974  1.00  0.00     0.037 A 
HETATM    5  C10 UNK     1      18.082   0.884  33.175  1.00  0.00     0.304 A 
HETATM    6  C11 UNK     1      19.432  -1.094  31.628  1.00  0.00     0.002 A 
HETATM    7  C12 UNK     1      19.199   0.178  31.114  1.00  0.00     0.123 A 
HETATM    8  C13 UNK     1      20.097  -2.030  30.834  1.00  0.00     0.014 A 
HETATM    9  C14 UNK     1      19.611   0.538  29.832  1.00  0.00     0.102 A 
HETATM   10  C15 UNK     1      20.517  -1.684  29.546  1.00  0.00     0.004 A 
HETATM   11  C16 UNK     1      20.274  -0.403  29.046  1.00  0.00     0.040 A 
ENDROOT
BRANCH   3  12
HETATM   12  C7  UNK     1      17.917  -0.884  35.056  1.00  0.00     0.259 C 
HETATM   13  O1  UNK     1      16.721  -0.785  35.331  1.00  0.00    -0.267 OA
HETATM   14  N1  UNK     1      18.897  -1.348  35.930  1.00  0.00    -0.348 N 
HETATM   15  C4  UNK     1      18.508  -1.757  37.282  1.00  0.00     0.126 C 
HETATM   16  C5  UNK     1      20.338  -1.445  35.651  1.00  0.00     0.126 C 
HETATM   17  C2  UNK     1      18.994  -3.169  37.599  1.00  0.00     0.024 C 
HETATM   18  C1  UNK     1      20.508  -3.291  37.379  1.00  0.00    -0.015 C 
HETATM   19  C3  UNK     1      20.866  -2.847  35.955  1.00  0.00     0.024 C 
HETATM   20  C6  UNK     1      20.981  -4.719  37.639  1.00  0.00     0.010 C 
ENDBRANCH   3  12
BRANCH   9  21
HETATM   21  O4  UNK     1      19.376   1.785  29.341  1.00  0.00    -0.353 OA
HETATM   22  C17 UNK     1      18.112   2.011  28.718  1.00  0.00     0.210 C 
ENDBRANCH   9  21
TORSDOF 2
ENDMDL
MODEL 4
REMARK VINA RESULT:      -7.9     22.008     24.233
REMARK  2 active torsions:
REMARK  status: ('A' for Active; 'I' for Inactive)
REMARK    1  A    between atoms: C14_19  and  O4_4 
REMARK       I    between atoms: C7_12  and  N1_5 
REMARK    2  A    between atoms: C7_12  and  C8_13 
ROOT
HETATM    1  O2  UNK     1      18.704   0.577  32.151  1.00  0.00    -0.271 OA
HETATM    2  O3  UNK     1      17.702   2.615  32.396  1.00  0.00    -0.259 OA
HETATM    3  C8  UNK     1      18.820   2.221  30.346  1.00  0.00     0.108 A 
HETATM    4  C9  UNK     1      19.537   1.380  29.589  1.00  0.00     0.037 A 
HETATM    5  C10 UNK     1      18.358   1.848  31.700  1.00  0.00     0.304 A 
HETATM    6  C11 UNK     1      19.882   0.059  30.088  1.00  0.00     0.002 A 
HETATM    7  C12 UNK     1      19.456  -0.313  31.360  1.00  0.00     0.123 A 
HETATM    8  C13 UNK     1      20.627  -0.852  29.334  1.00  0.00     0.014 A 
HETATM    9  C14 UNK     1      19.754  -1.565  31.897  1.00  0.00     0.102 A 
HETATM   10  C15 UNK     1      20.932  -2.111  29.859  1.00  0.00     0.004 A 
HETATM   11  C16 UNK     1      20.497  -2.466  31.137  1.00  0.00     0.040 A 
ENDROOT
BRANCH   3  12
HETATM   12  C7  UNK     1      18.521   3.540  29.750  1.00  0.00     0.259 C 
HETATM   13  O1  UNK     1      17.889   3.556  28.693  1.00  0.00    -0.267 OA
HETATM   14  N1  UNK     1      18.978   4.672  30.420  1.00  0.00    -0.348 N 
HETATM   15  C4  UNK     1      18.701   5.995  29.851  1.00  0.00     0.126 C 
HETATM   16  C5  UNK     1      19.767   4.692  31.661  1.00  0.00     0.126 C 
HETATM   17  C2  UNK     1      18.025   6.908  30.869  1.00  0.00     0.024 C 
HETATM   18  C1  UNK     1      18.854   7.003  32.158  1.00  0.00    -0.015 C 
HETATM   19  C3  UNK     1      19.123   5.597  32.711  1.00  0.00     0.024 C 
HETATM   20  C6  UNK     1      18.147   7.870  33.196  1.00  0.00     0.010 C 
ENDBRANCH   3  12
BRANCH   9  21
HETATM   21  O4  UNK     1      19.331  -1.915  33.141  1.00  0.00    -0.353 OA
HETATM   22  C17 UNK     1      20.298  -2.492  34.018  1.00  0.00     0.210 C 
ENDBRANCH   9  21
TORSDOF 2
ENDMDL
MODEL 5
REMARK VINA RESULT:      -7.7      2.758      7.461
REMARK  2 active torsions:
REMARK  status: ('A' for Active; 'I' for Inactive)
REMARK    1  A    between atoms: C14_19  and  O4_4 
REMARK       I    between atoms: C7_12  and  N1_5 
REMARK    2  A    between atoms: C7_12  and  C8_13 
ROOT
HETATM    1  O2  UNK     1      17.642   9.301   9.461  1.00  0.00    -0.271 OA
HETATM    2  O3  UNK     1      17.055   7.411  10.602  1.00  0.00    -0.259 OA
HETATM    3  C8  UNK     1      15.285   8.695   9.693  1.00  0.00     0.108 A 
HETATM    4  C9  UNK     1      14.911   9.776   8.997  1.00  0.00     0.037 A 
HETATM    5  C10 UNK     1      16.708   8.399   9.966  1.00  0.00     0.304 A 
HETATM    6  C11 UNK     1      15.910  10.699   8.484  1.00  0.00     0.002 A 
HETATM    7  C12 UNK     1      17.256  10.439   8.728  1.00  0.00     0.123 A 
HETATM    8  C13 UNK     1      15.566  11.839   7.752  1.00  0.00     0.014 A 
HETATM    9  C14 UNK     1      18.262  11.284   8.264  1.00  0.00     0.102 A 
HETATM   10  C15 UNK     1      16.565  12.695   7.279  1.00  0.00     0.004 A 
HETATM   11  C16 UNK     1      17.909  12.418   7.535  1.00  0.00     0.040 A 
ENDROOT
BRANCH   3  12
HETATM   12  C7  UNK     1      14.196   7.819  10.172  1.00  0.00     0.259 C 
HETATM   13  O1  UNK     1      13.831   7.954  11.341  1.00  0.00    -0.267 OA
HETATM   14  N1  UNK     1      13.662   6.898   9.274  1.00  0.00    -0.348 N 
HETATM   15  C4  UNK     1      12.585   6.011   9.721  1.00  0.00     0.126 C 
HETATM   16  C5  UNK     1      14.098   6.682   7.886  1.00  0.00     0.126 C 
HETATM   17  C2  UNK     1      11.377   6.089   8.792  1.00  0.00     0.024 C 
HETATM   18  C1  UNK     1      11.783   5.806   7.339  1.00  0.00    -0.015 C 
HETATM   19  C3  UNK     1      12.915   6.753   6.919  1.00  0.00     0.024 C 
HETATM   20  C6  UNK     1      10.584   5.943   6.404  1.00  0.00     0.010 C 
ENDBRANCH   3  12
BRANCH   9  21
HETATM   21  O4  UNK     1      19.573  11.018   8.510  1.00  0.00    -0.353 OA
HETATM   22  C17 UNK     1      20.503  12.081   8.303  1.00  0.00     0.210 C 
ENDBRANCH   9  21
TORSDOF 2
ENDMDL
MODEL 6
REMARK VINA RESULT:      -7.6     22.741     24.629
REMARK  2 active torsions:
REMARK  status: ('A' for Active; 'I' for Inactive)
REMARK    1  A    between atoms: C14_19  and  O4_4 
REMARK       I    between atoms: C7_12  and  N1_5 
REMARK    2  A    between atoms: C7_12  and  C8_13 
ROOT
HETATM    1  O2  UNK     1      18.837   1.090  32.669  1.00  0.00    -0.271 OA
HETATM    2  O3  UNK     1      17.907   2.818  33.838  1.00  0.00    -0.259 OA
HETATM    3  C8  UNK     1      18.203   3.148  31.511  1.00  0.00     0.108 A 
HETATM    4  C9  UNK     1      18.624   2.652  30.341  1.00  0.00     0.037 A 
HETATM    5  C10 UNK     1      18.292   2.368  32.765  1.00  0.00     0.304 A 
HETATM    6  C11 UNK     1      19.189   1.313  30.274  1.00  0.00     0.002 A 
HETATM    7  C12 UNK     1      19.281   0.561  31.442  1.00  0.00     0.123 A 
HETATM    8  C13 UNK     1      19.640   0.754  29.076  1.00  0.00     0.014 A 
HETATM    9  C14 UNK     1      19.811  -0.727  31.445  1.00  0.00     0.102 A 
HETATM   10  C15 UNK     1      20.174  -0.538  29.063  1.00  0.00     0.004 A 
HETATM   11  C16 UNK     1      20.259  -1.276  30.245  1.00  0.00     0.040 A 
ENDROOT
BRANCH   3  12
HETATM   12  C7  UNK     1      17.646   4.516  31.477  1.00  0.00     0.259 C 
HETATM   13  O1  UNK     1      16.458   4.638  31.174  1.00  0.00    -0.267 OA
HETATM   14  N1  UNK     1      18.501   5.572  31.783  1.00  0.00    -0.348 N 
HETATM   15  C4  UNK     1      17.979   6.941  31.752  1.00  0.00     0.126 C 
HETATM   16  C5  UNK     1      19.931   5.468  32.111  1.00  0.00     0.126 C 
HETATM   17  C2  UNK     1      18.254   7.672  33.063  1.00  0.00     0.024 C 
HETATM   18  C1  UNK     1      19.749   7.639  33.407  1.00  0.00    -0.015 C 
HETATM   19  C3  UNK     1      20.250   6.188  33.422  1.00  0.00     0.024 C 
HETATM   20  C6  UNK     1      20.013   8.318  34.748  1.00  0.00     0.010 C 
ENDBRANCH   3  12
BRANCH   9  21
HETATM   21  O4  UNK     1      19.896  -1.450  32.593  1.00  0.00    -0.353 OA
HETATM   22  C17 UNK     1      20.873  -2.489  32.638  1.00  0.00     0.210 C 
ENDBRANCH   9  21
TORSDOF 2
ENDMDL
MODEL 7
REMARK VINA RESULT:      -7.5     23.898     26.135
REMARK  2 active torsions:
REMARK  status: ('A' for Active; 'I' for Inactive)
REMARK    1  A    between atoms: C14_19  and  O4_4 
REMARK       I    between atoms: C7_12  and  N1_5 
REMARK    2  A    between atoms: C7_12  and  C8_13 
ROOT
HETATM    1  O2  UNK     1      14.357   9.684  35.013  1.00  0.00    -0.271 OA
HETATM    2  O3  UNK     1      14.081   7.755  33.820  1.00  0.00    -0.259 OA
HETATM    3  C8  UNK     1      15.941   9.104  33.244  1.00  0.00     0.108 A 
HETATM    4  C9  UNK     1      16.646  10.220  33.472  1.00  0.00     0.037 A 
HETATM    5  C10 UNK     1      14.729   8.776  34.026  1.00  0.00     0.304 A 
HETATM    6  C11 UNK     1      16.230  11.150  34.511  1.00  0.00     0.002 A 
HETATM    7  C12 UNK     1      15.093  10.859  35.259  1.00  0.00     0.123 A 
HETATM    8  C13 UNK     1      16.935  12.324  34.784  1.00  0.00     0.014 A 
HETATM    9  C14 UNK     1      14.642  11.708  36.268  1.00  0.00     0.102 A 
HETATM   10  C15 UNK     1      16.495  13.186  35.794  1.00  0.00     0.004 A 
HETATM   11  C16 UNK     1      15.351  12.878  36.534  1.00  0.00     0.040 A 
ENDROOT
BRANCH   3  12
HETATM   12  C7  UNK     1      16.443   8.225  32.169  1.00  0.00     0.259 C 
HETATM   13  O1  UNK     1      15.963   8.371  31.044  1.00  0.00    -0.267 OA
HETATM   14  N1  UNK     1      17.419   7.287  32.500  1.00  0.00    -0.348 N 
HETATM   15  C4  UNK     1      17.933   6.396  31.456  1.00  0.00     0.126 C 
HETATM   16  C5  UNK     1      17.988   7.058  33.837  1.00  0.00     0.126 C 
HETATM   17  C2  UNK     1      19.456   6.451  31.377  1.00  0.00     0.024 C 
HETATM   18  C1  UNK     1      20.088   6.154  32.743  1.00  0.00    -0.015 C 
HETATM   19  C3  UNK     1      19.516   7.105  33.802  1.00  0.00     0.024 C 
HETATM   20  C6  UNK     1      21.609   6.268  32.674  1.00  0.00     0.010 C 
ENDBRANCH   3  12
BRANCH   9  21
HETATM   21  O4  UNK     1      13.530  11.412  36.991  1.00  0.00    -0.353 OA
HETATM   22  C17 UNK     1      13.528  11.789  38.368  1.00  0.00     0.210 C 
ENDBRANCH   9  21
TORSDOF 2
ENDMDL
MODEL 8
REMARK VINA RESULT:      -7.5     32.695     35.421
REMARK  2 active torsions:
REMARK  status: ('A' for Active; 'I' for Inactive)
REMARK    1  A    between atoms: C14_19  and  O4_4 
REMARK       I    between atoms: C7_12  and  N1_5 
REMARK    2  A    between atoms: C7_12  and  C8_13 
ROOT
HETATM    1  O2  UNK     1      25.532  -5.849  38.676  1.00  0.00    -0.271 OA
HETATM    2  O3  UNK     1      23.287  -5.489  38.904  1.00  0.00    -0.259 OA
HETATM    3  C8  UNK     1      24.028  -7.731  39.092  1.00  0.00     0.108 A 
HETATM    4  C9  UNK     1      25.055  -8.590  39.073  1.00  0.00     0.037 A 
HETATM    5  C10 UNK     1      24.224  -6.279  38.888  1.00  0.00     0.304 A 
HETATM    6  C11 UNK     1      26.409  -8.109  38.849  1.00  0.00     0.002 A 
HETATM    7  C12 UNK     1      26.616  -6.746  38.656  1.00  0.00     0.123 A 
HETATM    8  C13 UNK     1      27.510  -8.968  38.822  1.00  0.00     0.014 A 
HETATM    9  C14 UNK     1      27.889  -6.222  38.437  1.00  0.00     0.102 A 
HETATM   10  C15 UNK     1      28.793  -8.457  38.604  1.00  0.00     0.004 A 
HETATM   11  C16 UNK     1      28.981  -7.086  38.412  1.00  0.00     0.040 A 
ENDROOT
BRANCH   3  12
HETATM   12  C7  UNK     1      22.692  -8.317  39.326  1.00  0.00     0.259 C 
HETATM   13  O1  UNK     1      22.355  -8.515  40.494  1.00  0.00    -0.267 OA
HETATM   14  N1  UNK     1      21.908  -8.610  38.212  1.00  0.00    -0.348 N 
HETATM   15  C4  UNK     1      20.580  -9.197  38.412  1.00  0.00     0.126 C 
HETATM   16  C5  UNK     1      22.291  -8.424  36.805  1.00  0.00     0.126 C 
HETATM   17  C2  UNK     1      19.502  -8.391  37.695  1.00  0.00     0.024 C 
HETATM   18  C1  UNK     1      19.836  -8.229  36.206  1.00  0.00    -0.015 C 
HETATM   19  C3  UNK     1      21.235  -7.618  36.048  1.00  0.00     0.024 C 
HETATM   20  C6  UNK     1      18.786  -7.372  35.503  1.00  0.00     0.010 C 
ENDBRANCH   3  12
BRANCH   9  21
HETATM   21  O4  UNK     1      28.076  -4.888  38.250  1.00  0.00    -0.353 OA
HETATM   22  C17 UNK     1      29.261  -4.314  38.801  1.00  0.00     0.210 C 
ENDBRANCH   9  21
TORSDOF 2
ENDMDL
MODEL 9
REMARK VINA RESULT:      -7.5     22.278     24.812
REMARK  2 active torsions:
REMARK  status: ('A' for Active; 'I' for Inactive)
REMARK    1  A    between atoms: C14_19  and  O4_4 
REMARK       I    between atoms: C7_12  and  N1_5 
REMARK    2  A    between atoms: C7_12  and  C8_13 
ROOT
HETATM    1  O2  UNK     1      19.971   6.739  32.708  1.00  0.00    -0.271 OA
HETATM    2  O3  UNK     1      21.091   5.671  31.028  1.00  0.00    -0.259 OA
HETATM    3  C8  UNK     1      18.753   5.311  31.142  1.00  0.00     0.108 A 
HETATM    4  C9  UNK     1      17.596   5.567  31.766  1.00  0.00     0.037 A 
HETATM    5  C10 UNK     1      20.030   5.902  31.597  1.00  0.00     0.304 A 
HETATM    6  C11 UNK     1      17.567   6.446  32.925  1.00  0.00     0.002 A 
HETATM    7  C12 UNK     1      18.758   7.013  33.369  1.00  0.00     0.123 A 
HETATM    8  C13 UNK     1      16.385   6.742  33.606  1.00  0.00     0.014 A 
HETATM    9  C14 UNK     1      18.798   7.864  34.473  1.00  0.00     0.102 A 
HETATM   10  C15 UNK     1      16.409   7.593  34.715  1.00  0.00     0.004 A 
HETATM   11  C16 UNK     1      17.614   8.153  35.146  1.00  0.00     0.040 A 
ENDROOT
BRANCH   3  12
HETATM   12  C7  UNK     1      18.679   4.407  29.977  1.00  0.00     0.259 C 
HETATM   13  O1  UNK     1      18.789   4.911  28.858  1.00  0.00    -0.267 OA
HETATM   14  N1  UNK     1      18.484   3.049  30.220  1.00  0.00    -0.348 N 
HETATM   15  C4  UNK     1      18.400   2.127  29.084  1.00  0.00     0.126 C 
HETATM   16  C5  UNK     1      18.310   2.417  31.537  1.00  0.00     0.126 C 
HETATM   17  C2  UNK     1      19.389   0.974  29.228  1.00  0.00     0.024 C 
HETATM   18  C1  UNK     1      19.195   0.249  30.567  1.00  0.00    -0.015 C 
HETATM   19  C3  UNK     1      19.284   1.254  31.723  1.00  0.00     0.024 C 
HETATM   20  C6  UNK     1      20.224  -0.866  30.735  1.00  0.00     0.010 C 
ENDBRANCH   3  12
BRANCH   9  21
HETATM   21  O4  UNK     1      19.969   8.411  34.896  1.00  0.00    -0.353 OA
HETATM   22  C17 UNK     1      20.255   9.744  34.473  1.00  0.00     0.210 C 
ENDBRANCH   9  21
TORSDOF 2
ENDMDL
MODEL 10
REMARK VINA RESULT:      -7.5     29.859     32.105
REMARK  2 active torsions:
REMARK  status: ('A' for Active; 'I' for Inactive)
REMARK    1  A    between atoms: C14_19  and  O4_4 
REMARK       I    between atoms: C7_12  and  N1_5 
REMARK    2  A    between atoms: C7_12  and  C8_13 
ROOT
HETATM    1  O2  UNK     1      19.175  -6.669  37.735  1.00  0.00    -0.271 OA
HETATM    2  O3  UNK     1      17.891  -5.448  36.293  1.00  0.00    -0.259 OA
HETATM    3  C8  UNK     1      20.108  -4.691  36.642  1.00  0.00     0.108 A 
HETATM    4  C9  UNK     1      21.282  -4.870  37.260  1.00  0.00     0.037 A 
HETATM    5  C10 UNK     1      18.967  -5.608  36.857  1.00  0.00     0.304 A 
HETATM    6  C11 UNK     1      21.468  -5.988  38.172  1.00  0.00     0.002 A 
HETATM    7  C12 UNK     1      20.407  -6.863  38.388  1.00  0.00     0.123 A 
HETATM    8  C13 UNK     1      22.674  -6.214  38.838  1.00  0.00     0.014 A 
HETATM    9  C14 UNK     1      20.520  -7.953  39.249  1.00  0.00     0.102 A 
HETATM   10  C15 UNK     1      22.803  -7.303  39.704  1.00  0.00     0.004 A 
HETATM   11  C16 UNK     1      21.728  -8.171  39.909  1.00  0.00     0.040 A 
ENDROOT
BRANCH   3  12
HETATM   12  C7  UNK     1      20.018  -3.527  35.736  1.00  0.00     0.259 C 
HETATM   13  O1  UNK     1      20.371  -3.688  34.567  1.00  0.00    -0.267 OA
HETATM   14  N1  UNK     1      19.548  -2.328  36.266  1.00  0.00    -0.348 N 
HETATM   15  C4  UNK     1      19.453  -1.154  35.393  1.00  0.00     0.126 C 
HETATM   16  C5  UNK     1      19.155  -2.087  37.662  1.00  0.00     0.126 C 
HETATM   17  C2  UNK     1      18.055  -0.545  35.430  1.00  0.00     0.024 C 
HETATM   18  C1  UNK     1      17.634  -0.221  36.870  1.00  0.00    -0.015 C 
HETATM   19  C3  UNK     1      17.756  -1.476  37.744  1.00  0.00     0.024 C 
HETATM   20  C6  UNK     1      16.212   0.333  36.909  1.00  0.00     0.010 C 
ENDBRANCH   3  12
BRANCH   9  21
HETATM   21  O4  UNK     1      19.476  -8.801  39.450  1.00  0.00    -0.353 OA
HETATM   22  C17 UNK     1      19.519 -10.058  38.775  1.00  0.00     0.210 C 
ENDBRANCH   9  21
TORSDOF 2
ENDMDL
