MODEL 1
REMARK VINA RESULT:      -7.7      0.000      0.000
REMARK  7 active torsions:
REMARK  status: ('A' for Active; 'I' for Inactive)
REMARK    1  A    between atoms: C14_18  and  O3_3 
REMARK    2  A    between atoms: C16_20  and  O3_3 
REMARK    3  A    between atoms: C1_5  and  C2_6 
REMARK    4  A    between atoms: C1_5  and  C3_7 
REMARK    5  A    between atoms: C2_6  and  C4_8 
REMARK    6  A    between atoms: C4_8  and  C6_10 
REMARK    7  A    between atoms: C16_20  and  C17_21 
ROOT
HETATM    1  O1  UNK     1      18.046   3.030  33.416  1.00  0.00    -0.274 OA
HETATM    2  O2  UNK     1      18.223   0.785  33.135  1.00  0.00    -0.259 OA
HETATM    3  C3  UNK     1      18.560   2.120  31.191  1.00  0.00     0.024 A 
HETATM    4  C5  UNK     1      18.571   3.359  30.653  1.00  0.00    -0.037 A 
HETATM    5  C7  UNK     1      18.346   4.531  31.525  1.00  0.00     0.005 A 
HETATM    6  C8  UNK     1      18.090   4.325  32.876  1.00  0.00     0.093 A 
HETATM    7  C9  UNK     1      18.271   1.906  32.638  1.00  0.00     0.295 A 
HETATM    8  C10 UNK     1      18.788   3.631  29.185  1.00  0.00     0.050 C 
HETATM    9  C11 UNK     1      18.385   5.861  31.076  1.00  0.00     0.017 A 
HETATM   10  C13 UNK     1      17.867   5.377  33.768  1.00  0.00     0.075 A 
HETATM   11  C14 UNK     1      17.904   6.685  33.302  1.00  0.00     0.082 A 
HETATM   12  C15 UNK     1      18.164   6.927  31.956  1.00  0.00     0.038 A 
ENDROOT
BRANCH   3  13
HETATM   13  C1  UNK     1      18.836   0.849  30.431  1.00  0.00     0.045 C 
BRANCH  13  14
HETATM   14  C2  UNK     1      20.294   0.408  30.516  1.00  0.00     0.005 C 
BRANCH  14  15
HETATM   15  C4  UNK     1      20.698  -0.566  29.406  1.00  0.00    -0.000 C 
BRANCH  15  16
HETATM   16  C6  UNK     1      20.547  -2.018  29.862  1.00  0.00    -0.005 C 
HETATM   17  C12 UNK     1      20.553  -2.128  31.379  1.00  0.00     0.005 C 
ENDBRANCH  15  16
ENDBRANCH  14  15
ENDBRANCH  13  14
ENDBRANCH   3  13
BRANCH  11  18
HETATM   18  O3  UNK     1      17.690   7.723  34.155  1.00  0.00    -0.279 OA
BRANCH  18  19
HETATM   19  C16 UNK     1      18.522   8.838  33.932  1.00  0.00     0.263 C 
HETATM   20  O4  UNK     1      18.158   9.905  33.458  1.00  0.00    -0.265 OA
BRANCH  19  21
HETATM   21  C17 UNK     1      19.930   8.510  34.373  1.00  0.00     0.107 C 
HETATM   22  C18 UNK     1      20.761   9.761  34.603  1.00  0.00     0.015 C 
ENDBRANCH  19  21
ENDBRANCH  18  19
ENDBRANCH  11  18
TORSDOF 7
ENDMDL
MODEL 2
REMARK VINA RESULT:      -7.5      1.860      2.499
REMARK  7 active torsions:
REMARK  status: ('A' for Active; 'I' for Inactive)
REMARK    1  A    between atoms: C14_18  and  O3_3 
REMARK    2  A    between atoms: C16_20  and  O3_3 
REMARK    3  A    between atoms: C1_5  and  C2_6 
REMARK    4  A    between atoms: C1_5  and  C3_7 
REMARK    5  A    between atoms: C2_6  and  C4_8 
REMARK    6  A    between atoms: C4_8  and  C6_10 
REMARK    7  A    between atoms: C16_20  and  C17_21 
ROOT
HETATM    1  O1  UNK     1      18.017   2.912  33.566  1.00  0.00    -0.274 OA
HETATM    2  O2  UNK     1      18.107   0.750  34.250  1.00  0.00    -0.259 OA
HETATM    3  C3  UNK     1      18.646   1.156  31.964  1.00  0.00     0.024 A 
HETATM    4  C5  UNK     1      18.755   2.061  30.968  1.00  0.00    -0.037 A 
HETATM    5  C7  UNK     1      18.523   3.491  31.258  1.00  0.00     0.005 A 
HETATM    6  C8  UNK     1      18.161   3.867  32.547  1.00  0.00     0.093 A 
HETATM    7  C9  UNK     1      18.244   1.565  33.341  1.00  0.00     0.295 A 
HETATM    8  C10 UNK     1      19.089   1.699  29.542  1.00  0.00     0.050 C 
HETATM    9  C11 UNK     1      18.657   4.516  30.307  1.00  0.00     0.017 A 
HETATM   10  C13 UNK     1      17.924   5.196  32.905  1.00  0.00     0.075 A 
HETATM   11  C14 UNK     1      18.057   6.194  31.946  1.00  0.00     0.082 A 
HETATM   12  C15 UNK     1      18.425   5.854  30.648  1.00  0.00     0.038 A 
ENDROOT
BRANCH   3  13
HETATM   13  C1  UNK     1      18.916  -0.319  31.822  1.00  0.00     0.045 C 
BRANCH  13  14
HETATM   14  C2  UNK     1      20.404  -0.652  31.781  1.00  0.00     0.005 C 
BRANCH  14  15
HETATM   15  C4  UNK     1      20.703  -2.015  31.149  1.00  0.00    -0.000 C 
BRANCH  15  16
HETATM   16  C6  UNK     1      20.273  -2.051  29.683  1.00  0.00    -0.005 C 
HETATM   17  C12 UNK     1      20.945  -0.949  28.878  1.00  0.00     0.005 C 
ENDBRANCH  15  16
ENDBRANCH  14  15
ENDBRANCH  13  14
ENDBRANCH   3  13
BRANCH  11  18
HETATM   18  O3  UNK     1      17.831   7.494  32.275  1.00  0.00    -0.279 OA
BRANCH  18  19
HETATM   19  C16 UNK     1      16.574   7.985  31.871  1.00  0.00     0.263 C 
HETATM   20  O4  UNK     1      16.326   8.472  30.777  1.00  0.00    -0.265 OA
BRANCH  19  21
HETATM   21  C17 UNK     1      15.581   7.812  32.999  1.00  0.00     0.107 C 
HETATM   22  C18 UNK     1      14.241   7.297  32.504  1.00  0.00     0.015 C 
ENDBRANCH  19  21
ENDBRANCH  18  19
ENDBRANCH  11  18
TORSDOF 7
ENDMDL
MODEL 3
REMARK VINA RESULT:      -7.5      1.895      2.785
REMARK  7 active torsions:
REMARK  status: ('A' for Active; 'I' for Inactive)
REMARK    1  A    between atoms: C14_18  and  O3_3 
REMARK    2  A    between atoms: C16_20  and  O3_3 
REMARK    3  A    between atoms: C1_5  and  C2_6 
REMARK    4  A    between atoms: C1_5  and  C3_7 
REMARK    5  A    between atoms: C2_6  and  C4_8 
REMARK    6  A    between atoms: C4_8  and  C6_10 
REMARK    7  A    between atoms: C16_20  and  C17_21 
ROOT
HETATM    1  O1  UNK     1      17.554   4.257  33.434  1.00  0.00    -0.274 OA
HETATM    2  O2  UNK     1      17.963   2.179  32.618  1.00  0.00    -0.259 OA
HETATM    3  C3  UNK     1      18.574   4.003  31.212  1.00  0.00     0.024 A 
HETATM    4  C5  UNK     1      18.593   5.342  31.035  1.00  0.00    -0.037 A 
HETATM    5  C7  UNK     1      18.105   6.225  32.114  1.00  0.00     0.005 A 
HETATM    6  C8  UNK     1      17.601   5.651  33.277  1.00  0.00     0.093 A 
HETATM    7  C9  UNK     1      18.019   3.395  32.456  1.00  0.00     0.295 A 
HETATM    8  C10 UNK     1      19.077   6.010  29.772  1.00  0.00     0.050 C 
HETATM    9  C11 UNK     1      18.126   7.627  32.050  1.00  0.00     0.017 A 
HETATM   10  C13 UNK     1      17.120   6.413  34.344  1.00  0.00     0.075 A 
HETATM   11  C14 UNK     1      17.145   7.800  34.257  1.00  0.00     0.082 A 
HETATM   12  C15 UNK     1      17.649   8.407  33.110  1.00  0.00     0.038 A 
ENDROOT
BRANCH   3  13
HETATM   13  C1  UNK     1      19.098   2.995  30.223  1.00  0.00     0.045 C 
BRANCH  13  14
HETATM   14  C2  UNK     1      17.990   2.293  29.444  1.00  0.00     0.005 C 
BRANCH  14  15
HETATM   15  C4  UNK     1      18.476   1.058  28.680  1.00  0.00    -0.000 C 
BRANCH  15  16
HETATM   16  C6  UNK     1      19.815   0.561  29.226  1.00  0.00    -0.005 C 
HETATM   17  C12 UNK     1      20.102  -0.866  28.783  1.00  0.00     0.005 C 
ENDBRANCH  15  16
ENDBRANCH  14  15
ENDBRANCH  13  14
ENDBRANCH   3  13
BRANCH  11  18
HETATM   18  O3  UNK     1      16.682   8.559  35.286  1.00  0.00    -0.279 OA
BRANCH  18  19
HETATM   19  C16 UNK     1      15.864   9.636  34.890  1.00  0.00     0.263 C 
HETATM   20  O4  UNK     1      16.144  10.820  35.022  1.00  0.00    -0.265 OA
BRANCH  19  21
HETATM   21  C17 UNK     1      14.591   9.101  34.275  1.00  0.00     0.107 C 
HETATM   22  C18 UNK     1      14.183   9.880  33.037  1.00  0.00     0.015 C 
ENDBRANCH  19  21
ENDBRANCH  18  19
ENDBRANCH  11  18
TORSDOF 7
ENDMDL
MODEL 4
REMARK VINA RESULT:      -7.4      1.904      7.600
REMARK  7 active torsions:
REMARK  status: ('A' for Active; 'I' for Inactive)
REMARK    1  A    between atoms: C14_18  and  O3_3 
REMARK    2  A    between atoms: C16_20  and  O3_3 
REMARK    3  A    between atoms: C1_5  and  C2_6 
REMARK    4  A    between atoms: C1_5  and  C3_7 
REMARK    5  A    between atoms: C2_6  and  C4_8 
REMARK    6  A    between atoms: C4_8  and  C6_10 
REMARK    7  A    between atoms: C16_20  and  C17_21 
ROOT
HETATM    1  O1  UNK     1      17.946   4.068  33.448  1.00  0.00    -0.274 OA
HETATM    2  O2  UNK     1      17.464   6.031  34.481  1.00  0.00    -0.259 OA
HETATM    3  C3  UNK     1      18.051   6.168  32.176  1.00  0.00     0.024 A 
HETATM    4  C5  UNK     1      18.449   5.511  31.065  1.00  0.00    -0.037 A 
HETATM    5  C7  UNK     1      18.580   4.040  31.100  1.00  0.00     0.005 A 
HETATM    6  C8  UNK     1      18.326   3.369  32.291  1.00  0.00     0.093 A 
HETATM    7  C9  UNK     1      17.793   5.444  33.454  1.00  0.00     0.295 A 
HETATM    8  C10 UNK     1      18.791   6.197  29.766  1.00  0.00     0.050 C 
HETATM    9  C11 UNK     1      18.940   3.259  29.990  1.00  0.00     0.017 A 
HETATM   10  C13 UNK     1      18.426   1.981  32.409  1.00  0.00     0.075 A 
HETATM   11  C14 UNK     1      18.789   1.228  31.300  1.00  0.00     0.082 A 
HETATM   12  C15 UNK     1      19.045   1.866  30.090  1.00  0.00     0.038 A 
ENDROOT
BRANCH   3  13
HETATM   13  C1  UNK     1      17.816   7.655  32.260  1.00  0.00     0.045 C 
BRANCH  13  14
HETATM   14  C2  UNK     1      16.399   8.057  31.866  1.00  0.00     0.005 C 
BRANCH  14  15
HETATM   15  C4  UNK     1      15.670   8.851  32.955  1.00  0.00    -0.000 C 
BRANCH  15  16
HETATM   16  C6  UNK     1      14.238   8.348  33.140  1.00  0.00    -0.005 C 
HETATM   17  C12 UNK     1      13.951   7.146  32.254  1.00  0.00     0.005 C 
ENDBRANCH  15  16
ENDBRANCH  14  15
ENDBRANCH  13  14
ENDBRANCH   3  13
BRANCH  11  18
HETATM   18  O3  UNK     1      18.892  -0.125  31.395  1.00  0.00    -0.279 OA
BRANCH  18  19
HETATM   19  C16 UNK     1      20.129  -0.645  30.965  1.00  0.00     0.263 C 
HETATM   20  O4  UNK     1      21.220  -0.337  31.426  1.00  0.00    -0.265 OA
BRANCH  19  21
HETATM   21  C17 UNK     1      19.897  -1.641  29.853  1.00  0.00     0.107 C 
HETATM   22  C18 UNK     1      20.023  -1.003  28.480  1.00  0.00     0.015 C 
ENDBRANCH  19  21
ENDBRANCH  18  19
ENDBRANCH  11  18
TORSDOF 7
ENDMDL
MODEL 5
REMARK VINA RESULT:      -7.2      1.917      2.917
REMARK  7 active torsions:
REMARK  status: ('A' for Active; 'I' for Inactive)
REMARK    1  A    between atoms: C14_18  and  O3_3 
REMARK    2  A    between atoms: C16_20  and  O3_3 
REMARK    3  A    between atoms: C1_5  and  C2_6 
REMARK    4  A    between atoms: C1_5  and  C3_7 
REMARK    5  A    between atoms: C2_6  and  C4_8 
REMARK    6  A    between atoms: C4_8  and  C6_10 
REMARK    7  A    between atoms: C16_20  and  C17_21 
ROOT
HETATM    1  O1  UNK     1      18.568   4.088  30.284  1.00  0.00    -0.274 OA
HETATM    2  O2  UNK     1      18.950   2.141  29.181  1.00  0.00    -0.259 OA
HETATM    3  C3  UNK     1      18.585   1.969  31.530  1.00  0.00     0.024 A 
HETATM    4  C5  UNK     1      18.364   2.616  32.694  1.00  0.00    -0.037 A 
HETATM    5  C7  UNK     1      18.194   4.083  32.688  1.00  0.00     0.005 A 
HETATM    6  C8  UNK     1      18.303   4.769  31.483  1.00  0.00     0.093 A 
HETATM    7  C9  UNK     1      18.715   2.712  30.243  1.00  0.00     0.295 A 
HETATM    8  C10 UNK     1      18.294   1.925  34.034  1.00  0.00     0.050 C 
HETATM    9  C11 UNK     1      17.914   4.845  33.834  1.00  0.00     0.017 A 
HETATM   10  C13 UNK     1      18.155   6.155  31.390  1.00  0.00     0.075 A 
HETATM   11  C14 UNK     1      17.884   6.889  32.538  1.00  0.00     0.082 A 
HETATM   12  C15 UNK     1      17.762   6.235  33.759  1.00  0.00     0.038 A 
ENDROOT
BRANCH   3  13
HETATM   13  C1  UNK     1      18.714   0.474  31.385  1.00  0.00     0.045 C 
BRANCH  13  14
HETATM   14  C2  UNK     1      20.161   0.010  31.264  1.00  0.00     0.005 C 
BRANCH  14  15
HETATM   15  C4  UNK     1      20.307  -1.515  31.228  1.00  0.00    -0.000 C 
BRANCH  15  16
HETATM   16  C6  UNK     1      20.462  -2.022  29.794  1.00  0.00    -0.005 C 
HETATM   17  C12 UNK     1      20.761  -0.883  28.830  1.00  0.00     0.005 C 
ENDBRANCH  15  16
ENDBRANCH  14  15
ENDBRANCH  13  14
ENDBRANCH   3  13
BRANCH  11  18
HETATM   18  O3  UNK     1      17.737   8.240  32.467  1.00  0.00    -0.279 OA
BRANCH  18  19
HETATM   19  C16 UNK     1      16.418   8.667  32.216  1.00  0.00     0.263 C 
HETATM   20  O4  UNK     1      15.854   8.614  31.132  1.00  0.00    -0.265 OA
BRANCH  19  21
HETATM   21  C17 UNK     1      15.809   9.197  33.494  1.00  0.00     0.107 C 
HETATM   22  C18 UNK     1      14.538   8.455  33.871  1.00  0.00     0.015 C 
ENDBRANCH  19  21
ENDBRANCH  18  19
ENDBRANCH  11  18
TORSDOF 7
ENDMDL
MODEL 6
REMARK VINA RESULT:      -7.2     22.286     24.860
REMARK  7 active torsions:
REMARK  status: ('A' for Active; 'I' for Inactive)
REMARK    1  A    between atoms: C14_18  and  O3_3 
REMARK    2  A    between atoms: C16_20  and  O3_3 
REMARK    3  A    between atoms: C1_5  and  C2_6 
REMARK    4  A    between atoms: C1_5  and  C3_7 
REMARK    5  A    between atoms: C2_6  and  C4_8 
REMARK    6  A    between atoms: C4_8  and  C6_10 
REMARK    7  A    between atoms: C16_20  and  C17_21 
ROOT
HETATM    1  O1  UNK     1      12.627   8.180  10.393  1.00  0.00    -0.274 OA
HETATM    2  O2  UNK     1      13.883   9.522  11.725  1.00  0.00    -0.259 OA
HETATM    3  C3  UNK     1      15.029   7.729  10.652  1.00  0.00     0.024 A 
HETATM    4  C5  UNK     1      14.943   6.644   9.853  1.00  0.00    -0.037 A 
HETATM    5  C7  UNK     1      13.645   6.295   9.240  1.00  0.00     0.005 A 
HETATM    6  C8  UNK     1      12.531   7.075   9.532  1.00  0.00     0.093 A 
HETATM    7  C9  UNK     1      13.828   8.553  10.972  1.00  0.00     0.295 A 
HETATM    8  C10 UNK     1      16.108   5.734   9.551  1.00  0.00     0.050 C 
HETATM    9  C11 UNK     1      13.458   5.218   8.359  1.00  0.00     0.017 A 
HETATM   10  C13 UNK     1      11.268   6.815   8.995  1.00  0.00     0.075 A 
HETATM   11  C14 UNK     1      11.105   5.740   8.129  1.00  0.00     0.082 A 
HETATM   12  C15 UNK     1      12.199   4.943   7.810  1.00  0.00     0.038 A 
ENDROOT
BRANCH   3  13
HETATM   13  C1  UNK     1      16.299   8.232  11.289  1.00  0.00     0.045 C 
BRANCH  13  14
HETATM   14  C2  UNK     1      17.218   8.945  10.302  1.00  0.00     0.005 C 
BRANCH  14  15
HETATM   15  C4  UNK     1      16.917  10.441  10.167  1.00  0.00    -0.000 C 
BRANCH  15  16
HETATM   16  C6  UNK     1      16.723  10.836   8.703  1.00  0.00    -0.005 C 
HETATM   17  C12 UNK     1      15.307  10.544   8.231  1.00  0.00     0.005 C 
ENDBRANCH  15  16
ENDBRANCH  14  15
ENDBRANCH  13  14
ENDBRANCH   3  13
BRANCH  11  18
HETATM   18  O3  UNK     1       9.883   5.470   7.595  1.00  0.00    -0.279 OA
BRANCH  18  19
HETATM   19  C16 UNK     1       9.467   6.385   6.607  1.00  0.00     0.263 C 
HETATM   20  O4  UNK     1      10.165   6.800   5.693  1.00  0.00    -0.265 OA
BRANCH  19  21
HETATM   21  C17 UNK     1       8.026   6.769   6.853  1.00  0.00     0.107 C 
HETATM   22  C18 UNK     1       7.800   7.257   8.274  1.00  0.00     0.015 C 
ENDBRANCH  19  21
ENDBRANCH  18  19
ENDBRANCH  11  18
TORSDOF 7
ENDMDL
MODEL 7
REMARK VINA RESULT:      -7.2      3.266      7.614
REMARK  7 active torsions:
REMARK  status: ('A' for Active; 'I' for Inactive)
REMARK    1  A    between atoms: C14_18  and  O3_3 
REMARK    2  A    between atoms: C16_20  and  O3_3 
REMARK    3  A    between atoms: C1_5  and  C2_6 
REMARK    4  A    between atoms: C1_5  and  C3_7 
REMARK    5  A    between atoms: C2_6  and  C4_8 
REMARK    6  A    between atoms: C4_8  and  C6_10 
REMARK    7  A    between atoms: C16_20  and  C17_21 
ROOT
HETATM    1  O1  UNK     1      18.669   0.422  31.600  1.00  0.00    -0.274 OA
HETATM    2  O2  UNK     1      18.574   1.574  29.647  1.00  0.00    -0.259 OA
HETATM    3  C3  UNK     1      18.361   2.860  31.642  1.00  0.00     0.024 A 
HETATM    4  C5  UNK     1      18.291   2.859  32.991  1.00  0.00    -0.037 A 
HETATM    5  C7  UNK     1      18.451   1.588  33.725  1.00  0.00     0.005 A 
HETATM    6  C8  UNK     1      18.633   0.412  33.004  1.00  0.00     0.093 A 
HETATM    7  C9  UNK     1      18.543   1.594  30.875  1.00  0.00     0.295 A 
HETATM    8  C10 UNK     1      18.039   4.097  33.815  1.00  0.00     0.050 C 
HETATM    9  C11 UNK     1      18.443   1.484  35.125  1.00  0.00     0.017 A 
HETATM   10  C13 UNK     1      18.793  -0.831  33.620  1.00  0.00     0.075 A 
HETATM   11  C14 UNK     1      18.776  -0.911  35.007  1.00  0.00     0.082 A 
HETATM   12  C15 UNK     1      18.602   0.246  35.759  1.00  0.00     0.038 A 
ENDROOT
BRANCH   3  13
HETATM   13  C1  UNK     1      18.278   4.091  30.775  1.00  0.00     0.045 C 
BRANCH  13  14
HETATM   14  C2  UNK     1      19.622   4.791  30.605  1.00  0.00     0.005 C 
BRANCH  14  15
HETATM   15  C4  UNK     1      19.639   6.215  31.169  1.00  0.00    -0.000 C 
BRANCH  15  16
HETATM   16  C6  UNK     1      20.543   6.312  32.398  1.00  0.00    -0.005 C 
HETATM   17  C12 UNK     1      19.940   7.216  33.462  1.00  0.00     0.005 C 
ENDBRANCH  15  16
ENDBRANCH  14  15
ENDBRANCH  13  14
ENDBRANCH   3  13
BRANCH  11  18
HETATM   18  O3  UNK     1      18.930  -2.113  35.625  1.00  0.00    -0.279 OA
BRANCH  18  19
HETATM   19  C16 UNK     1      20.243  -2.376  36.062  1.00  0.00     0.263 C 
HETATM   20  O4  UNK     1      21.262  -2.067  35.459  1.00  0.00    -0.265 OA
BRANCH  19  21
HETATM   21  C17 UNK     1      20.196  -3.096  37.391  1.00  0.00     0.107 C 
HETATM   22  C18 UNK     1      20.605  -4.553  37.265  1.00  0.00     0.015 C 
ENDBRANCH  19  21
ENDBRANCH  18  19
ENDBRANCH  11  18
TORSDOF 7
ENDMDL
MODEL 8
REMARK VINA RESULT:      -7.1     22.371     24.808
REMARK  7 active torsions:
REMARK  status: ('A' for Active; 'I' for Inactive)
REMARK    1  A    between atoms: C14_18  and  O3_3 
REMARK    2  A    between atoms: C16_20  and  O3_3 
REMARK    3  A    between atoms: C1_5  and  C2_6 
REMARK    4  A    between atoms: C1_5  and  C3_7 
REMARK    5  A    between atoms: C2_6  and  C4_8 
REMARK    6  A    between atoms: C4_8  and  C6_10 
REMARK    7  A    between atoms: C16_20  and  C17_21 
ROOT
HETATM    1  O1  UNK     1      13.957   5.247   8.747  1.00  0.00    -0.274 OA
HETATM    2  O2  UNK     1      16.115   5.028   9.415  1.00  0.00    -0.259 OA
HETATM    3  C3  UNK     1      15.003   7.028  10.080  1.00  0.00     0.024 A 
HETATM    4  C5  UNK     1      13.877   7.771  10.026  1.00  0.00    -0.037 A 
HETATM    5  C7  UNK     1      12.688   7.238   9.330  1.00  0.00     0.005 A 
HETATM    6  C8  UNK     1      12.769   5.994   8.713  1.00  0.00     0.093 A 
HETATM    7  C9  UNK     1      15.088   5.700   9.404  1.00  0.00     0.295 A 
HETATM    8  C10 UNK     1      13.756   9.149  10.629  1.00  0.00     0.050 C 
HETATM    9  C11 UNK     1      11.456   7.909   9.257  1.00  0.00     0.017 A 
HETATM   10  C13 UNK     1      11.692   5.418   8.035  1.00  0.00     0.075 A 
HETATM   11  C14 UNK     1      10.484   6.102   7.971  1.00  0.00     0.082 A 
HETATM   12  C15 UNK     1      10.366   7.346   8.582  1.00  0.00     0.038 A 
ENDROOT
BRANCH   3  13
HETATM   13  C1  UNK     1      16.262   7.422  10.808  1.00  0.00     0.045 C 
BRANCH  13  14
HETATM   14  C2  UNK     1      17.240   8.196   9.930  1.00  0.00     0.005 C 
BRANCH  14  15
HETATM   15  C4  UNK     1      17.244   9.702  10.211  1.00  0.00    -0.000 C 
BRANCH  15  16
HETATM   16  C6  UNK     1      17.377  10.506   8.918  1.00  0.00    -0.005 C 
HETATM   17  C12 UNK     1      16.015  10.836   8.325  1.00  0.00     0.005 C 
ENDBRANCH  15  16
ENDBRANCH  14  15
ENDBRANCH  13  14
ENDBRANCH   3  13
BRANCH  11  18
HETATM   18  O3  UNK     1       9.424   5.557   7.316  1.00  0.00    -0.279 OA
BRANCH  18  19
HETATM   19  C16 UNK     1       8.167   5.951   7.818  1.00  0.00     0.263 C 
HETATM   20  O4  UNK     1       7.494   6.877   7.386  1.00  0.00    -0.265 OA
BRANCH  19  21
HETATM   21  C17 UNK     1       7.782   5.050   8.969  1.00  0.00     0.107 C 
HETATM   22  C18 UNK     1       7.321   5.840  10.182  1.00  0.00     0.015 C 
ENDBRANCH  19  21
ENDBRANCH  18  19
ENDBRANCH  11  18
TORSDOF 7
ENDMDL
MODEL 9
REMARK VINA RESULT:      -7.0     14.824     17.574
REMARK  7 active torsions:
REMARK  status: ('A' for Active; 'I' for Inactive)
REMARK    1  A    between atoms: C14_18  and  O3_3 
REMARK    2  A    between atoms: C16_20  and  O3_3 
REMARK    3  A    between atoms: C1_5  and  C2_6 
REMARK    4  A    between atoms: C1_5  and  C3_7 
REMARK    5  A    between atoms: C2_6  and  C4_8 
REMARK    6  A    between atoms: C4_8  and  C6_10 
REMARK    7  A    between atoms: C16_20  and  C17_21 
ROOT
HETATM    1  O1  UNK     1      32.195  -7.085  37.718  1.00  0.00    -0.274 OA
HETATM    2  O2  UNK     1      34.216  -7.641  36.846  1.00  0.00    -0.259 OA
HETATM    3  C3  UNK     1      33.524  -5.381  36.547  1.00  0.00     0.024 A 
HETATM    4  C5  UNK     1      32.558  -4.456  36.733  1.00  0.00    -0.037 A 
HETATM    5  C7  UNK     1      31.338  -4.821  37.483  1.00  0.00     0.005 A 
HETATM    6  C8  UNK     1      31.199  -6.124  37.948  1.00  0.00     0.093 A 
HETATM    7  C9  UNK     1      33.362  -6.780  37.037  1.00  0.00     0.295 A 
HETATM    8  C10 UNK     1      32.636  -3.047  36.200  1.00  0.00     0.050 C 
HETATM    9  C11 UNK     1      30.298  -3.924  37.772  1.00  0.00     0.017 A 
HETATM   10  C13 UNK     1      30.079  -6.551  38.666  1.00  0.00     0.075 A 
HETATM   11  C14 UNK     1      29.058  -5.648  38.935  1.00  0.00     0.082 A 
HETATM   12  C15 UNK     1      29.168  -4.334  38.490  1.00  0.00     0.038 A 
ENDROOT
BRANCH   3  13
HETATM   13  C1  UNK     1      34.840  -5.126  35.859  1.00  0.00     0.045 C 
BRANCH  13  14
HETATM   14  C2  UNK     1      34.731  -5.149  34.338  1.00  0.00     0.005 C 
BRANCH  14  15
HETATM   15  C4  UNK     1      35.343  -6.403  33.706  1.00  0.00    -0.000 C 
BRANCH  15  16
HETATM   16  C6  UNK     1      36.552  -6.891  34.504  1.00  0.00    -0.005 C 
HETATM   17  C12 UNK     1      37.077  -8.213  33.967  1.00  0.00     0.005 C 
ENDBRANCH  15  16
ENDBRANCH  14  15
ENDBRANCH  13  14
ENDBRANCH   3  13
BRANCH  11  18
HETATM   18  O3  UNK     1      27.959  -6.044  39.633  1.00  0.00    -0.279 OA
BRANCH  18  19
HETATM   19  C16 UNK     1      26.775  -6.091  38.871  1.00  0.00     0.263 C 
HETATM   20  O4  UNK     1      26.000  -5.157  38.714  1.00  0.00    -0.265 OA
BRANCH  19  21
HETATM   21  C17 UNK     1      26.614  -7.472  38.277  1.00  0.00     0.107 C 
HETATM   22  C18 UNK     1      26.860  -8.566  39.301  1.00  0.00     0.015 C 
ENDBRANCH  19  21
ENDBRANCH  18  19
ENDBRANCH  11  18
TORSDOF 7
ENDMDL
MODEL 10
REMARK VINA RESULT:      -7.0     22.440     24.756
REMARK  7 active torsions:
REMARK  status: ('A' for Active; 'I' for Inactive)
REMARK    1  A    between atoms: C14_18  and  O3_3 
REMARK    2  A    between atoms: C16_20  and  O3_3 
REMARK    3  A    between atoms: C1_5  and  C2_6 
REMARK    4  A    between atoms: C1_5  and  C3_7 
REMARK    5  A    between atoms: C2_6  and  C4_8 
REMARK    6  A    between atoms: C4_8  and  C6_10 
REMARK    7  A    between atoms: C16_20  and  C17_21 
ROOT
HETATM    1  O1  UNK     1      11.324   5.057  10.059  1.00  0.00    -0.274 OA
HETATM    2  O2  UNK     1       9.083   4.736  10.218  1.00  0.00    -0.259 OA
HETATM    3  C3  UNK     1       9.859   5.797   8.230  1.00  0.00     0.024 A 
HETATM    4  C5  UNK     1      10.912   6.288   7.543  1.00  0.00    -0.037 A 
HETATM    5  C7  UNK     1      12.273   6.141   8.098  1.00  0.00     0.005 A 
HETATM    6  C8  UNK     1      12.432   5.531   9.339  1.00  0.00     0.093 A 
HETATM    7  C9  UNK     1      10.035   5.156   9.565  1.00  0.00     0.295 A 
HETATM    8  C10 UNK     1      10.787   7.007   6.222  1.00  0.00     0.050 C 
HETATM    9  C11 UNK     1      13.438   6.573   7.444  1.00  0.00     0.017 A 
HETATM   10  C13 UNK     1      13.683   5.353   9.935  1.00  0.00     0.075 A 
HETATM   11  C14 UNK     1      14.822   5.793   9.272  1.00  0.00     0.082 A 
HETATM   12  C15 UNK     1      14.700   6.401   8.026  1.00  0.00     0.038 A 
ENDROOT
BRANCH   3  13
HETATM   13  C1  UNK     1       8.430   5.823   7.751  1.00  0.00     0.045 C 
BRANCH  13  14
HETATM   14  C2  UNK     1       7.774   7.191   7.906  1.00  0.00     0.005 C 
BRANCH  14  15
HETATM   15  C4  UNK     1       7.733   7.682   9.356  1.00  0.00    -0.000 C 
BRANCH  15  16
HETATM   16  C6  UNK     1       6.307   7.657   9.908  1.00  0.00    -0.005 C 
HETATM   17  C12 UNK     1       6.017   6.357  10.642  1.00  0.00     0.005 C 
ENDBRANCH  15  16
ENDBRANCH  14  15
ENDBRANCH  13  14
ENDBRANCH   3  13
BRANCH  11  18
HETATM   18  O3  UNK     1      16.049   5.627   9.835  1.00  0.00    -0.279 OA
BRANCH  18  19
HETATM   19  C16 UNK     1      16.736   6.831  10.093  1.00  0.00     0.263 C 
HETATM   20  O4  UNK     1      17.800   7.157   9.587  1.00  0.00    -0.265 OA
BRANCH  19  21
HETATM   21  C17 UNK     1      15.950   7.653  11.089  1.00  0.00     0.107 C 
HETATM   22  C18 UNK     1      15.843   9.109  10.668  1.00  0.00     0.015 C 
ENDBRANCH  19  21
ENDBRANCH  18  19
ENDBRANCH  11  18
TORSDOF 7
ENDMDL
