MODEL 1
REMARK VINA RESULT:      -9.1      0.000      0.000
REMARK  5 active torsions:
REMARK  status: ('A' for Active; 'I' for Inactive)
REMARK    1  A    between atoms: C13_19  and  O2_2 
REMARK    2  A    between atoms: C5_11  and  O2_2 
REMARK    3  A    between atoms: C11_17  and  N1_5 
REMARK       I    between atoms: C9_15  and  N1_5 
REMARK    4  A    between atoms: C3_9  and  C9_15 
REMARK    5  A    between atoms: C11_17  and  C12_18 
ROOT
HETATM    1  O1  UNK     1      18.884   0.453  32.264  1.00  0.00    -0.271 OA
HETATM    2  O3  UNK     1      17.987   2.548  32.421  1.00  0.00    -0.259 OA
HETATM    3  C1  UNK     1      19.885  -0.270  30.169  1.00  0.00     0.002 A 
HETATM    4  C2  UNK     1      19.540  -0.527  31.492  1.00  0.00     0.123 A 
HETATM    5  C3  UNK     1      18.933   1.952  30.333  1.00  0.00     0.108 A 
HETATM    6  C4  UNK     1      19.556   1.026  29.596  1.00  0.00     0.037 A 
HETATM    7  C5  UNK     1      19.826  -1.746  32.102  1.00  0.00     0.103 A 
HETATM    8  C6  UNK     1      20.536  -1.266  29.437  1.00  0.00     0.014 A 
HETATM    9  C7  UNK     1      18.557   1.701  31.742  1.00  0.00     0.304 A 
HETATM   10  C8  UNK     1      20.475  -2.734  31.365  1.00  0.00     0.040 A 
HETATM   11  C10 UNK     1      20.830  -2.495  30.035  1.00  0.00     0.004 A 
ENDROOT
BRANCH   5  12
HETATM   12  C9  UNK     1      18.644   3.227  29.665  1.00  0.00     0.258 C 
HETATM   13  O4  UNK     1      18.013   3.258  28.610  1.00  0.00    -0.267 OA
HETATM   14  N1  UNK     1      19.155   4.318  30.346  1.00  0.00    -0.351 N 
HETATM   15  H7  UNK     1      19.657   4.175  31.217  1.00  0.00     0.163 HD
BRANCH  14  16
HETATM   16  C11 UNK     1      19.000   5.678  29.881  1.00  0.00     0.182 C 
BRANCH  16  17
HETATM   17  C12 UNK     1      18.433   6.545  30.971  1.00  0.00     0.051 A 
HETATM   18  N2  UNK     1      17.248   7.143  30.714  1.00  0.00    -0.264 NA
HETATM   19  C17 UNK     1      16.743   7.923  31.697  1.00  0.00     0.117 A 
HETATM   20  C18 UNK     1      17.365   8.131  32.918  1.00  0.00     0.019 A 
HETATM   21  C16 UNK     1      18.582   7.498  33.145  1.00  0.00     0.003 A 
HETATM   22  C14 UNK     1      19.134   6.689  32.157  1.00  0.00     0.029 A 
ENDBRANCH  16  17
ENDBRANCH  14  16
ENDBRANCH   5  12
BRANCH   7  23
HETATM   23  O2  UNK     1      19.482  -1.984  33.397  1.00  0.00    -0.349 OA
BRANCH  23  24
HETATM   24  C13 UNK     1      20.456  -2.626  34.220  1.00  0.00     0.171 C 
HETATM   25  C15 UNK     1      20.189  -2.270  35.667  1.00  0.00     0.034 C 
ENDBRANCH  23  24
ENDBRANCH   7  23
TORSDOF 5
ENDMDL
MODEL 2
REMARK VINA RESULT:      -8.5      3.997      9.054
REMARK  5 active torsions:
REMARK  status: ('A' for Active; 'I' for Inactive)
REMARK    1  A    between atoms: C13_19  and  O2_2 
REMARK    2  A    between atoms: C5_11  and  O2_2 
REMARK    3  A    between atoms: C11_17  and  N1_5 
REMARK       I    between atoms: C9_15  and  N1_5 
REMARK    4  A    between atoms: C3_9  and  C9_15 
REMARK    5  A    between atoms: C11_17  and  C12_18 
ROOT
HETATM    1  O1  UNK     1      18.789   0.086  32.766  1.00  0.00    -0.271 OA
HETATM    2  O3  UNK     1      18.541  -0.165  35.023  1.00  0.00    -0.259 OA
HETATM    3  C1  UNK     1      20.197  -1.466  31.533  1.00  0.00     0.002 A 
HETATM    4  C2  UNK     1      19.357  -0.358  31.555  1.00  0.00     0.123 A 
HETATM    5  C3  UNK     1      19.938  -1.734  33.926  1.00  0.00     0.108 A 
HETATM    6  C4  UNK     1      20.480  -2.159  32.780  1.00  0.00     0.037 A 
HETATM    7  C5  UNK     1      19.045   0.350  30.396  1.00  0.00     0.103 A 
HETATM    8  C6  UNK     1      20.740  -1.876  30.313  1.00  0.00     0.014 A 
HETATM    9  C7  UNK     1      19.041  -0.557  33.974  1.00  0.00     0.304 A 
HETATM   10  C8  UNK     1      19.591  -0.064  29.183  1.00  0.00     0.040 A 
HETATM   11  C10 UNK     1      20.437  -1.175  29.141  1.00  0.00     0.004 A 
ENDROOT
BRANCH   5  12
HETATM   12  C9  UNK     1      20.284  -2.498  35.131  1.00  0.00     0.258 C 
HETATM   13  O4  UNK     1      21.435  -2.512  35.561  1.00  0.00    -0.267 OA
HETATM   14  N1  UNK     1      19.199  -3.162  35.676  1.00  0.00    -0.351 N 
HETATM   15  H7  UNK     1      18.286  -3.073  35.240  1.00  0.00     0.163 HD
BRANCH  14  16
HETATM   16  C11 UNK     1      19.293  -3.982  36.863  1.00  0.00     0.182 C 
BRANCH  16  17
HETATM   17  C12 UNK     1      19.373  -5.437  36.493  1.00  0.00     0.051 A 
HETATM   18  N2  UNK     1      20.591  -5.906  36.140  1.00  0.00    -0.264 NA
HETATM   19  C17 UNK     1      20.657  -7.215  35.807  1.00  0.00     0.117 A 
HETATM   20  C18 UNK     1      19.568  -8.071  35.811  1.00  0.00     0.019 A 
HETATM   21  C16 UNK     1      18.332  -7.553  36.180  1.00  0.00     0.003 A 
HETATM   22  C14 UNK     1      18.224  -6.210  36.529  1.00  0.00     0.029 A 
ENDBRANCH  16  17
ENDBRANCH  14  16
ENDBRANCH   5  12
BRANCH   7  23
HETATM   23  O2  UNK     1      18.222   1.433  30.433  1.00  0.00    -0.349 OA
BRANCH  23  24
HETATM   24  C13 UNK     1      18.656   2.602  29.738  1.00  0.00     0.171 C 
HETATM   25  C15 UNK     1      18.747   3.752  30.719  1.00  0.00     0.034 C 
ENDBRANCH  23  24
ENDBRANCH   7  23
TORSDOF 5
ENDMDL
MODEL 3
REMARK VINA RESULT:      -8.4      2.493      4.092
REMARK  5 active torsions:
REMARK  status: ('A' for Active; 'I' for Inactive)
REMARK    1  A    between atoms: C13_19  and  O2_2 
REMARK    2  A    between atoms: C5_11  and  O2_2 
REMARK    3  A    between atoms: C11_17  and  N1_5 
REMARK       I    between atoms: C9_15  and  N1_5 
REMARK    4  A    between atoms: C3_9  and  C9_15 
REMARK    5  A    between atoms: C11_17  and  C12_18 
ROOT
HETATM    1  O1  UNK     1      18.220   1.757  32.268  1.00  0.00    -0.271 OA
HETATM    2  O3  UNK     1      18.182   3.451  30.737  1.00  0.00    -0.259 OA
HETATM    3  C1  UNK     1      18.353   2.283  34.638  1.00  0.00     0.002 A 
HETATM    4  C2  UNK     1      18.278   1.344  33.614  1.00  0.00     0.123 A 
HETATM    5  C3  UNK     1      18.316   4.082  33.017  1.00  0.00     0.108 A 
HETATM    6  C4  UNK     1      18.372   3.697  34.296  1.00  0.00     0.037 A 
HETATM    7  C5  UNK     1      18.256  -0.025  33.873  1.00  0.00     0.103 A 
HETATM    8  C6  UNK     1      18.409   1.835  35.960  1.00  0.00     0.014 A 
HETATM    9  C7  UNK     1      18.234   3.101  31.911  1.00  0.00     0.304 A 
HETATM   10  C8  UNK     1      18.313  -0.463  35.194  1.00  0.00     0.040 A 
HETATM   11  C10 UNK     1      18.389   0.465  36.236  1.00  0.00     0.004 A 
ENDROOT
BRANCH   5  12
HETATM   12  C9  UNK     1      18.340   5.530  32.773  1.00  0.00     0.258 C 
HETATM   13  O4  UNK     1      19.193   6.244  33.297  1.00  0.00    -0.267 OA
HETATM   14  N1  UNK     1      17.329   5.950  31.928  1.00  0.00    -0.351 N 
HETATM   15  H7  UNK     1      16.681   5.268  31.545  1.00  0.00     0.163 HD
BRANCH  14  16
HETATM   16  C11 UNK     1      17.148   7.332  31.543  1.00  0.00     0.182 C 
BRANCH  16  17
HETATM   17  C12 UNK     1      16.213   8.025  32.495  1.00  0.00     0.051 A 
HETATM   18  N2  UNK     1      16.502   9.310  32.800  1.00  0.00    -0.264 NA
HETATM   19  C17 UNK     1      15.658   9.927  33.658  1.00  0.00     0.117 A 
HETATM   20  C18 UNK     1      14.546   9.324  34.221  1.00  0.00     0.019 A 
HETATM   21  C16 UNK     1      14.281   8.001  33.883  1.00  0.00     0.003 A 
HETATM   22  C14 UNK     1      15.126   7.331  33.005  1.00  0.00     0.029 A 
ENDBRANCH  16  17
ENDBRANCH  14  16
ENDBRANCH   5  12
BRANCH   7  23
HETATM   23  O2  UNK     1      18.183  -0.931  32.862  1.00  0.00    -0.349 OA
BRANCH  23  24
HETATM   24  C13 UNK     1      19.381  -1.634  32.531  1.00  0.00     0.171 C 
HETATM   25  C15 UNK     1      19.898  -1.127  31.201  1.00  0.00     0.034 C 
ENDBRANCH  23  24
ENDBRANCH   7  23
TORSDOF 5
ENDMDL
MODEL 4
REMARK VINA RESULT:      -8.3      3.835      8.874
REMARK  5 active torsions:
REMARK  status: ('A' for Active; 'I' for Inactive)
REMARK    1  A    between atoms: C13_19  and  O2_2 
REMARK    2  A    between atoms: C5_11  and  O2_2 
REMARK    3  A    between atoms: C11_17  and  N1_5 
REMARK       I    between atoms: C9_15  and  N1_5 
REMARK    4  A    between atoms: C3_9  and  C9_15 
REMARK    5  A    between atoms: C11_17  and  C12_18 
ROOT
HETATM    1  O1  UNK     1      16.826   7.886  32.872  1.00  0.00    -0.271 OA
HETATM    2  O3  UNK     1      15.816   6.016  32.034  1.00  0.00    -0.259 OA
HETATM    3  C1  UNK     1      19.150   7.781  33.579  1.00  0.00     0.002 A 
HETATM    4  C2  UNK     1      17.974   8.504  33.406  1.00  0.00     0.123 A 
HETATM    5  C3  UNK     1      18.081   5.796  32.692  1.00  0.00     0.108 A 
HETATM    6  C4  UNK     1      19.174   6.377  33.199  1.00  0.00     0.037 A 
HETATM    7  C5  UNK     1      17.884   9.852  33.749  1.00  0.00     0.103 A 
HETATM    8  C6  UNK     1      20.268   8.428  34.110  1.00  0.00     0.014 A 
HETATM    9  C7  UNK     1      16.820   6.546  32.499  1.00  0.00     0.304 A 
HETATM   10  C8  UNK     1      19.003  10.490  34.279  1.00  0.00     0.040 A 
HETATM   11  C10 UNK     1      20.193   9.780  34.460  1.00  0.00     0.004 A 
ENDROOT
BRANCH   5  12
HETATM   12  C9  UNK     1      18.205   4.376  32.341  1.00  0.00     0.258 C 
HETATM   13  O4  UNK     1      18.395   4.028  31.177  1.00  0.00    -0.267 OA
HETATM   14  N1  UNK     1      18.081   3.538  33.435  1.00  0.00    -0.351 N 
HETATM   15  H7  UNK     1      17.932   3.937  34.357  1.00  0.00     0.163 HD
BRANCH  14  16
HETATM   16  C11 UNK     1      18.165   2.098  33.337  1.00  0.00     0.182 C 
BRANCH  16  17
HETATM   17  C12 UNK     1      17.590   1.453  34.568  1.00  0.00     0.051 A 
HETATM   18  N2  UNK     1      16.474   0.709  34.397  1.00  0.00    -0.264 NA
HETATM   19  C17 UNK     1      15.962   0.132  35.508  1.00  0.00     0.117 A 
HETATM   20  C18 UNK     1      16.509   0.264  36.773  1.00  0.00     0.019 A 
HETATM   21  C16 UNK     1      17.657   1.037  36.909  1.00  0.00     0.003 A 
HETATM   22  C14 UNK     1      18.214   1.648  35.790  1.00  0.00     0.029 A 
ENDBRANCH  16  17
ENDBRANCH  14  16
ENDBRANCH   5  12
BRANCH   7  23
HETATM   23  O2  UNK     1      16.727  10.546  33.575  1.00  0.00    -0.349 OA
BRANCH  23  24
HETATM   24  C13 UNK     1      15.994  10.890  34.751  1.00  0.00     0.171 C 
HETATM   25  C15 UNK     1      14.772  10.000  34.847  1.00  0.00     0.034 C 
ENDBRANCH  23  24
ENDBRANCH   7  23
TORSDOF 5
ENDMDL
MODEL 5
REMARK VINA RESULT:      -8.3     16.158     18.436
REMARK  5 active torsions:
REMARK  status: ('A' for Active; 'I' for Inactive)
REMARK    1  A    between atoms: C13_19  and  O2_2 
REMARK    2  A    between atoms: C5_11  and  O2_2 
REMARK    3  A    between atoms: C11_17  and  N1_5 
REMARK       I    between atoms: C9_15  and  N1_5 
REMARK    4  A    between atoms: C3_9  and  C9_15 
REMARK    5  A    between atoms: C11_17  and  C12_18 
ROOT
HETATM    1  O1  UNK     1      18.363  -4.196  12.843  1.00  0.00    -0.271 OA
HETATM    2  O3  UNK     1      17.780  -4.325  15.048  1.00  0.00    -0.259 OA
HETATM    3  C1  UNK     1      20.198  -2.751  12.169  1.00  0.00     0.002 A 
HETATM    4  C2  UNK     1      19.195  -3.657  11.842  1.00  0.00     0.123 A 
HETATM    5  C3  UNK     1      19.581  -2.884  14.508  1.00  0.00     0.108 A 
HETATM    6  C4  UNK     1      20.373  -2.369  13.562  1.00  0.00     0.037 A 
HETATM    7  C5  UNK     1      18.974  -4.065  10.528  1.00  0.00     0.103 A 
HETATM    8  C6  UNK     1      21.003  -2.239  11.149  1.00  0.00     0.014 A 
HETATM    9  C7  UNK     1      18.508  -3.850  14.183  1.00  0.00     0.304 A 
HETATM   10  C8  UNK     1      19.781  -3.550   9.516  1.00  0.00     0.040 A 
HETATM   11  C10 UNK     1      20.794  -2.638   9.825  1.00  0.00     0.004 A 
ENDROOT
BRANCH   5  12
HETATM   12  C9  UNK     1      19.836  -2.436  15.883  1.00  0.00     0.258 C 
HETATM   13  O4  UNK     1      20.794  -2.869  16.520  1.00  0.00    -0.267 OA
HETATM   14  N1  UNK     1      18.901  -1.520  16.331  1.00  0.00    -0.351 N 
HETATM   15  H7  UNK     1      18.151  -1.226  15.714  1.00  0.00     0.163 HD
BRANCH  14  16
HETATM   16  C11 UNK     1      18.942  -0.938  17.654  1.00  0.00     0.182 C 
BRANCH  16  17
HETATM   17  C12 UNK     1      19.077   0.557  17.568  1.00  0.00     0.051 A 
HETATM   18  N2  UNK     1      19.274   1.077  16.336  1.00  0.00    -0.264 NA
HETATM   19  C17 UNK     1      19.396   2.422  16.265  1.00  0.00     0.117 A 
HETATM   20  C18 UNK     1      19.331   3.266  17.361  1.00  0.00     0.019 A 
HETATM   21  C16 UNK     1      19.127   2.694  18.612  1.00  0.00     0.003 A 
HETATM   22  C14 UNK     1      18.997   1.313  18.727  1.00  0.00     0.029 A 
ENDBRANCH  16  17
ENDBRANCH  14  16
ENDBRANCH   5  12
BRANCH   7  23
HETATM   23  O2  UNK     1      17.989  -4.952  10.222  1.00  0.00    -0.349 OA
BRANCH  23  24
HETATM   24  C13 UNK     1      18.391  -6.202   9.662  1.00  0.00     0.171 C 
HETATM   25  C15 UNK     1      18.579  -7.205  10.781  1.00  0.00     0.034 C 
ENDBRANCH  23  24
ENDBRANCH   7  23
TORSDOF 5
ENDMDL
MODEL 6
REMARK VINA RESULT:      -8.2     16.159     18.532
REMARK  5 active torsions:
REMARK  status: ('A' for Active; 'I' for Inactive)
REMARK    1  A    between atoms: C13_19  and  O2_2 
REMARK    2  A    between atoms: C5_11  and  O2_2 
REMARK    3  A    between atoms: C11_17  and  N1_5 
REMARK       I    between atoms: C9_15  and  N1_5 
REMARK    4  A    between atoms: C3_9  and  C9_15 
REMARK    5  A    between atoms: C11_17  and  C12_18 
ROOT
HETATM    1  O1  UNK     1      20.143  -1.682  12.195  1.00  0.00    -0.271 OA
HETATM    2  O3  UNK     1      19.817  -0.201  13.903  1.00  0.00    -0.259 OA
HETATM    3  C1  UNK     1      19.267  -3.942  12.381  1.00  0.00     0.002 A 
HETATM    4  C2  UNK     1      19.957  -2.973  11.661  1.00  0.00     0.123 A 
HETATM    5  C3  UNK     1      18.921  -2.375  14.195  1.00  0.00     0.108 A 
HETATM    6  C4  UNK     1      18.742  -3.602  13.694  1.00  0.00     0.037 A 
HETATM    7  C5  UNK     1      20.486  -3.233  10.398  1.00  0.00     0.103 A 
HETATM    8  C6  UNK     1      19.103  -5.210  11.818  1.00  0.00     0.014 A 
HETATM    9  C7  UNK     1      19.651  -1.327  13.447  1.00  0.00     0.304 A 
HETATM   10  C8  UNK     1      20.318  -4.500   9.844  1.00  0.00     0.040 A 
HETATM   11  C10 UNK     1      19.628  -5.487  10.553  1.00  0.00     0.004 A 
ENDROOT
BRANCH   5  12
HETATM   12  C9  UNK     1      18.354  -2.129  15.527  1.00  0.00     0.258 C 
HETATM   13  O4  UNK     1      17.239  -2.551  15.827  1.00  0.00    -0.267 OA
HETATM   14  N1  UNK     1      19.198  -1.397  16.343  1.00  0.00    -0.351 N 
HETATM   15  H7  UNK     1      20.105  -1.104  15.993  1.00  0.00     0.163 HD
BRANCH  14  16
HETATM   16  C11 UNK     1      18.857  -1.028  17.699  1.00  0.00     0.182 C 
BRANCH  16  17
HETATM   17  C12 UNK     1      18.978   0.459  17.886  1.00  0.00     0.051 A 
HETATM   18  N2  UNK     1      19.166   1.198  16.769  1.00  0.00    -0.264 NA
HETATM   19  C17 UNK     1      19.275   2.534  16.944  1.00  0.00     0.117 A 
HETATM   20  C18 UNK     1      19.207   3.163  18.176  1.00  0.00     0.019 A 
HETATM   21  C16 UNK     1      19.013   2.371  19.302  1.00  0.00     0.003 A 
HETATM   22  C14 UNK     1      18.897   0.991  19.163  1.00  0.00     0.029 A 
ENDBRANCH  16  17
ENDBRANCH  14  16
ENDBRANCH   5  12
BRANCH   7  23
HETATM   23  O2  UNK     1      21.159  -2.275   9.706  1.00  0.00    -0.349 OA
BRANCH  23  24
HETATM   24  C13 UNK     1      21.611  -2.618   8.396  1.00  0.00     0.171 C 
HETATM   25  C15 UNK     1      23.123  -2.708   8.404  1.00  0.00     0.034 C 
ENDBRANCH  23  24
ENDBRANCH   7  23
TORSDOF 5
ENDMDL
MODEL 7
REMARK VINA RESULT:      -8.1     22.622     24.981
REMARK  5 active torsions:
REMARK  status: ('A' for Active; 'I' for Inactive)
REMARK    1  A    between atoms: C13_19  and  O2_2 
REMARK    2  A    between atoms: C5_11  and  O2_2 
REMARK    3  A    between atoms: C11_17  and  N1_5 
REMARK       I    between atoms: C9_15  and  N1_5 
REMARK    4  A    between atoms: C3_9  and  C9_15 
REMARK    5  A    between atoms: C11_17  and  C12_18 
ROOT
HETATM    1  O1  UNK     1      16.948   8.880   9.969  1.00  0.00    -0.271 OA
HETATM    2  O3  UNK     1      16.239   6.895  10.847  1.00  0.00    -0.259 OA
HETATM    3  C1  UNK     1      15.493  10.116   8.463  1.00  0.00     0.002 A 
HETATM    4  C2  UNK     1      16.698   9.998   9.147  1.00  0.00     0.123 A 
HETATM    5  C3  UNK     1      14.738   8.009   9.391  1.00  0.00     0.108 A 
HETATM    6  C4  UNK     1      14.496   9.067   8.610  1.00  0.00     0.037 A 
HETATM    7  C5  UNK     1      17.695  10.966   9.051  1.00  0.00     0.103 A 
HETATM    8  C6  UNK     1      15.282  11.238   7.659  1.00  0.00     0.014 A 
HETATM    9  C7  UNK     1      16.013   7.863  10.129  1.00  0.00     0.304 A 
HETATM   10  C8  UNK     1      17.477  12.082   8.247  1.00  0.00     0.040 A 
HETATM   11  C10 UNK     1      16.273  12.219   7.552  1.00  0.00     0.004 A 
ENDROOT
BRANCH   5  12
HETATM   12  C9  UNK     1      13.671   7.005   9.474  1.00  0.00     0.258 C 
HETATM   13  O4  UNK     1      12.905   6.975  10.435  1.00  0.00    -0.267 OA
HETATM   14  N1  UNK     1      13.653   6.149   8.387  1.00  0.00    -0.351 N 
HETATM   15  H7  UNK     1      14.333   6.270   7.642  1.00  0.00     0.163 HD
BRANCH  14  16
HETATM   16  C11 UNK     1      12.695   5.076   8.246  1.00  0.00     0.182 C 
BRANCH  16  17
HETATM   17  C12 UNK     1      11.439   5.575   7.588  1.00  0.00     0.051 A 
HETATM   18  N2  UNK     1      10.301   5.496   8.314  1.00  0.00    -0.264 NA
HETATM   19  C17 UNK     1       9.175   5.946   7.717  1.00  0.00     0.117 A 
HETATM   20  C18 UNK     1       9.133   6.468   6.435  1.00  0.00     0.019 A 
HETATM   21  C16 UNK     1      10.322   6.533   5.718  1.00  0.00     0.003 A 
HETATM   22  C14 UNK     1      11.503   6.080   6.299  1.00  0.00     0.029 A 
ENDBRANCH  16  17
ENDBRANCH  14  16
ENDBRANCH   5  12
BRANCH   7  23
HETATM   23  O2  UNK     1      18.870  10.837   9.725  1.00  0.00    -0.349 OA
BRANCH  23  24
HETATM   24  C13 UNK     1      19.767  11.947   9.686  1.00  0.00     0.171 C 
HETATM   25  C15 UNK     1      20.814  11.773  10.766  1.00  0.00     0.034 C 
ENDBRANCH  23  24
ENDBRANCH   7  23
TORSDOF 5
ENDMDL
MODEL 8
REMARK VINA RESULT:      -8.0      5.969      9.820
REMARK  5 active torsions:
REMARK  status: ('A' for Active; 'I' for Inactive)
REMARK    1  A    between atoms: C13_19  and  O2_2 
REMARK    2  A    between atoms: C5_11  and  O2_2 
REMARK    3  A    between atoms: C11_17  and  N1_5 
REMARK       I    between atoms: C9_15  and  N1_5 
REMARK    4  A    between atoms: C3_9  and  C9_15 
REMARK    5  A    between atoms: C11_17  and  C12_18 
ROOT
HETATM    1  O1  UNK     1      20.219  -7.528  36.003  1.00  0.00    -0.271 OA
HETATM    2  O3  UNK     1      20.310  -5.728  34.601  1.00  0.00    -0.259 OA
HETATM    3  C1  UNK     1      20.081  -7.174  38.404  1.00  0.00     0.002 A 
HETATM    4  C2  UNK     1      20.140  -8.037  37.315  1.00  0.00     0.123 A 
HETATM    5  C3  UNK     1      20.180  -5.263  36.920  1.00  0.00     0.108 A 
HETATM    6  C4  UNK     1      20.105  -5.739  38.167  1.00  0.00     0.037 A 
HETATM    7  C5  UNK     1      20.121  -9.421  37.472  1.00  0.00     0.103 A 
HETATM    8  C6  UNK     1      20.003  -7.716  39.689  1.00  0.00     0.014 A 
HETATM    9  C7  UNK     1      20.242  -6.161  35.746  1.00  0.00     0.304 A 
HETATM   10  C8  UNK     1      20.043  -9.954  38.757  1.00  0.00     0.040 A 
HETATM   11  C10 UNK     1      19.984  -9.103  39.864  1.00  0.00     0.004 A 
ENDROOT
BRANCH   5  12
HETATM   12  C9  UNK     1      20.198  -3.801  36.784  1.00  0.00     0.258 C 
HETATM   13  O4  UNK     1      20.812  -3.100  37.585  1.00  0.00    -0.267 OA
HETATM   14  N1  UNK     1      19.468  -3.353  35.697  1.00  0.00    -0.351 N 
HETATM   15  H7  UNK     1      19.004  -4.026  35.094  1.00  0.00     0.163 HD
BRANCH  14  16
HETATM   16  C11 UNK     1      19.336  -1.954  35.360  1.00  0.00     0.182 C 
BRANCH  16  17
HETATM   17  C12 UNK     1      19.611  -1.736  33.898  1.00  0.00     0.051 A 
HETATM   18  N2  UNK     1      20.638  -2.435  33.364  1.00  0.00    -0.264 NA
HETATM   19  C17 UNK     1      20.881  -2.234  32.049  1.00  0.00     0.117 A 
HETATM   20  C18 UNK     1      20.150  -1.373  31.248  1.00  0.00     0.019 A 
HETATM   21  C16 UNK     1      19.101  -0.672  31.832  1.00  0.00     0.003 A 
HETATM   22  C14 UNK     1      18.820  -0.851  33.183  1.00  0.00     0.029 A 
ENDBRANCH  16  17
ENDBRANCH  14  16
ENDBRANCH   5  12
BRANCH   7  23
HETATM   23  O2  UNK     1      20.179 -10.253  36.397  1.00  0.00    -0.349 OA
BRANCH  23  24
HETATM   24  C13 UNK     1      21.369 -11.025  36.236  1.00  0.00     0.171 C 
HETATM   25  C15 UNK     1      22.097 -10.555  34.994  1.00  0.00     0.034 C 
ENDBRANCH  23  24
ENDBRANCH   7  23
TORSDOF 5
ENDMDL
MODEL 9
REMARK VINA RESULT:      -8.0      3.732      9.160
REMARK  5 active torsions:
REMARK  status: ('A' for Active; 'I' for Inactive)
REMARK    1  A    between atoms: C13_19  and  O2_2 
REMARK    2  A    between atoms: C5_11  and  O2_2 
REMARK    3  A    between atoms: C11_17  and  N1_5 
REMARK       I    between atoms: C9_15  and  N1_5 
REMARK    4  A    between atoms: C3_9  and  C9_15 
REMARK    5  A    between atoms: C11_17  and  C12_18 
ROOT
HETATM    1  O1  UNK     1      18.546   8.117  33.152  1.00  0.00    -0.271 OA
HETATM    2  O3  UNK     1      20.168   6.545  32.815  1.00  0.00    -0.259 OA
HETATM    3  C1  UNK     1      16.207   7.504  32.894  1.00  0.00     0.002 A 
HETATM    4  C2  UNK     1      17.179   8.457  33.182  1.00  0.00     0.123 A 
HETATM    5  C3  UNK     1      17.926   5.834  32.534  1.00  0.00     0.108 A 
HETATM    6  C4  UNK     1      16.626   6.151  32.560  1.00  0.00     0.037 A 
HETATM    7  C5  UNK     1      16.845   9.769  33.510  1.00  0.00     0.103 A 
HETATM    8  C6  UNK     1      14.862   7.878  32.935  1.00  0.00     0.014 A 
HETATM    9  C7  UNK     1      18.976   6.832  32.838  1.00  0.00     0.304 A 
HETATM   10  C8  UNK     1      15.502  10.135  33.548  1.00  0.00     0.040 A 
HETATM   11  C10 UNK     1      14.512   9.192  33.261  1.00  0.00     0.004 A 
ENDROOT
BRANCH   5  12
HETATM   12  C9  UNK     1      18.248   4.445  32.186  1.00  0.00     0.258 C 
HETATM   13  O4  UNK     1      18.687   4.158  31.074  1.00  0.00    -0.267 OA
HETATM   14  N1  UNK     1      17.999   3.561  33.220  1.00  0.00    -0.351 N 
HETATM   15  H7  UNK     1      17.641   3.911  34.104  1.00  0.00     0.163 HD
BRANCH  14  16
HETATM   16  C11 UNK     1      18.235   2.138  33.114  1.00  0.00     0.182 C 
BRANCH  16  17
HETATM   17  C12 UNK     1      17.724   1.427  34.336  1.00  0.00     0.051 A 
HETATM   18  N2  UNK     1      16.564   0.746  34.200  1.00  0.00    -0.264 NA
HETATM   19  C17 UNK     1      16.109   0.109  35.303  1.00  0.00     0.117 A 
HETATM   20  C18 UNK     1      16.757   0.121  36.527  1.00  0.00     0.019 A 
HETATM   21  C16 UNK     1      17.948   0.831  36.628  1.00  0.00     0.003 A 
HETATM   22  C14 UNK     1      18.448   1.501  35.516  1.00  0.00     0.029 A 
ENDBRANCH  16  17
ENDBRANCH  14  16
ENDBRANCH   5  12
BRANCH   7  23
HETATM   23  O2  UNK     1      17.806  10.691  33.789  1.00  0.00    -0.349 OA
BRANCH  23  24
HETATM   24  C13 UNK     1      17.366  11.974  34.234  1.00  0.00     0.171 C 
HETATM   25  C15 UNK     1      18.259  13.038  33.631  1.00  0.00     0.034 C 
ENDBRANCH  23  24
ENDBRANCH   7  23
TORSDOF 5
ENDMDL
MODEL 10
REMARK VINA RESULT:      -8.0     23.146     24.881
REMARK  5 active torsions:
REMARK  status: ('A' for Active; 'I' for Inactive)
REMARK    1  A    between atoms: C13_19  and  O2_2 
REMARK    2  A    between atoms: C5_11  and  O2_2 
REMARK    3  A    between atoms: C11_17  and  N1_5 
REMARK       I    between atoms: C9_15  and  N1_5 
REMARK    4  A    between atoms: C3_9  and  C9_15 
REMARK    5  A    between atoms: C11_17  and  C12_18 
ROOT
HETATM    1  O1  UNK     1      11.187   7.373   9.618  1.00  0.00    -0.271 OA
HETATM    2  O3  UNK     1      12.799   7.928  11.138  1.00  0.00    -0.259 OA
HETATM    3  C1  UNK     1      11.835   6.696   7.374  1.00  0.00     0.002 A 
HETATM    4  C2  UNK     1      10.845   6.947   8.318  1.00  0.00     0.123 A 
HETATM    5  C3  UNK     1      13.547   7.285   8.984  1.00  0.00     0.108 A 
HETATM    6  C4  UNK     1      13.228   6.881   7.750  1.00  0.00     0.037 A 
HETATM    7  C5  UNK     1       9.492   6.790   8.024  1.00  0.00     0.103 A 
HETATM    8  C6  UNK     1      11.457   6.274   6.097  1.00  0.00     0.014 A 
HETATM    9  C7  UNK     1      12.510   7.558  10.005  1.00  0.00     0.304 A 
HETATM   10  C8  UNK     1       9.123   6.370   6.748  1.00  0.00     0.040 A 
HETATM   11  C10 UNK     1      10.104   6.112   5.786  1.00  0.00     0.004 A 
ENDROOT
BRANCH   5  12
HETATM   12  C9  UNK     1      14.979   7.442   9.267  1.00  0.00     0.258 C 
HETATM   13  O4  UNK     1      15.722   6.465   9.326  1.00  0.00    -0.267 OA
HETATM   14  N1  UNK     1      15.348   8.763   9.449  1.00  0.00    -0.351 N 
HETATM   15  H7  UNK     1      14.649   9.495   9.369  1.00  0.00     0.163 HD
BRANCH  14  16
HETATM   16  C11 UNK     1      16.705   9.167   9.741  1.00  0.00     0.182 C 
BRANCH  16  17
HETATM   17  C12 UNK     1      17.109  10.325   8.870  1.00  0.00     0.051 A 
HETATM   18  N2  UNK     1      18.433  10.581   8.778  1.00  0.00    -0.264 NA
HETATM   19  C17 UNK     1      18.790  11.624   7.995  1.00  0.00     0.117 A 
HETATM   20  C18 UNK     1      17.890  12.417   7.302  1.00  0.00     0.019 A 
HETATM   21  C16 UNK     1      16.536  12.122   7.421  1.00  0.00     0.003 A 
HETATM   22  C14 UNK     1      16.129  11.057   8.219  1.00  0.00     0.029 A 
ENDBRANCH  16  17
ENDBRANCH  14  16
ENDBRANCH   5  12
BRANCH   7  23
HETATM   23  O2  UNK     1       8.535   7.040   8.957  1.00  0.00    -0.349 OA
BRANCH  23  24
HETATM   24  C13 UNK     1       7.617   5.986   9.245  1.00  0.00     0.171 C 
HETATM   25  C15 UNK     1       8.333   4.910  10.033  1.00  0.00     0.034 C 
ENDBRANCH  23  24
ENDBRANCH   7  23
TORSDOF 5
ENDMDL
