MODEL 1
REMARK VINA RESULT:      -8.1      0.000      0.000
REMARK  2 active torsions:
REMARK  status: ('A' for Active; 'I' for Inactive)
REMARK    1  A    between atoms: C13_16  and  O3_3 
REMARK    2  A    between atoms: C1_4  and  C3_6 
ROOT
HETATM    1  O1  UNK     1      19.263   2.113  31.272  1.00  0.00    -0.340 OA
HETATM    2  O2  UNK     1      17.637   1.958  27.508  1.00  0.00    -0.292 OA
HETATM    3  C1  UNK     1      18.981   3.319  30.544  1.00  0.00     0.169 C 
HETATM    4  C2  UNK     1      17.797   3.124  29.599  1.00  0.00     0.121 C 
HETATM    5  C4  UNK     1      18.114   2.010  28.636  1.00  0.00     0.165 C 
HETATM    6  C5  UNK     1      18.984   0.934  29.155  1.00  0.00     0.043 A 
HETATM    7  C6  UNK     1      19.492   1.037  30.454  1.00  0.00     0.083 A 
HETATM    8  C9  UNK     1      19.261  -0.191  28.375  1.00  0.00     0.018 A 
HETATM    9  C10 UNK     1      20.251  -0.006  30.985  1.00  0.00     0.038 A 
HETATM   10  C14 UNK     1      20.039  -1.222  28.906  1.00  0.00     0.001 A 
HETATM   11  C15 UNK     1      20.528  -1.132  30.209  1.00  0.00     0.003 A 
ENDROOT
BRANCH   3  12
HETATM   12  C3  UNK     1      18.708   4.426  31.540  1.00  0.00    -0.028 A 
HETATM   13  C8  UNK     1      19.017   5.747  31.215  1.00  0.00     0.012 A 
HETATM   14  C12 UNK     1      18.767   6.767  32.133  1.00  0.00     0.037 A 
HETATM   15  C13 UNK     1      18.208   6.466  33.374  1.00  0.00     0.068 A 
HETATM   16  C11 UNK     1      17.899   5.146  33.699  1.00  0.00     0.037 A 
HETATM   17  C7  UNK     1      18.149   4.125  32.782  1.00  0.00     0.012 A 
BRANCH  15  18
HETATM   18  O3  UNK     1      17.962   7.462  34.271  1.00  0.00    -0.356 OA
HETATM   19  C16 UNK     1      16.720   7.411  34.971  1.00  0.00     0.210 C 
ENDBRANCH  15  18
ENDBRANCH   3  12
TORSDOF 2
ENDMDL
MODEL 2
REMARK VINA RESULT:      -8.0      1.444      1.771
REMARK  2 active torsions:
REMARK  status: ('A' for Active; 'I' for Inactive)
REMARK    1  A    between atoms: C13_16  and  O3_3 
REMARK    2  A    between atoms: C1_4  and  C3_6 
ROOT
HETATM    1  O1  UNK     1      19.277   1.421  31.322  1.00  0.00    -0.340 OA
HETATM    2  O2  UNK     1      18.873   0.051  27.476  1.00  0.00    -0.292 OA
HETATM    3  C1  UNK     1      19.328   2.329  30.210  1.00  0.00     0.169 C 
HETATM    4  C2  UNK     1      18.479   1.820  29.047  1.00  0.00     0.121 C 
HETATM    5  C4  UNK     1      18.985   0.467  28.623  1.00  0.00     0.165 C 
HETATM    6  C5  UNK     1      19.565  -0.372  29.694  1.00  0.00     0.043 A 
HETATM    7  C6  UNK     1      19.657   0.147  30.989  1.00  0.00     0.083 A 
HETATM    8  C9  UNK     1      19.976  -1.679  29.425  1.00  0.00     0.018 A 
HETATM    9  C10 UNK     1      20.131  -0.658  32.025  1.00  0.00     0.038 A 
HETATM   10  C14 UNK     1      20.468  -2.472  30.463  1.00  0.00     0.001 A 
HETATM   11  C15 UNK     1      20.541  -1.965  31.760  1.00  0.00     0.003 A 
ENDROOT
BRANCH   3  12
HETATM   12  C3  UNK     1      18.854   3.688  30.679  1.00  0.00    -0.028 A 
HETATM   13  C8  UNK     1      19.163   4.828  29.938  1.00  0.00     0.012 A 
HETATM   14  C12 UNK     1      18.727   6.080  30.371  1.00  0.00     0.037 A 
HETATM   15  C13 UNK     1      17.982   6.192  31.544  1.00  0.00     0.068 A 
HETATM   16  C11 UNK     1      17.672   5.052  32.285  1.00  0.00     0.037 A 
HETATM   17  C7  UNK     1      18.108   3.799  31.852  1.00  0.00     0.012 A 
BRANCH  15  18
HETATM   18  O3  UNK     1      17.554   7.414  31.967  1.00  0.00    -0.356 OA
HETATM   19  C16 UNK     1      16.228   7.797  31.605  1.00  0.00     0.210 C 
ENDBRANCH  15  18
ENDBRANCH   3  12
TORSDOF 2
ENDMDL
MODEL 3
REMARK VINA RESULT:      -7.6      4.175      5.727
REMARK  2 active torsions:
REMARK  status: ('A' for Active; 'I' for Inactive)
REMARK    1  A    between atoms: C13_16  and  O3_3 
REMARK    2  A    between atoms: C1_4  and  C3_6 
ROOT
HETATM    1  O1  UNK     1      19.159  -0.005  32.526  1.00  0.00    -0.340 OA
HETATM    2  O2  UNK     1      21.075  -3.482  31.494  1.00  0.00    -0.292 OA
HETATM    3  C1  UNK     1      18.991  -1.197  33.311  1.00  0.00     0.169 C 
HETATM    4  C2  UNK     1      20.238  -2.075  33.247  1.00  0.00     0.121 C 
HETATM    5  C4  UNK     1      20.508  -2.443  31.812  1.00  0.00     0.165 C 
HETATM    6  C5  UNK     1      20.112  -1.441  30.801  1.00  0.00     0.043 A 
HETATM    7  C6  UNK     1      19.478  -0.267  31.220  1.00  0.00     0.083 A 
HETATM    8  C9  UNK     1      20.404  -1.643  29.450  1.00  0.00     0.018 A 
HETATM    9  C10 UNK     1      19.167   0.723  30.287  1.00  0.00     0.038 A 
HETATM   10  C14 UNK     1      20.071  -0.657  28.519  1.00  0.00     0.001 A 
HETATM   11  C15 UNK     1      19.459   0.524  28.937  1.00  0.00     0.003 A 
ENDROOT
BRANCH   3  12
HETATM   12  C3  UNK     1      18.680  -0.792  34.736  1.00  0.00    -0.028 A 
HETATM   13  C8  UNK     1      18.753  -1.736  35.760  1.00  0.00     0.012 A 
HETATM   14  C12 UNK     1      18.465  -1.363  37.073  1.00  0.00     0.037 A 
HETATM   15  C13 UNK     1      18.106  -0.047  37.362  1.00  0.00     0.068 A 
HETATM   16  C11 UNK     1      18.035   0.897  36.338  1.00  0.00     0.037 A 
HETATM   17  C7  UNK     1      18.321   0.525  35.025  1.00  0.00     0.012 A 
BRANCH  15  18
HETATM   18  O3  UNK     1      17.827   0.318  38.644  1.00  0.00    -0.356 OA
HETATM   19  C16 UNK     1      17.676   1.713  38.902  1.00  0.00     0.210 C 
ENDBRANCH  15  18
ENDBRANCH   3  12
TORSDOF 2
ENDMDL
MODEL 4
REMARK VINA RESULT:      -7.6      2.095      8.063
REMARK  2 active torsions:
REMARK  status: ('A' for Active; 'I' for Inactive)
REMARK    1  A    between atoms: C13_16  and  O3_3 
REMARK    2  A    between atoms: C1_4  and  C3_6 
ROOT
HETATM    1  O1  UNK     1      17.113   7.312  32.649  1.00  0.00    -0.340 OA
HETATM    2  O2  UNK     1      20.281   9.092  34.552  1.00  0.00    -0.292 OA
HETATM    3  C1  UNK     1      18.464   6.970  32.301  1.00  0.00     0.169 C 
HETATM    4  C2  UNK     1      19.396   7.126  33.502  1.00  0.00     0.121 C 
HETATM    5  C4  UNK     1      19.339   8.550  33.988  1.00  0.00     0.165 C 
HETATM    6  C5  UNK     1      18.046   9.244  33.808  1.00  0.00     0.043 A 
HETATM    7  C6  UNK     1      16.998   8.575  33.168  1.00  0.00     0.083 A 
HETATM    8  C9  UNK     1      17.859  10.535  34.309  1.00  0.00     0.018 A 
HETATM    9  C10 UNK     1      15.749   9.188  33.059  1.00  0.00     0.038 A 
HETATM   10  C14 UNK     1      16.612  11.149  34.179  1.00  0.00     0.001 A 
HETATM   11  C15 UNK     1      15.559  10.476  33.560  1.00  0.00     0.003 A 
ENDROOT
BRANCH   3  12
HETATM   12  C3  UNK     1      18.480   5.549  31.779  1.00  0.00    -0.028 A 
HETATM   13  C8  UNK     1      18.063   4.502  32.599  1.00  0.00     0.012 A 
HETATM   14  C12 UNK     1      18.078   3.192  32.118  1.00  0.00     0.037 A 
HETATM   15  C13 UNK     1      18.509   2.932  30.817  1.00  0.00     0.068 A 
HETATM   16  C11 UNK     1      18.925   3.980  29.997  1.00  0.00     0.037 A 
HETATM   17  C7  UNK     1      18.910   5.290  30.478  1.00  0.00     0.012 A 
BRANCH  15  18
HETATM   18  O3  UNK     1      18.523   1.654  30.346  1.00  0.00    -0.356 OA
HETATM   19  C16 UNK     1      18.127   1.460  28.989  1.00  0.00     0.210 C 
ENDBRANCH  15  18
ENDBRANCH   3  12
TORSDOF 2
ENDMDL
MODEL 5
REMARK VINA RESULT:      -7.5     12.674     16.889
REMARK  2 active torsions:
REMARK  status: ('A' for Active; 'I' for Inactive)
REMARK    1  A    between atoms: C13_16  and  O3_3 
REMARK    2  A    between atoms: C1_4  and  C3_6 
ROOT
HETATM    1  O1  UNK     1      19.188  -1.043  17.334  1.00  0.00    -0.340 OA
HETATM    2  O2  UNK     1      19.291   2.626  15.500  1.00  0.00    -0.292 OA
HETATM    3  C1  UNK     1      18.696  -0.878  15.995  1.00  0.00     0.169 C 
HETATM    4  C2  UNK     1      19.441   0.243  15.271  1.00  0.00     0.121 C 
HETATM    5  C4  UNK     1      19.267   1.526  16.040  1.00  0.00     0.165 C 
HETATM    6  C5  UNK     1      19.135   1.389  17.506  1.00  0.00     0.043 A 
HETATM    7  C6  UNK     1      19.126   0.110  18.072  1.00  0.00     0.083 A 
HETATM    8  C9  UNK     1      19.064   2.522  18.319  1.00  0.00     0.018 A 
HETATM    9  C10 UNK     1      19.080  -0.033  19.459  1.00  0.00     0.038 A 
HETATM   10  C14 UNK     1      18.998   2.371  19.706  1.00  0.00     0.001 A 
HETATM   11  C15 UNK     1      19.011   1.097  20.274  1.00  0.00     0.003 A 
ENDROOT
BRANCH   3  12
HETATM   12  C3  UNK     1      18.847  -2.195  15.263  1.00  0.00    -0.028 A 
HETATM   13  C8  UNK     1      17.919  -3.215  15.469  1.00  0.00     0.012 A 
HETATM   14  C12 UNK     1      18.059  -4.430  14.796  1.00  0.00     0.037 A 
HETATM   15  C13 UNK     1      19.125  -4.622  13.918  1.00  0.00     0.068 A 
HETATM   16  C11 UNK     1      20.052  -3.600  13.712  1.00  0.00     0.037 A 
HETATM   17  C7  UNK     1      19.913  -2.387  14.385  1.00  0.00     0.012 A 
BRANCH  15  18
HETATM   18  O3  UNK     1      19.261  -5.806  13.260  1.00  0.00    -0.356 OA
HETATM   19  C16 UNK     1      20.520  -6.468  13.370  1.00  0.00     0.210 C 
ENDBRANCH  15  18
ENDBRANCH   3  12
TORSDOF 2
ENDMDL
MODEL 6
REMARK VINA RESULT:      -7.5      2.045      2.729
REMARK  2 active torsions:
REMARK  status: ('A' for Active; 'I' for Inactive)
REMARK    1  A    between atoms: C13_16  and  O3_3 
REMARK    2  A    between atoms: C1_4  and  C3_6 
ROOT
HETATM    1  O1  UNK     1      17.974   2.755  32.875  1.00  0.00    -0.340 OA
HETATM    2  O2  UNK     1      19.445   1.165  29.391  1.00  0.00    -0.292 OA
HETATM    3  C1  UNK     1      18.675   3.580  31.930  1.00  0.00     0.169 C 
HETATM    4  C2  UNK     1      18.488   3.061  30.506  1.00  0.00     0.121 C 
HETATM    5  C4  UNK     1      18.999   1.647  30.426  1.00  0.00     0.165 C 
HETATM    6  C5  UNK     1      18.867   0.840  31.657  1.00  0.00     0.043 A 
HETATM    7  C6  UNK     1      18.340   1.437  32.807  1.00  0.00     0.083 A 
HETATM    8  C9  UNK     1      19.223  -0.510  31.661  1.00  0.00     0.018 A 
HETATM    9  C10 UNK     1      18.137   0.669  33.955  1.00  0.00     0.038 A 
HETATM   10  C14 UNK     1      19.036  -1.268  32.819  1.00  0.00     0.001 A 
HETATM   11  C15 UNK     1      18.490  -0.681  33.961  1.00  0.00     0.003 A 
ENDROOT
BRANCH   3  12
HETATM   12  C3  UNK     1      18.168   5.000  32.066  1.00  0.00    -0.028 A 
HETATM   13  C8  UNK     1      17.634   5.436  33.278  1.00  0.00     0.012 A 
HETATM   14  C12 UNK     1      17.166   6.744  33.402  1.00  0.00     0.037 A 
HETATM   15  C13 UNK     1      17.233   7.615  32.315  1.00  0.00     0.068 A 
HETATM   16  C11 UNK     1      17.767   7.179  31.103  1.00  0.00     0.037 A 
HETATM   17  C7  UNK     1      18.235   5.871  30.978  1.00  0.00     0.012 A 
BRANCH  15  18
HETATM   18  O3  UNK     1      16.777   8.893  32.436  1.00  0.00    -0.356 OA
HETATM   19  C16 UNK     1      15.365   9.070  32.541  1.00  0.00     0.210 C 
ENDBRANCH  15  18
ENDBRANCH   3  12
TORSDOF 2
ENDMDL
MODEL 7
REMARK VINA RESULT:      -7.3      4.268      5.902
REMARK  2 active torsions:
REMARK  status: ('A' for Active; 'I' for Inactive)
REMARK    1  A    between atoms: C13_16  and  O3_3 
REMARK    2  A    between atoms: C1_4  and  C3_6 
ROOT
HETATM    1  O1  UNK     1      18.999   0.529  34.460  1.00  0.00    -0.340 OA
HETATM    2  O2  UNK     1      17.264   1.270  38.103  1.00  0.00    -0.292 OA
HETATM    3  C1  UNK     1      17.959   1.512  34.592  1.00  0.00     0.169 C 
HETATM    4  C2  UNK     1      17.973   2.141  35.983  1.00  0.00     0.121 C 
HETATM    5  C4  UNK     1      17.786   1.059  37.014  1.00  0.00     0.165 C 
HETATM    6  C5  UNK     1      18.335  -0.268  36.667  1.00  0.00     0.043 A 
HETATM    7  C6  UNK     1      18.932  -0.451  35.415  1.00  0.00     0.083 A 
HETATM    8  C9  UNK     1      18.298  -1.314  37.592  1.00  0.00     0.018 A 
HETATM    9  C10 UNK     1      19.523  -1.675  35.102  1.00  0.00     0.038 A 
HETATM   10  C14 UNK     1      18.874  -2.543  37.264  1.00  0.00     0.001 A 
HETATM   11  C15 UNK     1      19.489  -2.721  36.025  1.00  0.00     0.003 A 
ENDROOT
BRANCH   3  12
HETATM   12  C3  UNK     1      18.152   2.560  33.516  1.00  0.00    -0.028 A 
HETATM   13  C8  UNK     1      18.237   3.907  33.865  1.00  0.00     0.012 A 
HETATM   14  C12 UNK     1      18.413   4.873  32.874  1.00  0.00     0.037 A 
HETATM   15  C13 UNK     1      18.506   4.491  31.536  1.00  0.00     0.068 A 
HETATM   16  C11 UNK     1      18.422   3.143  31.188  1.00  0.00     0.037 A 
HETATM   17  C7  UNK     1      18.245   2.177  32.178  1.00  0.00     0.012 A 
BRANCH  15  18
HETATM   18  O3  UNK     1      18.680   5.433  30.568  1.00  0.00    -0.356 OA
HETATM   19  C16 UNK     1      20.023   5.793  30.248  1.00  0.00     0.210 C 
ENDBRANCH  15  18
ENDBRANCH   3  12
TORSDOF 2
ENDMDL
MODEL 8
REMARK VINA RESULT:      -7.3      2.163      7.334
REMARK  2 active torsions:
REMARK  status: ('A' for Active; 'I' for Inactive)
REMARK    1  A    between atoms: C13_16  and  O3_3 
REMARK    2  A    between atoms: C1_4  and  C3_6 
ROOT
HETATM    1  O1  UNK     1      19.248   6.486  33.031  1.00  0.00    -0.340 OA
HETATM    2  O2  UNK     1      15.788   8.623  32.487  1.00  0.00    -0.292 OA
HETATM    3  C1  UNK     1      17.975   5.821  32.978  1.00  0.00     0.169 C 
HETATM    4  C2  UNK     1      16.993   6.586  32.093  1.00  0.00     0.121 C 
HETATM    5  C4  UNK     1      16.819   7.979  32.640  1.00  0.00     0.165 C 
HETATM    6  C5  UNK     1      17.998   8.560  33.317  1.00  0.00     0.043 A 
HETATM    7  C6  UNK     1      19.154   7.786  33.454  1.00  0.00     0.083 A 
HETATM    8  C9  UNK     1      17.972   9.879  33.776  1.00  0.00     0.018 A 
HETATM    9  C10 UNK     1      20.299   8.346  34.021  1.00  0.00     0.038 A 
HETATM   10  C14 UNK     1      19.115  10.426  34.361  1.00  0.00     0.001 A 
HETATM   11  C15 UNK     1      20.277   9.663  34.479  1.00  0.00     0.003 A 
ENDROOT
BRANCH   3  12
HETATM   12  C3  UNK     1      18.191   4.413  32.465  1.00  0.00    -0.028 A 
HETATM   13  C8  UNK     1      18.413   4.194  31.106  1.00  0.00     0.012 A 
HETATM   14  C12 UNK     1      18.610   2.897  30.633  1.00  0.00     0.037 A 
HETATM   15  C13 UNK     1      18.586   1.820  31.519  1.00  0.00     0.068 A 
HETATM   16  C11 UNK     1      18.365   2.040  32.878  1.00  0.00     0.037 A 
HETATM   17  C7  UNK     1      18.167   3.337  33.351  1.00  0.00     0.012 A 
BRANCH  15  18
HETATM   18  O3  UNK     1      18.781   0.554  31.058  1.00  0.00    -0.356 OA
HETATM   19  C16 UNK     1      20.126   0.160  30.791  1.00  0.00     0.210 C 
ENDBRANCH  15  18
ENDBRANCH   3  12
TORSDOF 2
ENDMDL
MODEL 9
REMARK VINA RESULT:      -7.1      7.255     10.528
REMARK  2 active torsions:
REMARK  status: ('A' for Active; 'I' for Inactive)
REMARK    1  A    between atoms: C13_16  and  O3_3 
REMARK    2  A    between atoms: C1_4  and  C3_6 
ROOT
HETATM    1  O1  UNK     1      19.162  -2.392  37.175  1.00  0.00    -0.340 OA
HETATM    2  O2  UNK     1      19.369  -0.975  33.331  1.00  0.00    -0.292 OA
HETATM    3  C1  UNK     1      19.335  -3.292  36.069  1.00  0.00     0.169 C 
HETATM    4  C2  UNK     1      20.088  -2.616  34.925  1.00  0.00     0.121 C 
HETATM    5  C4  UNK     1      19.317  -1.402  34.478  1.00  0.00     0.165 C 
HETATM    6  C5  UNK     1      18.543  -0.705  35.526  1.00  0.00     0.043 A 
HETATM    7  C6  UNK     1      18.528  -1.229  36.822  1.00  0.00     0.083 A 
HETATM    8  C9  UNK     1      17.870   0.484  35.236  1.00  0.00     0.018 A 
HETATM    9  C10 UNK     1      17.865  -0.541  37.839  1.00  0.00     0.038 A 
HETATM   10  C14 UNK     1      17.192   1.157  36.255  1.00  0.00     0.001 A 
HETATM   11  C15 UNK     1      17.194   0.648  37.553  1.00  0.00     0.003 A 
ENDROOT
BRANCH   3  12
HETATM   12  C3  UNK     1      20.075  -4.518  36.561  1.00  0.00    -0.028 A 
HETATM   13  C8  UNK     1      20.958  -4.414  37.636  1.00  0.00     0.012 A 
HETATM   14  C12 UNK     1      21.641  -5.543  38.088  1.00  0.00     0.037 A 
HETATM   15  C13 UNK     1      21.439  -6.775  37.467  1.00  0.00     0.068 A 
HETATM   16  C11 UNK     1      20.556  -6.879  36.394  1.00  0.00     0.037 A 
HETATM   17  C7  UNK     1      19.873  -5.750  35.940  1.00  0.00     0.012 A 
BRANCH  15  18
HETATM   18  O3  UNK     1      22.104  -7.878  37.910  1.00  0.00    -0.356 OA
HETATM   19  C16 UNK     1      22.577  -8.790  36.920  1.00  0.00     0.210 C 
ENDBRANCH  15  18
ENDBRANCH   3  12
TORSDOF 2
ENDMDL
MODEL 10
REMARK VINA RESULT:      -7.1     21.765     23.228
REMARK  2 active torsions:
REMARK  status: ('A' for Active; 'I' for Inactive)
REMARK    1  A    between atoms: C13_16  and  O3_3 
REMARK    2  A    between atoms: C1_4  and  C3_6 
ROOT
HETATM    1  O1  UNK     1      13.331   7.447   9.775  1.00  0.00    -0.340 OA
HETATM    2  O2  UNK     1      16.045   4.378   9.555  1.00  0.00    -0.292 OA
HETATM    3  C1  UNK     1      13.048   6.271   9.000  1.00  0.00     0.169 C 
HETATM    4  C2  UNK     1      13.741   5.044   9.591  1.00  0.00     0.121 C 
HETATM    5  C4  UNK     1      15.227   5.288   9.626  1.00  0.00     0.165 C 
HETATM    6  C5  UNK     1      15.649   6.690   9.823  1.00  0.00     0.043 A 
HETATM    7  C6  UNK     1      14.673   7.688   9.908  1.00  0.00     0.083 A 
HETATM    8  C9  UNK     1      17.001   7.010   9.964  1.00  0.00     0.018 A 
HETATM    9  C10 UNK     1      15.051   9.006  10.171  1.00  0.00     0.038 A 
HETATM   10  C14 UNK     1      17.373   8.334  10.206  1.00  0.00     0.001 A 
HETATM   11  C15 UNK     1      16.401   9.327  10.314  1.00  0.00     0.003 A 
ENDROOT
BRANCH   3  12
HETATM   12  C3  UNK     1      11.547   6.079   8.950  1.00  0.00    -0.028 A 
HETATM   13  C8  UNK     1      10.965   4.975   9.572  1.00  0.00     0.012 A 
HETATM   14  C12 UNK     1       9.582   4.797   9.525  1.00  0.00     0.037 A 
HETATM   15  C13 UNK     1       8.783   5.725   8.858  1.00  0.00     0.068 A 
HETATM   16  C11 UNK     1       9.365   6.829   8.237  1.00  0.00     0.037 A 
HETATM   17  C7  UNK     1      10.747   7.007   8.283  1.00  0.00     0.012 A 
BRANCH  15  18
HETATM   18  O3  UNK     1       7.432   5.553   8.813  1.00  0.00    -0.356 OA
HETATM   19  C16 UNK     1       6.833   4.844   9.896  1.00  0.00     0.210 C 
ENDBRANCH  15  18
ENDBRANCH   3  12
TORSDOF 2
ENDMDL
