MODEL 1
REMARK VINA RESULT:      -9.8      0.000      0.000
REMARK  7 active torsions:
REMARK  status: ('A' for Active; 'I' for Inactive)
REMARK    1  A    between atoms: C13_20  and  O1_2 
REMARK    2  A    between atoms: C2_9  and  O1_2 
REMARK    3  A    between atoms: C11_18  and  N1_7 
REMARK    4  A    between atoms: C1_8  and  C8_15 
REMARK    5  A    between atoms: C13_20  and  C3_10 
REMARK    6  A    between atoms: C14_21  and  C8_15 
REMARK    7  A    between atoms: C15_22  and  C9_16 
ROOT
HETATM    1  C1  UNK     1      17.257   6.470  31.471  1.00  0.00     0.014 A 
HETATM    2  C2  UNK     1      18.861   4.342  30.646  1.00  0.00     0.079 A 
HETATM    3  C4  UNK     1      17.214   5.257  32.158  1.00  0.00     0.018 A 
HETATM    4  C5  UNK     1      18.101   6.619  30.371  1.00  0.00     0.018 A 
HETATM    5  C6  UNK     1      18.016   4.193  31.745  1.00  0.00     0.038 A 
HETATM    6  C7  UNK     1      18.904   5.555  29.958  1.00  0.00     0.038 A 
ENDROOT
BRANCH   2   7
HETATM    7  O1  UNK     1      19.644   3.303  30.244  1.00  0.00    -0.275 OA
BRANCH   7   8
HETATM    8  C13 UNK     1      18.963   2.311  29.535  1.00  0.00     0.298 C 
HETATM    9  O3  UNK     1      18.131   2.505  28.660  1.00  0.00    -0.259 OA
BRANCH   8  10
HETATM   10  C3  UNK     1      19.367   0.955  29.985  1.00  0.00     0.042 A 
HETATM   11  C10 UNK     1      19.007   0.505  31.255  1.00  0.00     0.053 A 
HETATM   12  C11 UNK     1      19.387  -0.769  31.678  1.00  0.00     0.103 A 
HETATM   13  C16 UNK     1      20.126  -1.593  30.830  1.00  0.00     0.036 A 
HETATM   14  C17 UNK     1      20.485  -1.143  29.559  1.00  0.00     0.003 A 
HETATM   15  C12 UNK     1      20.106   0.131  29.137  1.00  0.00     0.018 A 
BRANCH  12  16
HETATM   16  N1  UNK     1      19.021  -1.227  32.971  1.00  0.00    -0.116 N 
HETATM   17  O4  UNK     1      17.893  -0.921  33.427  1.00  0.00    -0.532 OA
HETATM   18  O5  UNK     1      19.835  -1.924  33.623  1.00  0.00    -0.532 OA
ENDBRANCH  12  16
ENDBRANCH   8  10
ENDBRANCH   7   8
ENDBRANCH   2   7
BRANCH   1  19
HETATM   19  C8  UNK     1      16.422   7.580  31.902  1.00  0.00     0.182 C 
HETATM   20  O2  UNK     1      16.279   8.584  31.188  1.00  0.00    -0.288 OA
BRANCH  19  21
HETATM   21  C14 UNK     1      15.757   7.501  33.247  1.00  0.00     0.056 C 
HETATM   22  C15 UNK     1      16.314   8.080  34.321  1.00  0.00     0.015 C 
BRANCH  22  23
HETATM   23  C9  UNK     1      17.585   8.826  34.301  1.00  0.00    -0.035 A 
HETATM   24  C18 UNK     1      17.590  10.189  34.010  1.00  0.00     0.035 A 
HETATM   25  C20 UNK     1      18.793  10.895  33.992  1.00  0.00     0.034 A 
HETATM   26 Cl1  UNK     1      18.801  12.578  33.634  1.00  0.00    -0.084 Cl
HETATM   27  C22 UNK     1      19.992  10.236  34.265  1.00  0.00     0.024 A 
HETATM   28  C21 UNK     1      19.987   8.871  34.556  1.00  0.00     0.003 A 
HETATM   29  C19 UNK     1      18.784   8.166  34.574  1.00  0.00     0.011 A 
ENDBRANCH  22  23
ENDBRANCH  19  21
ENDBRANCH   1  19
TORSDOF 7
ENDMDL
MODEL 2
REMARK VINA RESULT:      -9.1      9.121     14.657
REMARK  7 active torsions:
REMARK  status: ('A' for Active; 'I' for Inactive)
REMARK    1  A    between atoms: C13_20  and  O1_2 
REMARK    2  A    between atoms: C2_9  and  O1_2 
REMARK    3  A    between atoms: C11_18  and  N1_7 
REMARK    4  A    between atoms: C1_8  and  C8_15 
REMARK    5  A    between atoms: C13_20  and  C3_10 
REMARK    6  A    between atoms: C14_21  and  C8_15 
REMARK    7  A    between atoms: C15_22  and  C9_16 
ROOT
HETATM    1  C1  UNK     1      20.993  -7.297  39.017  1.00  0.00     0.014 A 
HETATM    2  C2  UNK     1      20.970  -4.748  37.884  1.00  0.00     0.079 A 
HETATM    3  C4  UNK     1      19.780  -6.675  38.725  1.00  0.00     0.018 A 
HETATM    4  C5  UNK     1      22.195  -6.645  38.743  1.00  0.00     0.018 A 
HETATM    5  C6  UNK     1      19.768  -5.400  38.159  1.00  0.00     0.038 A 
HETATM    6  C7  UNK     1      22.184  -5.371  38.176  1.00  0.00     0.038 A 
ENDROOT
BRANCH   2   7
HETATM    7  O1  UNK     1      20.959  -3.504  37.330  1.00  0.00    -0.275 OA
BRANCH   7   8
HETATM    8  C13 UNK     1      20.170  -3.392  36.183  1.00  0.00     0.298 C 
HETATM    9  O3  UNK     1      20.204  -4.145  35.220  1.00  0.00    -0.259 OA
BRANCH   8  10
HETATM   10  C3  UNK     1      19.269  -2.214  36.263  1.00  0.00     0.042 A 
HETATM   11  C10 UNK     1      19.055  -1.421  35.136  1.00  0.00     0.053 A 
HETATM   12  C11 UNK     1      18.209  -0.314  35.212  1.00  0.00     0.103 A 
HETATM   13  C16 UNK     1      17.576  -0.002  36.415  1.00  0.00     0.036 A 
HETATM   14  C17 UNK     1      17.789  -0.797  37.542  1.00  0.00     0.003 A 
HETATM   15  C12 UNK     1      18.636  -1.902  37.466  1.00  0.00     0.018 A 
BRANCH  12  16
HETATM   16  N1  UNK     1      17.991   0.493  34.065  1.00  0.00    -0.116 N 
HETATM   17  O4  UNK     1      18.895   0.575  33.199  1.00  0.00    -0.532 OA
HETATM   18  O5  UNK     1      16.901   1.103  33.948  1.00  0.00    -0.532 OA
ENDBRANCH  12  16
ENDBRANCH   8  10
ENDBRANCH   7   8
ENDBRANCH   2   7
BRANCH   1  19
HETATM   19  C8  UNK     1      21.006  -8.627  39.606  1.00  0.00     0.182 C 
HETATM   20  O2  UNK     1      22.000  -9.042  40.221  1.00  0.00    -0.288 OA
BRANCH  19  21
HETATM   21  C14 UNK     1      19.798  -9.503  39.429  1.00  0.00     0.056 C 
HETATM   22  C15 UNK     1      19.584 -10.149  38.273  1.00  0.00     0.015 C 
BRANCH  22  23
HETATM   23  C9  UNK     1      20.472 -10.073  37.099  1.00  0.00    -0.035 A 
HETATM   24  C18 UNK     1      21.501 -11.000  36.941  1.00  0.00     0.035 A 
HETATM   25  C20 UNK     1      22.340 -10.928  35.829  1.00  0.00     0.034 A 
HETATM   26 Cl1  UNK     1      23.611 -12.071  35.633  1.00  0.00    -0.084 Cl
HETATM   27  C22 UNK     1      22.150  -9.928  34.875  1.00  0.00     0.024 A 
HETATM   28  C21 UNK     1      21.119  -9.000  35.034  1.00  0.00     0.003 A 
HETATM   29  C19 UNK     1      20.280  -9.073  36.145  1.00  0.00     0.011 A 
ENDBRANCH  22  23
ENDBRANCH  19  21
ENDBRANCH   1  19
TORSDOF 7
ENDMDL
MODEL 3
REMARK VINA RESULT:      -9.0      2.104      2.987
REMARK  7 active torsions:
REMARK  status: ('A' for Active; 'I' for Inactive)
REMARK    1  A    between atoms: C13_20  and  O1_2 
REMARK    2  A    between atoms: C2_9  and  O1_2 
REMARK    3  A    between atoms: C11_18  and  N1_7 
REMARK    4  A    between atoms: C1_8  and  C8_15 
REMARK    5  A    between atoms: C13_20  and  C3_10 
REMARK    6  A    between atoms: C14_21  and  C8_15 
REMARK    7  A    between atoms: C15_22  and  C9_16 
ROOT
HETATM    1  C1  UNK     1      18.910   6.334  33.121  1.00  0.00     0.014 A 
HETATM    2  C2  UNK     1      19.099   4.412  31.109  1.00  0.00     0.079 A 
HETATM    3  C4  UNK     1      18.305   5.090  33.287  1.00  0.00     0.018 A 
HETATM    4  C5  UNK     1      19.610   6.619  31.948  1.00  0.00     0.018 A 
HETATM    5  C6  UNK     1      18.399   4.128  32.281  1.00  0.00     0.038 A 
HETATM    6  C7  UNK     1      19.705   5.657  30.942  1.00  0.00     0.038 A 
ENDROOT
BRANCH   2   7
HETATM    7  O1  UNK     1      19.191   3.473  30.127  1.00  0.00    -0.275 OA
BRANCH   7   8
HETATM    8  C13 UNK     1      18.302   2.405  30.267  1.00  0.00     0.298 C 
HETATM    9  O3  UNK     1      17.101   2.502  30.475  1.00  0.00    -0.259 OA
BRANCH   8  10
HETATM   10  C3  UNK     1      19.003   1.103  30.142  1.00  0.00     0.042 A 
HETATM   11  C10 UNK     1      19.243   0.327  31.276  1.00  0.00     0.053 A 
HETATM   12  C11 UNK     1      19.901  -0.897  31.158  1.00  0.00     0.103 A 
HETATM   13  C16 UNK     1      20.319  -1.346  29.905  1.00  0.00     0.036 A 
HETATM   14  C17 UNK     1      20.078  -0.571  28.770  1.00  0.00     0.003 A 
HETATM   15  C12 UNK     1      19.420   0.654  28.889  1.00  0.00     0.018 A 
BRANCH  12  16
HETATM   16  N1  UNK     1      20.146  -1.686  32.312  1.00  0.00    -0.116 N 
HETATM   17  O4  UNK     1      20.968  -2.632  32.239  1.00  0.00    -0.532 OA
HETATM   18  O5  UNK     1      19.533  -1.419  33.374  1.00  0.00    -0.532 OA
ENDBRANCH  12  16
ENDBRANCH   8  10
ENDBRANCH   7   8
ENDBRANCH   2   7
BRANCH   1  19
HETATM   19  C8  UNK     1      18.814   7.337  34.170  1.00  0.00     0.182 C 
HETATM   20  O2  UNK     1      18.401   7.038  35.301  1.00  0.00    -0.288 OA
BRANCH  19  21
HETATM   21  C14 UNK     1      19.199   8.754  33.850  1.00  0.00     0.056 C 
HETATM   22  C15 UNK     1      18.259   9.690  33.654  1.00  0.00     0.015 C 
BRANCH  22  23
HETATM   23  C9  UNK     1      16.808   9.444  33.730  1.00  0.00    -0.035 A 
HETATM   24  C18 UNK     1      16.206   8.539  32.858  1.00  0.00     0.035 A 
HETATM   25  C20 UNK     1      14.832   8.307  32.930  1.00  0.00     0.034 A 
HETATM   26 Cl1  UNK     1      14.089   7.189  31.854  1.00  0.00    -0.084 Cl
HETATM   27  C22 UNK     1      14.061   8.982  33.876  1.00  0.00     0.024 A 
HETATM   28  C21 UNK     1      14.663   9.888  34.749  1.00  0.00     0.003 A 
HETATM   29  C19 UNK     1      16.036  10.120  34.676  1.00  0.00     0.011 A 
ENDBRANCH  22  23
ENDBRANCH  19  21
ENDBRANCH   1  19
TORSDOF 7
ENDMDL
MODEL 4
REMARK VINA RESULT:      -8.9     14.343     16.987
REMARK  7 active torsions:
REMARK  status: ('A' for Active; 'I' for Inactive)
REMARK    1  A    between atoms: C13_20  and  O1_2 
REMARK    2  A    between atoms: C2_9  and  O1_2 
REMARK    3  A    between atoms: C11_18  and  N1_7 
REMARK    4  A    between atoms: C1_8  and  C8_15 
REMARK    5  A    between atoms: C13_20  and  C3_10 
REMARK    6  A    between atoms: C14_21  and  C8_15 
REMARK    7  A    between atoms: C15_22  and  C9_16 
ROOT
HETATM    1  C1  UNK     1      23.216 -10.218  36.189  1.00  0.00     0.014 A 
HETATM    2  C2  UNK     1      25.878 -10.031  36.998  1.00  0.00     0.079 A 
HETATM    3  C4  UNK     1      23.670  -9.068  36.833  1.00  0.00     0.018 A 
HETATM    4  C5  UNK     1      24.092 -11.276  35.950  1.00  0.00     0.018 A 
HETATM    5  C6  UNK     1      25.001  -8.975  37.238  1.00  0.00     0.038 A 
HETATM    6  C7  UNK     1      25.424 -11.183  36.354  1.00  0.00     0.038 A 
ENDROOT
BRANCH   2   7
HETATM    7  O1  UNK     1      27.178  -9.940  37.393  1.00  0.00    -0.275 OA
BRANCH   7   8
HETATM    8  C13 UNK     1      27.360  -9.332  38.636  1.00  0.00     0.298 C 
HETATM    9  O3  UNK     1      26.760  -9.617  39.663  1.00  0.00    -0.259 OA
BRANCH   8  10
HETATM   10  C3  UNK     1      28.386  -8.260  38.566  1.00  0.00     0.042 A 
HETATM   11  C10 UNK     1      28.062  -6.957  38.941  1.00  0.00     0.053 A 
HETATM   12  C11 UNK     1      29.026  -5.951  38.874  1.00  0.00     0.103 A 
HETATM   13  C16 UNK     1      30.315  -6.249  38.433  1.00  0.00     0.036 A 
HETATM   14  C17 UNK     1      30.640  -7.553  38.058  1.00  0.00     0.003 A 
HETATM   15  C12 UNK     1      29.675  -8.559  38.124  1.00  0.00     0.018 A 
BRANCH  12  16
HETATM   16  N1  UNK     1      28.695  -4.624  39.256  1.00  0.00    -0.116 N 
HETATM   17  O4  UNK     1      27.565  -4.168  38.954  1.00  0.00    -0.532 OA
HETATM   18  O5  UNK     1      29.541  -3.943  39.883  1.00  0.00    -0.532 OA
ENDBRANCH  12  16
ENDBRANCH   8  10
ENDBRANCH   7   8
ENDBRANCH   2   7
BRANCH   1  19
HETATM   19  C8  UNK     1      21.827 -10.315  35.766  1.00  0.00     0.182 C 
HETATM   20  O2  UNK     1      21.383  -9.586  34.866  1.00  0.00    -0.288 OA
BRANCH  19  21
HETATM   21  C14 UNK     1      20.930 -11.300  36.462  1.00  0.00     0.056 C 
HETATM   22  C15 UNK     1      20.098 -10.898  37.434  1.00  0.00     0.015 C 
BRANCH  22  23
HETATM   23  C9  UNK     1      19.976  -9.507  37.906  1.00  0.00    -0.035 A 
HETATM   24  C18 UNK     1      19.090  -8.632  37.281  1.00  0.00     0.035 A 
HETATM   25  C20 UNK     1      18.975  -7.315  37.729  1.00  0.00     0.034 A 
HETATM   26 Cl1  UNK     1      17.882  -6.234  36.957  1.00  0.00    -0.084 Cl
HETATM   27  C22 UNK     1      19.749  -6.875  38.803  1.00  0.00     0.024 A 
HETATM   28  C21 UNK     1      20.635  -7.752  39.430  1.00  0.00     0.003 A 
HETATM   29  C19 UNK     1      20.749  -9.067  38.982  1.00  0.00     0.011 A 
ENDBRANCH  22  23
ENDBRANCH  19  21
ENDBRANCH   1  19
TORSDOF 7
ENDMDL
MODEL 5
REMARK VINA RESULT:      -8.8      3.090      4.529
REMARK  7 active torsions:
REMARK  status: ('A' for Active; 'I' for Inactive)
REMARK    1  A    between atoms: C13_20  and  O1_2 
REMARK    2  A    between atoms: C2_9  and  O1_2 
REMARK    3  A    between atoms: C11_18  and  N1_7 
REMARK    4  A    between atoms: C1_8  and  C8_15 
REMARK    5  A    between atoms: C13_20  and  C3_10 
REMARK    6  A    between atoms: C14_21  and  C8_15 
REMARK    7  A    between atoms: C15_22  and  C9_16 
ROOT
HETATM    1  C1  UNK     1      18.509   4.914  32.900  1.00  0.00     0.014 A 
HETATM    2  C2  UNK     1      18.185   2.162  33.218  1.00  0.00     0.079 A 
HETATM    3  C4  UNK     1      18.306   4.103  31.785  1.00  0.00     0.018 A 
HETATM    4  C5  UNK     1      18.550   4.350  34.175  1.00  0.00     0.018 A 
HETATM    5  C6  UNK     1      18.144   2.726  31.943  1.00  0.00     0.038 A 
HETATM    6  C7  UNK     1      18.388   2.974  34.334  1.00  0.00     0.038 A 
ENDROOT
BRANCH   2   7
HETATM    7  O1  UNK     1      18.027   0.818  33.373  1.00  0.00    -0.275 OA
BRANCH   7   8
HETATM    8  C13 UNK     1      17.091   0.458  34.345  1.00  0.00     0.298 C 
HETATM    9  O3  UNK     1      15.910   0.773  34.347  1.00  0.00    -0.259 OA
BRANCH   8  10
HETATM   10  C3  UNK     1      17.714  -0.365  35.411  1.00  0.00     0.042 A 
HETATM   11  C10 UNK     1      18.896  -1.060  35.158  1.00  0.00     0.053 A 
HETATM   12  C11 UNK     1      19.481  -1.833  36.161  1.00  0.00     0.103 A 
HETATM   13  C16 UNK     1      18.883  -1.911  37.419  1.00  0.00     0.036 A 
HETATM   14  C17 UNK     1      17.701  -1.215  37.673  1.00  0.00     0.003 A 
HETATM   15  C12 UNK     1      17.116  -0.443  36.669  1.00  0.00     0.018 A 
BRANCH  12  16
HETATM   16  N1  UNK     1      20.685  -2.540  35.902  1.00  0.00    -0.116 N 
HETATM   17  O4  UNK     1      20.898  -3.619  36.506  1.00  0.00    -0.532 OA
HETATM   18  O5  UNK     1      21.503  -2.067  35.077  1.00  0.00    -0.532 OA
ENDBRANCH  12  16
ENDBRANCH   8  10
ENDBRANCH   7   8
ENDBRANCH   2   7
BRANCH   1  19
HETATM   19  C8  UNK     1      18.676   6.350  32.735  1.00  0.00     0.182 C 
HETATM   20  O2  UNK     1      18.357   6.911  31.676  1.00  0.00    -0.288 OA
BRANCH  19  21
HETATM   21  C14 UNK     1      19.271   7.139  33.867  1.00  0.00     0.056 C 
HETATM   22  C15 UNK     1      18.521   8.002  34.568  1.00  0.00     0.015 C 
BRANCH  22  23
HETATM   23  C9  UNK     1      17.091   8.259  34.319  1.00  0.00    -0.035 A 
HETATM   24  C18 UNK     1      16.665   9.532  33.948  1.00  0.00     0.035 A 
HETATM   25  C20 UNK     1      15.311   9.775  33.712  1.00  0.00     0.034 A 
HETATM   26 Cl1  UNK     1      14.784  11.347  33.253  1.00  0.00    -0.084 Cl
HETATM   27  C22 UNK     1      14.384   8.741  33.849  1.00  0.00     0.024 A 
HETATM   28  C21 UNK     1      14.811   7.466  34.220  1.00  0.00     0.003 A 
HETATM   29  C19 UNK     1      16.164   7.224  34.456  1.00  0.00     0.011 A 
ENDBRANCH  22  23
ENDBRANCH  19  21
ENDBRANCH   1  19
TORSDOF 7
ENDMDL
MODEL 6
REMARK VINA RESULT:      -8.6     15.149     17.340
REMARK  7 active torsions:
REMARK  status: ('A' for Active; 'I' for Inactive)
REMARK    1  A    between atoms: C13_20  and  O1_2 
REMARK    2  A    between atoms: C2_9  and  O1_2 
REMARK    3  A    between atoms: C11_18  and  N1_7 
REMARK    4  A    between atoms: C1_8  and  C8_15 
REMARK    5  A    between atoms: C13_20  and  C3_10 
REMARK    6  A    between atoms: C14_21  and  C8_15 
REMARK    7  A    between atoms: C15_22  and  C9_16 
ROOT
HETATM    1  C1  UNK     1      28.644  -9.027  37.594  1.00  0.00     0.014 A 
HETATM    2  C2  UNK     1      26.139  -8.804  38.799  1.00  0.00     0.079 A 
HETATM    3  C4  UNK     1      28.542  -8.957  38.983  1.00  0.00     0.018 A 
HETATM    4  C5  UNK     1      27.494  -8.985  36.807  1.00  0.00     0.018 A 
HETATM    5  C6  UNK     1      27.289  -8.845  39.586  1.00  0.00     0.038 A 
HETATM    6  C7  UNK     1      26.241  -8.874  37.410  1.00  0.00     0.038 A 
ENDROOT
BRANCH   2   7
HETATM    7  O1  UNK     1      24.916  -8.695  39.388  1.00  0.00    -0.275 OA
BRANCH   7   8
HETATM    8  C13 UNK     1      24.095  -7.712  38.830  1.00  0.00     0.298 C 
HETATM    9  O3  UNK     1      24.330  -6.513  38.815  1.00  0.00    -0.259 OA
BRANCH   8  10
HETATM   10  C3  UNK     1      22.863  -8.306  38.251  1.00  0.00     0.042 A 
HETATM   11  C10 UNK     1      22.771  -8.523  36.877  1.00  0.00     0.053 A 
HETATM   12  C11 UNK     1      21.614  -9.081  36.333  1.00  0.00     0.103 A 
HETATM   13  C16 UNK     1      20.547  -9.422  37.166  1.00  0.00     0.036 A 
HETATM   14  C17 UNK     1      20.639  -9.205  38.541  1.00  0.00     0.003 A 
HETATM   15  C12 UNK     1      21.797  -8.647  39.084  1.00  0.00     0.018 A 
BRANCH  12  16
HETATM   16  N1  UNK     1      21.521  -9.302  34.935  1.00  0.00    -0.116 N 
HETATM   17  O4  UNK     1      21.730 -10.455  34.486  1.00  0.00    -0.532 OA
HETATM   18  O5  UNK     1      21.232  -8.339  34.184  1.00  0.00    -0.532 OA
ENDBRANCH  12  16
ENDBRANCH   8  10
ENDBRANCH   7   8
ENDBRANCH   2   7
BRANCH   1  19
HETATM   19  C8  UNK     1      29.951  -9.145  36.965  1.00  0.00     0.182 C 
HETATM   20  O2  UNK     1      30.070  -9.099  35.732  1.00  0.00    -0.288 OA
BRANCH  19  21
HETATM   21  C14 UNK     1      31.154  -9.356  37.841  1.00  0.00     0.056 C 
HETATM   22  C15 UNK     1      31.901  -8.315  38.238  1.00  0.00     0.015 C 
BRANCH  22  23
HETATM   23  C9  UNK     1      31.636  -6.911  37.877  1.00  0.00    -0.035 A 
HETATM   24  C18 UNK     1      30.822  -6.123  38.688  1.00  0.00     0.035 A 
HETATM   25  C20 UNK     1      30.572  -4.794  38.345  1.00  0.00     0.034 A 
HETATM   26 Cl1  UNK     1      29.567  -3.819  39.347  1.00  0.00    -0.084 Cl
HETATM   27  C22 UNK     1      31.135  -4.254  37.189  1.00  0.00     0.024 A 
HETATM   28  C21 UNK     1      31.950  -5.043  36.377  1.00  0.00     0.003 A 
HETATM   29  C19 UNK     1      32.201  -6.371  36.720  1.00  0.00     0.011 A 
ENDBRANCH  22  23
ENDBRANCH  19  21
ENDBRANCH   1  19
TORSDOF 7
ENDMDL
MODEL 7
REMARK VINA RESULT:      -8.5     15.641     17.499
REMARK  7 active torsions:
REMARK  status: ('A' for Active; 'I' for Inactive)
REMARK    1  A    between atoms: C13_20  and  O1_2 
REMARK    2  A    between atoms: C2_9  and  O1_2 
REMARK    3  A    between atoms: C11_18  and  N1_7 
REMARK    4  A    between atoms: C1_8  and  C8_15 
REMARK    5  A    between atoms: C13_20  and  C3_10 
REMARK    6  A    between atoms: C14_21  and  C8_15 
REMARK    7  A    between atoms: C15_22  and  C9_16 
ROOT
HETATM    1  C1  UNK     1      30.113  -8.075  35.408  1.00  0.00     0.014 A 
HETATM    2  C2  UNK     1      30.615  -6.668  33.053  1.00  0.00     0.079 A 
HETATM    3  C4  UNK     1      29.335  -6.965  35.080  1.00  0.00     0.018 A 
HETATM    4  C5  UNK     1      31.142  -8.482  34.560  1.00  0.00     0.018 A 
HETATM    5  C6  UNK     1      29.586  -6.262  33.902  1.00  0.00     0.038 A 
HETATM    6  C7  UNK     1      31.393  -7.778  33.381  1.00  0.00     0.038 A 
ENDROOT
BRANCH   2   7
HETATM    7  O1  UNK     1      30.860  -5.981  31.903  1.00  0.00    -0.275 OA
BRANCH   7   8
HETATM    8  C13 UNK     1      29.729  -5.760  31.113  1.00  0.00     0.298 C 
HETATM    9  O3  UNK     1      29.112  -4.708  31.033  1.00  0.00    -0.259 OA
BRANCH   8  10
HETATM   10  C3  UNK     1      29.345  -6.986  30.369  1.00  0.00     0.042 A 
HETATM   11  C10 UNK     1      30.230  -7.555  29.454  1.00  0.00     0.053 A 
HETATM   12  C11 UNK     1      29.869  -8.707  28.755  1.00  0.00     0.103 A 
HETATM   13  C16 UNK     1      28.621  -9.291  28.973  1.00  0.00     0.036 A 
HETATM   14  C17 UNK     1      27.735  -8.723  29.889  1.00  0.00     0.003 A 
HETATM   15  C12 UNK     1      28.097  -7.571  30.587  1.00  0.00     0.018 A 
BRANCH  12  16
HETATM   16  N1  UNK     1      30.770  -9.285  27.823  1.00  0.00    -0.116 N 
HETATM   17  O4  UNK     1      30.363 -10.207  27.075  1.00  0.00    -0.532 OA
HETATM   18  O5  UNK     1      31.949  -8.860  27.773  1.00  0.00    -0.532 OA
ENDBRANCH  12  16
ENDBRANCH   8  10
ENDBRANCH   7   8
ENDBRANCH   2   7
BRANCH   1  19
HETATM   19  C8  UNK     1      29.850  -8.810  36.636  1.00  0.00     0.182 C 
HETATM   20  O2  UNK     1      28.718  -9.252  36.884  1.00  0.00    -0.288 OA
BRANCH  19  21
HETATM   21  C14 UNK     1      30.974  -9.000  37.615  1.00  0.00     0.056 C 
HETATM   22  C15 UNK     1      31.468  -7.957  38.299  1.00  0.00     0.015 C 
BRANCH  22  23
HETATM   23  C9  UNK     1      30.985  -6.571  38.171  1.00  0.00    -0.035 A 
HETATM   24  C18 UNK     1      31.724  -5.637  37.448  1.00  0.00     0.035 A 
HETATM   25  C20 UNK     1      31.266  -4.325  37.327  1.00  0.00     0.034 A 
HETATM   26 Cl1  UNK     1      32.178  -3.171  36.433  1.00  0.00    -0.084 Cl
HETATM   27  C22 UNK     1      30.067  -3.947  37.932  1.00  0.00     0.024 A 
HETATM   28  C21 UNK     1      29.327  -4.882  38.657  1.00  0.00     0.003 A 
HETATM   29  C19 UNK     1      29.785  -6.193  38.777  1.00  0.00     0.011 A 
ENDBRANCH  22  23
ENDBRANCH  19  21
ENDBRANCH   1  19
TORSDOF 7
ENDMDL
MODEL 8
REMARK VINA RESULT:      -8.5     22.787     24.801
REMARK  7 active torsions:
REMARK  status: ('A' for Active; 'I' for Inactive)
REMARK    1  A    between atoms: C13_20  and  O1_2 
REMARK    2  A    between atoms: C2_9  and  O1_2 
REMARK    3  A    between atoms: C11_18  and  N1_7 
REMARK    4  A    between atoms: C1_8  and  C8_15 
REMARK    5  A    between atoms: C13_20  and  C3_10 
REMARK    6  A    between atoms: C14_21  and  C8_15 
REMARK    7  A    between atoms: C15_22  and  C9_16 
ROOT
HETATM    1  C1  UNK     1      16.212   9.772   9.770  1.00  0.00     0.014 A 
HETATM    2  C2  UNK     1      13.822   8.370  10.082  1.00  0.00     0.079 A 
HETATM    3  C4  UNK     1      15.254   9.794   8.758  1.00  0.00     0.018 A 
HETATM    4  C5  UNK     1      15.976   9.049  10.939  1.00  0.00     0.018 A 
HETATM    5  C6  UNK     1      14.059   9.092   8.914  1.00  0.00     0.038 A 
HETATM    6  C7  UNK     1      14.781   8.348  11.095  1.00  0.00     0.038 A 
ENDROOT
BRANCH   2   7
HETATM    7  O1  UNK     1      12.654   7.685  10.235  1.00  0.00    -0.275 OA
BRANCH   7   8
HETATM    8  C13 UNK     1      12.667   6.399   9.691  1.00  0.00     0.298 C 
HETATM    9  O3  UNK     1      13.324   5.456  10.110  1.00  0.00    -0.259 OA
BRANCH   8  10
HETATM   10  C3  UNK     1      11.776   6.306   8.507  1.00  0.00     0.042 A 
HETATM   11  C10 UNK     1      10.397   6.195   8.677  1.00  0.00     0.053 A 
HETATM   12  C11 UNK     1       9.560   6.107   7.564  1.00  0.00     0.103 A 
HETATM   13  C16 UNK     1      10.104   6.134   6.280  1.00  0.00     0.036 A 
HETATM   14  C17 UNK     1      11.485   6.247   6.109  1.00  0.00     0.003 A 
HETATM   15  C12 UNK     1      12.321   6.333   7.223  1.00  0.00     0.018 A 
BRANCH  12  16
HETATM   16  N1  UNK     1       8.156   5.993   7.738  1.00  0.00    -0.116 N 
HETATM   17  O4  UNK     1       7.659   4.859   7.941  1.00  0.00    -0.532 OA
HETATM   18  O5  UNK     1       7.450   7.029   7.683  1.00  0.00    -0.532 OA
ENDBRANCH  12  16
ENDBRANCH   8  10
ENDBRANCH   7   8
ENDBRANCH   2   7
BRANCH   1  19
HETATM   19  C8  UNK     1      17.459  10.505   9.609  1.00  0.00     0.182 C 
HETATM   20  O2  UNK     1      18.248  10.226   8.694  1.00  0.00    -0.288 OA
BRANCH  19  21
HETATM   21  C14 UNK     1      17.787  11.592  10.593  1.00  0.00     0.056 C 
HETATM   22  C15 UNK     1      17.436  12.863  10.350  1.00  0.00     0.015 C 
BRANCH  22  23
HETATM   23  C9  UNK     1      16.721  13.316   9.144  1.00  0.00    -0.035 A 
HETATM   24  C18 UNK     1      17.433  13.652   7.994  1.00  0.00     0.035 A 
HETATM   25  C20 UNK     1      16.754  14.080   6.853  1.00  0.00     0.034 A 
HETATM   26 Cl1  UNK     1      17.633  14.494   5.432  1.00  0.00    -0.084 Cl
HETATM   27  C22 UNK     1      15.363  14.173   6.863  1.00  0.00     0.024 A 
HETATM   28  C21 UNK     1      14.650  13.837   8.014  1.00  0.00     0.003 A 
HETATM   29  C19 UNK     1      15.328  13.408   9.155  1.00  0.00     0.011 A 
ENDBRANCH  22  23
ENDBRANCH  19  21
ENDBRANCH   1  19
TORSDOF 7
ENDMDL
MODEL 9
REMARK VINA RESULT:      -8.5     13.098     16.483
REMARK  7 active torsions:
REMARK  status: ('A' for Active; 'I' for Inactive)
REMARK    1  A    between atoms: C13_20  and  O1_2 
REMARK    2  A    between atoms: C2_9  and  O1_2 
REMARK    3  A    between atoms: C11_18  and  N1_7 
REMARK    4  A    between atoms: C1_8  and  C8_15 
REMARK    5  A    between atoms: C13_20  and  C3_10 
REMARK    6  A    between atoms: C14_21  and  C8_15 
REMARK    7  A    between atoms: C15_22  and  C9_16 
ROOT
HETATM    1  C1  UNK     1      23.211 -10.531  36.021  1.00  0.00     0.014 A 
HETATM    2  C2  UNK     1      25.875 -10.267  36.802  1.00  0.00     0.079 A 
HETATM    3  C4  UNK     1      23.658  -9.334  36.579  1.00  0.00     0.018 A 
HETATM    4  C5  UNK     1      24.095 -11.596  35.854  1.00  0.00     0.018 A 
HETATM    5  C6  UNK     1      24.991  -9.202  36.970  1.00  0.00     0.038 A 
HETATM    6  C7  UNK     1      25.427 -11.464  36.244  1.00  0.00     0.038 A 
ENDROOT
BRANCH   2   7
HETATM    7  O1  UNK     1      27.176 -10.138  37.183  1.00  0.00    -0.275 OA
BRANCH   7   8
HETATM    8  C13 UNK     1      27.923  -9.261  36.393  1.00  0.00     0.298 C 
HETATM    9  O3  UNK     1      28.109  -9.371  35.190  1.00  0.00    -0.259 OA
BRANCH   8  10
HETATM   10  C3  UNK     1      28.490  -8.156  37.206  1.00  0.00     0.042 A 
HETATM   11  C10 UNK     1      27.681  -7.090  37.598  1.00  0.00     0.053 A 
HETATM   12  C11 UNK     1      28.214  -6.051  38.361  1.00  0.00     0.103 A 
HETATM   13  C16 UNK     1      29.558  -6.080  38.734  1.00  0.00     0.036 A 
HETATM   14  C17 UNK     1      30.368  -7.146  38.342  1.00  0.00     0.003 A 
HETATM   15  C12 UNK     1      29.834  -8.184  37.578  1.00  0.00     0.018 A 
BRANCH  12  16
HETATM   16  N1  UNK     1      27.390  -4.967  38.761  1.00  0.00    -0.116 N 
HETATM   17  O4  UNK     1      26.143  -5.102  38.713  1.00  0.00    -0.532 OA
HETATM   18  O5  UNK     1      27.930  -3.903  39.149  1.00  0.00    -0.532 OA
ENDBRANCH  12  16
ENDBRANCH   8  10
ENDBRANCH   7   8
ENDBRANCH   2   7
BRANCH   1  19
HETATM   19  C8  UNK     1      21.821 -10.668  35.612  1.00  0.00     0.182 C 
HETATM   20  O2  UNK     1      21.483 -10.483  34.433  1.00  0.00    -0.288 OA
BRANCH  19  21
HETATM   21  C14 UNK     1      20.795 -11.011  36.654  1.00  0.00     0.056 C 
HETATM   22  C15 UNK     1      20.009 -10.060  37.180  1.00  0.00     0.015 C 
BRANCH  22  23
HETATM   23  C9  UNK     1      20.063  -8.634  36.809  1.00  0.00    -0.035 A 
HETATM   24  C18 UNK     1      20.865  -7.754  37.532  1.00  0.00     0.035 A 
HETATM   25  C20 UNK     1      20.916  -6.405  37.180  1.00  0.00     0.034 A 
HETATM   26 Cl1  UNK     1      21.907  -5.317  38.072  1.00  0.00    -0.084 Cl
HETATM   27  C22 UNK     1      20.161  -5.937  36.104  1.00  0.00     0.024 A 
HETATM   28  C21 UNK     1      19.358  -6.818  35.380  1.00  0.00     0.003 A 
HETATM   29  C19 UNK     1      19.308  -8.167  35.732  1.00  0.00     0.011 A 
ENDBRANCH  22  23
ENDBRANCH  19  21
ENDBRANCH   1  19
TORSDOF 7
ENDMDL
MODEL 10
REMARK VINA RESULT:      -8.4     15.530     17.464
REMARK  7 active torsions:
REMARK  status: ('A' for Active; 'I' for Inactive)
REMARK    1  A    between atoms: C13_20  and  O1_2 
REMARK    2  A    between atoms: C2_9  and  O1_2 
REMARK    3  A    between atoms: C11_18  and  N1_7 
REMARK    4  A    between atoms: C1_8  and  C8_15 
REMARK    5  A    between atoms: C13_20  and  C3_10 
REMARK    6  A    between atoms: C14_21  and  C8_15 
REMARK    7  A    between atoms: C15_22  and  C9_16 
ROOT
HETATM    1  C1  UNK     1      31.123  -7.170  35.069  1.00  0.00     0.014 A 
HETATM    2  C2  UNK     1      29.635  -5.863  33.105  1.00  0.00     0.079 A 
HETATM    3  C4  UNK     1      31.748  -6.279  34.198  1.00  0.00     0.018 A 
HETATM    4  C5  UNK     1      29.753  -7.409  34.957  1.00  0.00     0.018 A 
HETATM    5  C6  UNK     1      31.005  -5.625  33.216  1.00  0.00     0.038 A 
HETATM    6  C7  UNK     1      29.009  -6.755  33.975  1.00  0.00     0.038 A 
ENDROOT
BRANCH   2   7
HETATM    7  O1  UNK     1      28.909  -5.224  32.146  1.00  0.00    -0.275 OA
BRANCH   7   8
HETATM    8  C13 UNK     1      29.448  -5.315  30.861  1.00  0.00     0.298 C 
HETATM    9  O3  UNK     1      30.060  -4.430  30.281  1.00  0.00    -0.259 OA
BRANCH   8  10
HETATM   10  C3  UNK     1      29.173  -6.643  30.256  1.00  0.00     0.042 A 
HETATM   11  C10 UNK     1      30.146  -7.273  29.480  1.00  0.00     0.053 A 
HETATM   12  C11 UNK     1      29.887  -8.520  28.912  1.00  0.00     0.103 A 
HETATM   13  C16 UNK     1      28.655  -9.139  29.121  1.00  0.00     0.036 A 
HETATM   14  C17 UNK     1      27.682  -8.510  29.898  1.00  0.00     0.003 A 
HETATM   15  C12 UNK     1      27.940  -7.262  30.465  1.00  0.00     0.018 A 
BRANCH  12  16
HETATM   16  N1  UNK     1      30.878  -9.160  28.122  1.00  0.00    -0.116 N 
HETATM   17  O4  UNK     1      32.087  -8.891  28.327  1.00  0.00    -0.532 OA
HETATM   18  O5  UNK     1      30.519  -9.977  27.240  1.00  0.00    -0.532 OA
ENDBRANCH  12  16
ENDBRANCH   8  10
ENDBRANCH   7   8
ENDBRANCH   2   7
BRANCH   1  19
HETATM   19  C8  UNK     1      31.898  -7.851  36.094  1.00  0.00     0.182 C 
HETATM   20  O2  UNK     1      31.724  -9.057  36.328  1.00  0.00    -0.288 OA
BRANCH  19  21
HETATM   21  C14 UNK     1      32.895  -7.056  36.889  1.00  0.00     0.056 C 
HETATM   22  C15 UNK     1      32.486  -6.173  37.812  1.00  0.00     0.015 C 
BRANCH  22  23
HETATM   23  C9  UNK     1      31.075  -5.897  38.136  1.00  0.00    -0.035 A 
HETATM   24  C18 UNK     1      30.254  -6.920  38.607  1.00  0.00     0.035 A 
HETATM   25  C20 UNK     1      28.918  -6.658  38.914  1.00  0.00     0.034 A 
HETATM   26 Cl1  UNK     1      27.903  -7.921  39.495  1.00  0.00    -0.084 Cl
HETATM   27  C22 UNK     1      28.405  -5.372  38.748  1.00  0.00     0.024 A 
HETATM   28  C21 UNK     1      29.227  -4.348  38.277  1.00  0.00     0.003 A 
HETATM   29  C19 UNK     1      30.562  -4.610  37.971  1.00  0.00     0.011 A 
ENDBRANCH  22  23
ENDBRANCH  19  21
ENDBRANCH   1  19
TORSDOF 7
ENDMDL
