MODEL 1
REMARK VINA RESULT:      -7.7      0.000      0.000
REMARK  5 active torsions:
REMARK  status: ('A' for Active; 'I' for Inactive)
REMARK    1  A    between atoms: C12_20  and  O3_5 
REMARK    2  A    between atoms: C20_28  and  O3_5 
REMARK    3  A    between atoms: C7_15  and  N1_8 
REMARK    4  A    between atoms: C1_9  and  C5_13 
REMARK    5  A    between atoms: C12_20  and  C3_11 
ROOT
HETATM    1  O1  UNK     1      30.222  -5.869  33.562  1.00  0.00    -0.292 OA
HETATM    2  O2  UNK     1      28.798  -9.627  32.393  1.00  0.00    -0.274 OA
HETATM    3  O4  UNK     1      29.990 -10.606  34.072  1.00  0.00    -0.259 OA
HETATM    4  C1  UNK     1      31.003  -8.133  35.147  1.00  0.00     0.104 C 
HETATM    5  C2  UNK     1      30.112  -8.236  33.923  1.00  0.00     0.066 A 
HETATM    6  C3  UNK     1      31.615  -6.749  35.283  1.00  0.00     0.081 C 
HETATM    7  C4  UNK     1      29.775  -7.137  33.231  1.00  0.00     0.104 A 
HETATM    8  C6  UNK     1      28.891  -7.217  32.071  1.00  0.00     0.033 A 
HETATM    9  C7  UNK     1      31.217  -5.703  34.529  1.00  0.00     0.155 C 
HETATM   10  C8  UNK     1      29.648  -9.580  33.492  1.00  0.00     0.298 A 
HETATM   11  C9  UNK     1      28.420  -8.469  31.686  1.00  0.00     0.092 A 
HETATM   12  C13 UNK     1      28.487  -6.102  31.326  1.00  0.00     0.017 A 
HETATM   13  C14 UNK     1      27.569  -8.639  30.595  1.00  0.00     0.038 A 
HETATM   14  C17 UNK     1      27.633  -6.256  30.228  1.00  0.00     0.001 A 
HETATM   15  C19 UNK     1      27.174  -7.522  29.864  1.00  0.00     0.003 A 
ENDROOT
BRANCH   4  16
HETATM   16  C5  UNK     1      30.232  -8.484  36.385  1.00  0.00    -0.043 A 
HETATM   17  C10 UNK     1      29.037  -7.830  36.661  1.00  0.00     0.033 A 
HETATM   18  C15 UNK     1      28.321  -8.157  37.812  1.00  0.00     0.056 A 
HETATM   19 Cl1  UNK     1      26.839  -7.316  38.107  1.00  0.00    -0.083 Cl
HETATM   20  C18 UNK     1      28.804  -9.136  38.680  1.00  0.00     0.055 A 
HETATM   21  C16 UNK     1      30.005  -9.788  38.398  1.00  0.00     0.026 A 
HETATM   22 Cl2  UNK     1      27.962  -9.584  40.123  1.00  0.00    -0.083 Cl
HETATM   23  C11 UNK     1      30.720  -9.461  37.246  1.00  0.00     0.010 A 
ENDBRANCH   4  16
BRANCH   6  24
HETATM   24  C12 UNK     1      32.697  -6.606  36.273  1.00  0.00     0.294 C 
HETATM   25  O5  UNK     1      33.659  -7.349  36.322  1.00  0.00    -0.259 OA
BRANCH  24  26
HETATM   26  O3  UNK     1      32.414  -5.543  37.063  1.00  0.00    -0.318 OA
BRANCH  26  27
HETATM   27  C20 UNK     1      31.856  -5.871  38.340  1.00  0.00     0.174 C 
HETATM   28  C21 UNK     1      30.597  -5.058  38.550  1.00  0.00     0.034 C 
ENDBRANCH  26  27
ENDBRANCH  24  26
ENDBRANCH   6  24
BRANCH   9  29
HETATM   29  N1  UNK     1      31.697  -4.426  34.594  1.00  0.00    -0.379 N 
HETATM   30  H7  UNK     1      32.602  -4.221  34.189  1.00  0.00     0.158 HD
HETATM   31  H8  UNK     1      31.161  -3.695  35.043  1.00  0.00     0.158 HD
ENDBRANCH   9  29
TORSDOF 5
ENDMDL
MODEL 2
REMARK VINA RESULT:      -7.5      5.234      8.288
REMARK  5 active torsions:
REMARK  status: ('A' for Active; 'I' for Inactive)
REMARK    1  A    between atoms: C12_20  and  O3_5 
REMARK    2  A    between atoms: C20_28  and  O3_5 
REMARK    3  A    between atoms: C7_15  and  N1_8 
REMARK    4  A    between atoms: C1_9  and  C5_13 
REMARK    5  A    between atoms: C12_20  and  C3_11 
ROOT
HETATM    1  O1  UNK     1      33.134 -11.406  30.881  1.00  0.00    -0.292 OA
HETATM    2  O2  UNK     1      36.012  -8.368  30.940  1.00  0.00    -0.274 OA
HETATM    3  O4  UNK     1      34.718  -7.111  29.545  1.00  0.00    -0.259 OA
HETATM    4  C1  UNK     1      32.540  -8.992  29.444  1.00  0.00     0.104 C 
HETATM    5  C2  UNK     1      33.831  -9.213  30.212  1.00  0.00     0.066 A 
HETATM    6  C3  UNK     1      31.726 -10.270  29.331  1.00  0.00     0.081 C 
HETATM    7  C4  UNK     1      34.043 -10.362  30.872  1.00  0.00     0.104 A 
HETATM    8  C6  UNK     1      35.265 -10.575  31.642  1.00  0.00     0.033 A 
HETATM    9  C7  UNK     1      32.027 -11.386  30.030  1.00  0.00     0.155 C 
HETATM   10  C8  UNK     1      34.863  -8.144  30.190  1.00  0.00     0.298 A 
HETATM   11  C9  UNK     1      36.220  -9.561  31.658  1.00  0.00     0.092 A 
HETATM   12  C13 UNK     1      35.531 -11.742  32.369  1.00  0.00     0.017 A 
HETATM   13  C14 UNK     1      37.413  -9.677  32.370  1.00  0.00     0.038 A 
HETATM   14  C17 UNK     1      36.723 -11.873  33.088  1.00  0.00     0.001 A 
HETATM   15  C19 UNK     1      37.663 -10.841  33.089  1.00  0.00     0.003 A 
ENDROOT
BRANCH   4  16
HETATM   16  C5  UNK     1      31.724  -7.913  30.094  1.00  0.00    -0.043 A 
HETATM   17  C10 UNK     1      31.370  -8.030  31.433  1.00  0.00     0.033 A 
HETATM   18  C15 UNK     1      30.612  -7.027  32.037  1.00  0.00     0.056 A 
HETATM   19 Cl1  UNK     1      30.200  -7.219  33.705  1.00  0.00    -0.083 Cl
HETATM   20  C18 UNK     1      30.213  -5.914  31.298  1.00  0.00     0.055 A 
HETATM   21  C16 UNK     1      30.572  -5.803  29.954  1.00  0.00     0.026 A 
HETATM   22 Cl2  UNK     1      29.272  -4.639  31.990  1.00  0.00    -0.083 Cl
HETATM   23  C11 UNK     1      31.330  -6.806  29.351  1.00  0.00     0.010 A 
ENDBRANCH   4  16
BRANCH   6  24
HETATM   24  C12 UNK     1      30.593 -10.244  28.390  1.00  0.00     0.294 C 
HETATM   25  O5  UNK     1      30.711  -9.966  27.212  1.00  0.00    -0.259 OA
BRANCH  24  26
HETATM   26  O3  UNK     1      29.468 -10.573  29.068  1.00  0.00    -0.318 OA
BRANCH  26  27
HETATM   27  C20 UNK     1      28.304  -9.821  28.710  1.00  0.00     0.174 C 
HETATM   28  C21 UNK     1      28.056  -8.765  29.766  1.00  0.00     0.034 C 
ENDBRANCH  26  27
ENDBRANCH  24  26
ENDBRANCH   6  24
BRANCH   9  29
HETATM   29  N1  UNK     1      31.345 -12.569  30.003  1.00  0.00    -0.379 N 
HETATM   30  H7  UNK     1      30.667 -12.727  29.267  1.00  0.00     0.158 HD
HETATM   31  H8  UNK     1      31.510 -13.276  30.706  1.00  0.00     0.158 HD
ENDBRANCH   9  29
TORSDOF 5
ENDMDL
MODEL 3
REMARK VINA RESULT:      -7.5      0.875      1.440
REMARK  5 active torsions:
REMARK  status: ('A' for Active; 'I' for Inactive)
REMARK    1  A    between atoms: C12_20  and  O3_5 
REMARK    2  A    between atoms: C20_28  and  O3_5 
REMARK    3  A    between atoms: C7_15  and  N1_8 
REMARK    4  A    between atoms: C1_9  and  C5_13 
REMARK    5  A    between atoms: C12_20  and  C3_11 
ROOT
HETATM    1  O1  UNK     1      30.172  -5.859  34.213  1.00  0.00    -0.292 OA
HETATM    2  O2  UNK     1      29.105  -9.641  32.772  1.00  0.00    -0.274 OA
HETATM    3  O4  UNK     1      30.262 -10.621  34.474  1.00  0.00    -0.259 OA
HETATM    4  C1  UNK     1      31.022  -8.144  35.732  1.00  0.00     0.104 C 
HETATM    5  C2  UNK     1      30.216  -8.244  34.450  1.00  0.00     0.066 A 
HETATM    6  C3  UNK     1      31.520  -6.728  35.975  1.00  0.00     0.081 C 
HETATM    7  C4  UNK     1      29.841  -7.136  33.792  1.00  0.00     0.104 A 
HETATM    8  C6  UNK     1      29.037  -7.216  32.576  1.00  0.00     0.033 A 
HETATM    9  C7  UNK     1      31.091  -5.674  35.249  1.00  0.00     0.155 C 
HETATM   10  C8  UNK     1      29.880  -9.593  33.925  1.00  0.00     0.298 A 
HETATM   11  C9  UNK     1      28.685  -8.477  32.100  1.00  0.00     0.092 A 
HETATM   12  C13 UNK     1      28.597  -6.095  31.861  1.00  0.00     0.017 A 
HETATM   13  C14 UNK     1      27.916  -8.648  30.950  1.00  0.00     0.038 A 
HETATM   14  C17 UNK     1      27.825  -6.250  30.705  1.00  0.00     0.001 A 
HETATM   15  C19 UNK     1      27.484  -7.525  30.251  1.00  0.00     0.003 A 
ENDROOT
BRANCH   4  16
HETATM   16  C5  UNK     1      30.206  -8.615  36.900  1.00  0.00    -0.043 A 
HETATM   17  C10 UNK     1      28.948  -8.068  37.125  1.00  0.00     0.033 A 
HETATM   18  C15 UNK     1      28.189  -8.506  38.211  1.00  0.00     0.056 A 
HETATM   19 Cl1  UNK     1      26.630  -7.796  38.446  1.00  0.00    -0.083 Cl
HETATM   20  C18 UNK     1      28.694  -9.488  39.064  1.00  0.00     0.055 A 
HETATM   21  C16 UNK     1      29.958 -10.031  38.831  1.00  0.00     0.026 A 
HETATM   22 Cl2  UNK     1      27.802 -10.071  40.426  1.00  0.00    -0.083 Cl
HETATM   23  C11 UNK     1      30.716  -9.593  37.745  1.00  0.00     0.010 A 
ENDBRANCH   4  16
BRANCH   6  24
HETATM   24  C12 UNK     1      32.527  -6.562  37.038  1.00  0.00     0.294 C 
HETATM   25  O5  UNK     1      32.282  -6.052  38.114  1.00  0.00    -0.259 OA
BRANCH  24  26
HETATM   26  O3  UNK     1      33.703  -7.063  36.593  1.00  0.00    -0.318 OA
BRANCH  26  27
HETATM   27  C20 UNK     1      34.820  -6.175  36.704  1.00  0.00     0.174 C 
HETATM   28  C21 UNK     1      34.972  -5.410  35.407  1.00  0.00     0.034 C 
ENDBRANCH  26  27
ENDBRANCH  24  26
ENDBRANCH   6  24
BRANCH   9  29
HETATM   29  N1  UNK     1      31.471  -4.372  35.407  1.00  0.00    -0.379 N 
HETATM   30  H7  UNK     1      32.323  -4.052  34.964  1.00  0.00     0.158 HD
HETATM   31  H8  UNK     1      30.913  -3.735  35.961  1.00  0.00     0.158 HD
ENDBRANCH   9  29
TORSDOF 5
ENDMDL
MODEL 4
REMARK VINA RESULT:      -7.5      2.770      4.085
REMARK  5 active torsions:
REMARK  status: ('A' for Active; 'I' for Inactive)
REMARK    1  A    between atoms: C12_20  and  O3_5 
REMARK    2  A    between atoms: C20_28  and  O3_5 
REMARK    3  A    between atoms: C7_15  and  N1_8 
REMARK    4  A    between atoms: C1_9  and  C5_13 
REMARK    5  A    between atoms: C12_20  and  C3_11 
ROOT
HETATM    1  O1  UNK     1      30.738 -10.199  33.578  1.00  0.00    -0.292 OA
HETATM    2  O2  UNK     1      27.907  -7.572  31.965  1.00  0.00    -0.274 OA
HETATM    3  O4  UNK     1      27.658  -6.583  34.003  1.00  0.00    -0.259 OA
HETATM    4  C1  UNK     1      29.661  -8.183  35.316  1.00  0.00     0.104 C 
HETATM    5  C2  UNK     1      29.256  -8.337  33.861  1.00  0.00     0.066 A 
HETATM    6  C3  UNK     1      30.505  -9.353  35.792  1.00  0.00     0.081 C 
HETATM    7  C4  UNK     1      29.805  -9.295  33.099  1.00  0.00     0.104 A 
HETATM    8  C6  UNK     1      29.450  -9.434  31.689  1.00  0.00     0.033 A 
HETATM    9  C7  UNK     1      31.005 -10.278  34.946  1.00  0.00     0.155 C 
HETATM   10  C8  UNK     1      28.218  -7.426  33.312  1.00  0.00     0.298 A 
HETATM   11  C9  UNK     1      28.507  -8.558  31.157  1.00  0.00     0.092 A 
HETATM   12  C13 UNK     1      30.006 -10.398  30.840  1.00  0.00     0.017 A 
HETATM   13  C14 UNK     1      28.111  -8.615  29.822  1.00  0.00     0.038 A 
HETATM   14  C17 UNK     1      29.620 -10.468  29.498  1.00  0.00     0.001 A 
HETATM   15  C19 UNK     1      28.675  -9.577  28.989  1.00  0.00     0.003 A 
ENDROOT
BRANCH   4  16
HETATM   16  C5  UNK     1      30.400  -6.893  35.518  1.00  0.00    -0.043 A 
HETATM   17  C10 UNK     1      30.006  -6.024  36.529  1.00  0.00     0.033 A 
HETATM   18  C15 UNK     1      30.694  -4.826  36.717  1.00  0.00     0.056 A 
HETATM   19 Cl1  UNK     1      30.166  -3.782  37.990  1.00  0.00    -0.083 Cl
HETATM   20  C18 UNK     1      31.772  -4.503  35.891  1.00  0.00     0.055 A 
HETATM   21  C16 UNK     1      32.161  -5.380  34.878  1.00  0.00     0.026 A 
HETATM   22 Cl2  UNK     1      32.663  -3.033  36.074  1.00  0.00    -0.083 Cl
HETATM   23  C11 UNK     1      31.473  -6.579  34.692  1.00  0.00     0.010 A 
ENDBRANCH   4  16
BRANCH   6  24
HETATM   24  C12 UNK     1      30.734  -9.447  37.245  1.00  0.00     0.294 C 
HETATM   25  O5  UNK     1      29.852  -9.698  38.044  1.00  0.00    -0.259 OA
BRANCH  24  26
HETATM   26  O3  UNK     1      32.045  -9.211  37.486  1.00  0.00    -0.318 OA
BRANCH  26  27
HETATM   27  C20 UNK     1      32.312  -8.080  38.322  1.00  0.00     0.174 C 
HETATM   28  C21 UNK     1      33.496  -7.322  37.762  1.00  0.00     0.034 C 
ENDBRANCH  26  27
ENDBRANCH  24  26
ENDBRANCH   6  24
BRANCH   9  29
HETATM   29  N1  UNK     1      31.783 -11.349  35.283  1.00  0.00    -0.379 N 
HETATM   30  H7  UNK     1      31.335 -12.223  35.530  1.00  0.00     0.158 HD
HETATM   31  H8  UNK     1      32.792 -11.273  35.289  1.00  0.00     0.158 HD
ENDBRANCH   9  29
TORSDOF 5
ENDMDL
MODEL 5
REMARK VINA RESULT:      -7.4      3.442      5.756
REMARK  5 active torsions:
REMARK  status: ('A' for Active; 'I' for Inactive)
REMARK    1  A    between atoms: C12_20  and  O3_5 
REMARK    2  A    between atoms: C20_28  and  O3_5 
REMARK    3  A    between atoms: C7_15  and  N1_8 
REMARK    4  A    between atoms: C1_9  and  C5_13 
REMARK    5  A    between atoms: C12_20  and  C3_11 
ROOT
HETATM    1  O1  UNK     1      30.712  -6.726  38.153  1.00  0.00    -0.292 OA
HETATM    2  O2  UNK     1      27.279  -7.478  35.881  1.00  0.00    -0.274 OA
HETATM    3  O4  UNK     1      28.198  -6.365  34.116  1.00  0.00    -0.259 OA
HETATM    4  C1  UNK     1      30.707  -5.831  35.424  1.00  0.00     0.104 C 
HETATM    5  C2  UNK     1      29.539  -6.552  36.071  1.00  0.00     0.066 A 
HETATM    6  C3  UNK     1      31.759  -5.434  36.447  1.00  0.00     0.081 C 
HETATM    7  C4  UNK     1      29.609  -6.955  37.349  1.00  0.00     0.104 A 
HETATM    8  C6  UNK     1      28.505  -7.679  37.973  1.00  0.00     0.033 A 
HETATM    9  C7  UNK     1      31.737  -5.882  37.721  1.00  0.00     0.155 C 
HETATM   10  C8  UNK     1      28.309  -6.776  35.267  1.00  0.00     0.298 A 
HETATM   11  C9  UNK     1      27.365  -7.927  37.213  1.00  0.00     0.092 A 
HETATM   12  C13 UNK     1      28.531  -8.143  39.294  1.00  0.00     0.017 A 
HETATM   13  C14 UNK     1      26.266  -8.615  37.726  1.00  0.00     0.038 A 
HETATM   14  C17 UNK     1      27.437  -8.835  39.823  1.00  0.00     0.001 A 
HETATM   15  C19 UNK     1      26.306  -9.072  39.040  1.00  0.00     0.003 A 
ENDROOT
BRANCH   4  16
HETATM   16  C5  UNK     1      31.321  -6.684  34.353  1.00  0.00    -0.043 A 
HETATM   17  C10 UNK     1      31.781  -7.958  34.667  1.00  0.00     0.033 A 
HETATM   18  C15 UNK     1      32.351  -8.751  33.672  1.00  0.00     0.056 A 
HETATM   19 Cl1  UNK     1      32.904 -10.328  34.114  1.00  0.00    -0.083 Cl
HETATM   20  C18 UNK     1      32.457  -8.265  32.368  1.00  0.00     0.055 A 
HETATM   21  C16 UNK     1      31.994  -6.986  32.061  1.00  0.00     0.026 A 
HETATM   22 Cl2  UNK     1      33.154  -9.200  31.092  1.00  0.00    -0.083 Cl
HETATM   23  C11 UNK     1      31.423  -6.193  33.057  1.00  0.00     0.010 A 
ENDBRANCH   4  16
BRANCH   6  24
HETATM   24  C12 UNK     1      32.804  -4.503  35.985  1.00  0.00     0.294 C 
HETATM   25  O5  UNK     1      32.589  -3.333  35.731  1.00  0.00    -0.259 OA
BRANCH  24  26
HETATM   26  O3  UNK     1      33.974  -5.180  35.908  1.00  0.00    -0.318 OA
BRANCH  26  27
HETATM   27  C20 UNK     1      34.779  -4.868  34.767  1.00  0.00     0.174 C 
HETATM   28  C21 UNK     1      35.093  -6.148  34.022  1.00  0.00     0.034 C 
ENDBRANCH  26  27
ENDBRANCH  24  26
ENDBRANCH   6  24
BRANCH   9  29
HETATM   29  N1  UNK     1      32.646  -5.591  38.698  1.00  0.00    -0.379 N 
HETATM   30  H7  UNK     1      32.646  -6.143  39.547  1.00  0.00     0.158 HD
HETATM   31  H8  UNK     1      33.308  -4.836  38.580  1.00  0.00     0.158 HD
ENDBRANCH   9  29
TORSDOF 5
ENDMDL
MODEL 6
REMARK VINA RESULT:      -7.2      1.672      1.706
REMARK  5 active torsions:
REMARK  status: ('A' for Active; 'I' for Inactive)
REMARK    1  A    between atoms: C12_20  and  O3_5 
REMARK    2  A    between atoms: C20_28  and  O3_5 
REMARK    3  A    between atoms: C7_15  and  N1_8 
REMARK    4  A    between atoms: C1_9  and  C5_13 
REMARK    5  A    between atoms: C12_20  and  C3_11 
ROOT
HETATM    1  O1  UNK     1      31.407  -5.729  33.554  1.00  0.00    -0.292 OA
HETATM    2  O2  UNK     1      31.466  -9.716  32.282  1.00  0.00    -0.274 OA
HETATM    3  O4  UNK     1      32.348 -10.346  34.287  1.00  0.00    -0.259 OA
HETATM    4  C1  UNK     1      32.291  -7.707  35.438  1.00  0.00     0.104 C 
HETATM    5  C2  UNK     1      31.852  -8.036  34.023  1.00  0.00     0.066 A 
HETATM    6  C3  UNK     1      32.433  -6.209  35.649  1.00  0.00     0.081 C 
HETATM    7  C4  UNK     1      31.438  -7.065  33.194  1.00  0.00     0.104 A 
HETATM    8  C6  UNK     1      30.981  -7.372  31.842  1.00  0.00     0.033 A 
HETATM    9  C7  UNK     1      31.997  -5.305  34.747  1.00  0.00     0.155 C 
HETATM   10  C8  UNK     1      31.918  -9.450  33.569  1.00  0.00     0.298 A 
HETATM   11  C9  UNK     1      31.004  -8.699  31.423  1.00  0.00     0.092 A 
HETATM   12  C13 UNK     1      30.518  -6.404  30.942  1.00  0.00     0.017 A 
HETATM   13  C14 UNK     1      30.581  -9.084  30.151  1.00  0.00     0.038 A 
HETATM   14  C17 UNK     1      30.091  -6.774  29.662  1.00  0.00     0.001 A 
HETATM   15  C19 UNK     1      30.122  -8.112  29.268  1.00  0.00     0.003 A 
ENDROOT
BRANCH   4  16
HETATM   16  C5  UNK     1      31.325  -8.282  36.433  1.00  0.00    -0.043 A 
HETATM   17  C10 UNK     1      29.977  -7.953  36.351  1.00  0.00     0.033 A 
HETATM   18  C15 UNK     1      29.079  -8.487  37.275  1.00  0.00     0.056 A 
HETATM   19 Cl1  UNK     1      27.413  -8.049  37.129  1.00  0.00    -0.083 Cl
HETATM   20  C18 UNK     1      29.536  -9.347  38.275  1.00  0.00     0.055 A 
HETATM   21  C16 UNK     1      30.890  -9.672  38.350  1.00  0.00     0.026 A 
HETATM   22 Cl2  UNK     1      28.472 -10.040  39.448  1.00  0.00    -0.083 Cl
HETATM   23  C11 UNK     1      31.787  -9.138  37.425  1.00  0.00     0.010 A 
ENDBRANCH   4  16
BRANCH   6  24
HETATM   24  C12 UNK     1      33.104  -5.783  36.890  1.00  0.00     0.294 C 
HETATM   25  O5  UNK     1      34.175  -6.228  37.256  1.00  0.00    -0.259 OA
BRANCH  24  26
HETATM   26  O3  UNK     1      32.328  -4.854  37.497  1.00  0.00    -0.318 OA
BRANCH  26  27
HETATM   27  C20 UNK     1      31.544  -5.342  38.591  1.00  0.00     0.174 C 
HETATM   28  C21 UNK     1      30.129  -4.824  38.453  1.00  0.00     0.034 C 
ENDBRANCH  26  27
ENDBRANCH  24  26
ENDBRANCH   6  24
BRANCH   9  29
HETATM   29  N1  UNK     1      32.068  -3.946  34.860  1.00  0.00    -0.379 N 
HETATM   30  H7  UNK     1      31.824  -3.373  34.062  1.00  0.00     0.158 HD
HETATM   31  H8  UNK     1      32.363  -3.515  35.726  1.00  0.00     0.158 HD
ENDBRANCH   9  29
TORSDOF 5
ENDMDL
MODEL 7
REMARK VINA RESULT:      -7.2      3.783      5.753
REMARK  5 active torsions:
REMARK  status: ('A' for Active; 'I' for Inactive)
REMARK    1  A    between atoms: C12_20  and  O3_5 
REMARK    2  A    between atoms: C20_28  and  O3_5 
REMARK    3  A    between atoms: C7_15  and  N1_8 
REMARK    4  A    between atoms: C1_9  and  C5_13 
REMARK    5  A    between atoms: C12_20  and  C3_11 
ROOT
HETATM    1  O1  UNK     1      30.805  -6.642  38.110  1.00  0.00    -0.292 OA
HETATM    2  O2  UNK     1      27.391  -7.408  35.813  1.00  0.00    -0.274 OA
HETATM    3  O4  UNK     1      28.379  -6.424  34.010  1.00  0.00    -0.259 OA
HETATM    4  C1  UNK     1      30.880  -5.898  35.337  1.00  0.00     0.104 C 
HETATM    5  C2  UNK     1      29.676  -6.546  35.998  1.00  0.00     0.066 A 
HETATM    6  C3  UNK     1      31.925  -5.479  36.358  1.00  0.00     0.081 C 
HETATM    7  C4  UNK     1      29.709  -6.879  37.297  1.00  0.00     0.104 A 
HETATM    8  C6  UNK     1      28.572  -7.533  37.937  1.00  0.00     0.033 A 
HETATM    9  C7  UNK     1      31.865  -5.856  37.653  1.00  0.00     0.155 C 
HETATM   10  C8  UNK     1      28.455  -6.774  35.183  1.00  0.00     0.298 A 
HETATM   11  C9  UNK     1      27.438  -7.786  37.169  1.00  0.00     0.092 A 
HETATM   12  C13 UNK     1      28.557  -7.924  39.282  1.00  0.00     0.017 A 
HETATM   13  C14 UNK     1      26.308  -8.410  37.696  1.00  0.00     0.038 A 
HETATM   14  C17 UNK     1      27.431  -8.551  39.826  1.00  0.00     0.001 A 
HETATM   15  C19 UNK     1      26.309  -8.795  39.034  1.00  0.00     0.003 A 
ENDROOT
BRANCH   4  16
HETATM   16  C5  UNK     1      31.485  -6.828  34.327  1.00  0.00    -0.043 A 
HETATM   17  C10 UNK     1      31.504  -6.468  32.984  1.00  0.00     0.033 A 
HETATM   18  C15 UNK     1      32.066  -7.333  32.045  1.00  0.00     0.056 A 
HETATM   19 Cl1  UNK     1      32.067  -6.837  30.389  1.00  0.00    -0.083 Cl
HETATM   20  C18 UNK     1      32.606  -8.552  32.456  1.00  0.00     0.055 A 
HETATM   21  C16 UNK     1      32.583  -8.907  33.805  1.00  0.00     0.026 A 
HETATM   22 Cl2  UNK     1      33.316  -9.666  31.340  1.00  0.00    -0.083 Cl
HETATM   23  C11 UNK     1      32.021  -8.041  34.743  1.00  0.00     0.010 A 
ENDBRANCH   4  16
BRANCH   6  24
HETATM   24  C12 UNK     1      33.008  -4.609  35.867  1.00  0.00     0.294 C 
HETATM   25  O5  UNK     1      32.857  -3.425  35.634  1.00  0.00    -0.259 OA
BRANCH  24  26
HETATM   26  O3  UNK     1      34.130  -5.356  35.740  1.00  0.00    -0.318 OA
BRANCH  26  27
HETATM   27  C20 UNK     1      34.849  -5.163  34.518  1.00  0.00     0.174 C 
HETATM   28  C21 UNK     1      35.400  -6.495  34.055  1.00  0.00     0.034 C 
ENDBRANCH  26  27
ENDBRANCH  24  26
ENDBRANCH   6  24
BRANCH   9  29
HETATM   29  N1  UNK     1      32.764  -5.541  38.632  1.00  0.00    -0.379 N 
HETATM   30  H7  UNK     1      32.704  -4.635  39.081  1.00  0.00     0.158 HD
HETATM   31  H8  UNK     1      33.483  -6.199  38.904  1.00  0.00     0.158 HD
ENDBRANCH   9  29
TORSDOF 5
ENDMDL
MODEL 8
REMARK VINA RESULT:      -7.2      3.219      5.881
REMARK  5 active torsions:
REMARK  status: ('A' for Active; 'I' for Inactive)
REMARK    1  A    between atoms: C12_20  and  O3_5 
REMARK    2  A    between atoms: C20_28  and  O3_5 
REMARK    3  A    between atoms: C7_15  and  N1_8 
REMARK    4  A    between atoms: C1_9  and  C5_13 
REMARK    5  A    between atoms: C12_20  and  C3_11 
ROOT
HETATM    1  O1  UNK     1      31.099  -8.795  36.764  1.00  0.00    -0.292 OA
HETATM    2  O2  UNK     1      27.083  -7.675  37.125  1.00  0.00    -0.274 OA
HETATM    3  O4  UNK     1      27.296  -6.312  35.310  1.00  0.00    -0.259 OA
HETATM    4  C1  UNK     1      30.036  -7.018  34.774  1.00  0.00     0.104 C 
HETATM    5  C2  UNK     1      29.221  -7.561  35.933  1.00  0.00     0.066 A 
HETATM    6  C3  UNK     1      31.515  -7.331  34.932  1.00  0.00     0.081 C 
HETATM    7  C4  UNK     1      29.775  -8.397  36.824  1.00  0.00     0.104 A 
HETATM    8  C6  UNK     1      28.993  -8.953  37.925  1.00  0.00     0.033 A 
HETATM    9  C7  UNK     1      31.981  -8.180  35.872  1.00  0.00     0.155 C 
HETATM   10  C8  UNK     1      27.808  -7.122  36.076  1.00  0.00     0.298 A 
HETATM   11  C9  UNK     1      27.657  -8.577  38.041  1.00  0.00     0.092 A 
HETATM   12  C13 UNK     1      29.511  -9.847  38.870  1.00  0.00     0.017 A 
HETATM   13  C14 UNK     1      26.835  -9.062  39.058  1.00  0.00     0.038 A 
HETATM   14  C17 UNK     1      28.699 -10.343  39.896  1.00  0.00     0.001 A 
HETATM   15  C19 UNK     1      27.362  -9.952  39.989  1.00  0.00     0.003 A 
ENDROOT
BRANCH   4  16
HETATM   16  C5  UNK     1      29.525  -7.566  33.474  1.00  0.00    -0.043 A 
HETATM   17  C10 UNK     1      29.045  -6.696  32.502  1.00  0.00     0.033 A 
HETATM   18  C15 UNK     1      28.571  -7.206  31.293  1.00  0.00     0.056 A 
HETATM   19 Cl1  UNK     1      27.987  -6.082  30.116  1.00  0.00    -0.083 Cl
HETATM   20  C18 UNK     1      28.579  -8.582  31.065  1.00  0.00     0.055 A 
HETATM   21  C16 UNK     1      29.062  -9.449  32.046  1.00  0.00     0.026 A 
HETATM   22 Cl2  UNK     1      28.003  -9.274  29.589  1.00  0.00    -0.083 Cl
HETATM   23  C11 UNK     1      29.537  -8.938  33.254  1.00  0.00     0.010 A 
ENDBRANCH   4  16
BRANCH   6  24
HETATM   24  C12 UNK     1      32.433  -6.633  34.014  1.00  0.00     0.294 C 
HETATM   25  O5  UNK     1      33.232  -7.211  33.303  1.00  0.00    -0.259 OA
BRANCH  24  26
HETATM   26  O3  UNK     1      32.214  -5.301  34.123  1.00  0.00    -0.318 OA
BRANCH  26  27
HETATM   27  C20 UNK     1      33.141  -4.602  34.960  1.00  0.00     0.174 C 
HETATM   28  C21 UNK     1      32.370  -3.826  36.007  1.00  0.00     0.034 C 
ENDBRANCH  26  27
ENDBRANCH  24  26
ENDBRANCH   6  24
BRANCH   9  29
HETATM   29  N1  UNK     1      33.285  -8.530  36.074  1.00  0.00    -0.379 N 
HETATM   30  H7  UNK     1      33.761  -8.194  36.902  1.00  0.00     0.158 HD
HETATM   31  H8  UNK     1      33.772  -9.115  35.407  1.00  0.00     0.158 HD
ENDBRANCH   9  29
TORSDOF 5
ENDMDL
MODEL 9
REMARK VINA RESULT:      -7.1      3.378      4.749
REMARK  5 active torsions:
REMARK  status: ('A' for Active; 'I' for Inactive)
REMARK    1  A    between atoms: C12_20  and  O3_5 
REMARK    2  A    between atoms: C20_28  and  O3_5 
REMARK    3  A    between atoms: C7_15  and  N1_8 
REMARK    4  A    between atoms: C1_9  and  C5_13 
REMARK    5  A    between atoms: C12_20  and  C3_11 
ROOT
HETATM    1  O1  UNK     1      29.606  -8.336  34.768  1.00  0.00    -0.292 OA
HETATM    2  O2  UNK     1      30.348  -5.072  32.255  1.00  0.00    -0.274 OA
HETATM    3  O4  UNK     1      31.789  -4.208  33.796  1.00  0.00    -0.259 OA
HETATM    4  C1  UNK     1      31.545  -6.406  35.641  1.00  0.00     0.104 C 
HETATM    5  C2  UNK     1      30.788  -6.298  34.330  1.00  0.00     0.066 A 
HETATM    6  C3  UNK     1      30.985  -7.508  36.525  1.00  0.00     0.081 C 
HETATM    7  C4  UNK     1      29.901  -7.240  33.975  1.00  0.00     0.104 A 
HETATM    8  C6  UNK     1      29.190  -7.165  32.702  1.00  0.00     0.033 A 
HETATM    9  C7  UNK     1      30.081  -8.406  36.079  1.00  0.00     0.155 C 
HETATM   10  C8  UNK     1      31.029  -5.113  33.466  1.00  0.00     0.298 A 
HETATM   11  C9  UNK     1      29.440  -6.078  31.869  1.00  0.00     0.092 A 
HETATM   12  C13 UNK     1      28.272  -8.130  32.268  1.00  0.00     0.017 A 
HETATM   13  C14 UNK     1      28.811  -5.928  30.634  1.00  0.00     0.038 A 
HETATM   14  C17 UNK     1      27.632  -7.994  31.032  1.00  0.00     0.001 A 
HETATM   15  C19 UNK     1      27.902  -6.895  30.215  1.00  0.00     0.003 A 
ENDROOT
BRANCH   4  16
HETATM   16  C5  UNK     1      33.005  -6.640  35.383  1.00  0.00    -0.043 A 
HETATM   17  C10 UNK     1      33.402  -7.717  34.599  1.00  0.00     0.033 A 
HETATM   18  C15 UNK     1      34.759  -7.934  34.360  1.00  0.00     0.056 A 
HETATM   19 Cl1  UNK     1      35.199  -9.286  33.377  1.00  0.00    -0.083 Cl
HETATM   20  C18 UNK     1      35.710  -7.072  34.906  1.00  0.00     0.055 A 
HETATM   21  C16 UNK     1      35.304  -5.993  35.691  1.00  0.00     0.026 A 
HETATM   22 Cl2  UNK     1      37.405  -7.289  34.645  1.00  0.00    -0.083 Cl
HETATM   23  C11 UNK     1      33.947  -5.776  35.930  1.00  0.00     0.010 A 
ENDBRANCH   4  16
BRANCH   6  24
HETATM   24  C12 UNK     1      31.461  -7.534  37.920  1.00  0.00     0.294 C 
HETATM   25  O5  UNK     1      31.975  -8.511  38.430  1.00  0.00    -0.259 OA
BRANCH  24  26
HETATM   26  O3  UNK     1      31.221  -6.322  38.474  1.00  0.00    -0.318 OA
BRANCH  26  27
HETATM   27  C20 UNK     1      29.849  -6.063  38.789  1.00  0.00     0.174 C 
HETATM   28  C21 UNK     1      29.630  -4.566  38.841  1.00  0.00     0.034 C 
ENDBRANCH  26  27
ENDBRANCH  24  26
ENDBRANCH   6  24
BRANCH   9  29
HETATM   29  N1  UNK     1      29.538  -9.434  36.796  1.00  0.00    -0.379 N 
HETATM   30  H7  UNK     1      29.842  -9.581  37.750  1.00  0.00     0.158 HD
HETATM   31  H8  UNK     1      28.844 -10.042  36.381  1.00  0.00     0.158 HD
ENDBRANCH   9  29
TORSDOF 5
ENDMDL
MODEL 10
REMARK VINA RESULT:      -7.1      2.790      4.259
REMARK  5 active torsions:
REMARK  status: ('A' for Active; 'I' for Inactive)
REMARK    1  A    between atoms: C12_20  and  O3_5 
REMARK    2  A    between atoms: C20_28  and  O3_5 
REMARK    3  A    between atoms: C7_15  and  N1_8 
REMARK    4  A    between atoms: C1_9  and  C5_13 
REMARK    5  A    between atoms: C12_20  and  C3_11 
ROOT
HETATM    1  O1  UNK     1      30.738 -10.368  33.601  1.00  0.00    -0.292 OA
HETATM    2  O2  UNK     1      28.074  -7.688  31.802  1.00  0.00    -0.274 OA
HETATM    3  O4  UNK     1      27.741  -6.664  33.811  1.00  0.00    -0.259 OA
HETATM    4  C1  UNK     1      29.623  -8.299  35.252  1.00  0.00     0.104 C 
HETATM    5  C2  UNK     1      29.295  -8.463  33.779  1.00  0.00     0.066 A 
HETATM    6  C3  UNK     1      30.407  -9.485  35.789  1.00  0.00     0.081 C 
HETATM    7  C4  UNK     1      29.859  -9.445  33.060  1.00  0.00     0.104 A 
HETATM    8  C6  UNK     1      29.577  -9.594  31.635  1.00  0.00     0.033 A 
HETATM    9  C7  UNK     1      30.927 -10.435  34.983  1.00  0.00     0.155 C 
HETATM   10  C8  UNK     1      28.315  -7.532  33.162  1.00  0.00     0.298 A 
HETATM   11  C9  UNK     1      28.690  -8.700  31.041  1.00  0.00     0.092 A 
HETATM   12  C13 UNK     1      30.153 -10.585  30.830  1.00  0.00     0.017 A 
HETATM   13  C14 UNK     1      28.367  -8.765  29.686  1.00  0.00     0.038 A 
HETATM   14  C17 UNK     1      29.839 -10.663  29.469  1.00  0.00     0.001 A 
HETATM   15  C19 UNK     1      28.948  -9.753  28.898  1.00  0.00     0.003 A 
ENDROOT
BRANCH   4  16
HETATM   16  C5  UNK     1      30.386  -7.027  35.479  1.00  0.00    -0.043 A 
HETATM   17  C10 UNK     1      29.956  -6.130  36.449  1.00  0.00     0.033 A 
HETATM   18  C15 UNK     1      30.666  -4.948  36.660  1.00  0.00     0.056 A 
HETATM   19 Cl1  UNK     1      30.090  -3.867  37.881  1.00  0.00    -0.083 Cl
HETATM   20  C18 UNK     1      31.801  -4.670  35.898  1.00  0.00     0.055 A 
HETATM   21  C16 UNK     1      32.227  -5.576  34.926  1.00  0.00     0.026 A 
HETATM   22 Cl2  UNK     1      32.722  -3.223  36.112  1.00  0.00    -0.083 Cl
HETATM   23  C11 UNK     1      31.517  -6.758  34.716  1.00  0.00     0.010 A 
ENDBRANCH   4  16
BRANCH   6  24
HETATM   24  C12 UNK     1      30.553  -9.565  37.253  1.00  0.00     0.294 C 
HETATM   25  O5  UNK     1      31.624  -9.718  37.809  1.00  0.00    -0.259 OA
BRANCH  24  26
HETATM   26  O3  UNK     1      29.325  -9.440  37.811  1.00  0.00    -0.318 OA
BRANCH  26  27
HETATM   27  C20 UNK     1      29.229  -9.887  39.167  1.00  0.00     0.174 C 
HETATM   28  C21 UNK     1      27.789  -9.778  39.620  1.00  0.00     0.034 C 
ENDBRANCH  26  27
ENDBRANCH  24  26
ENDBRANCH   6  24
BRANCH   9  29
HETATM   29  N1  UNK     1      31.656 -11.522  35.375  1.00  0.00    -0.379 N 
HETATM   30  H7  UNK     1      31.434 -12.429  34.983  1.00  0.00     0.158 HD
HETATM   31  H8  UNK     1      32.404 -11.426  36.050  1.00  0.00     0.158 HD
ENDBRANCH   9  29
TORSDOF 5
ENDMDL
