MODEL 1
REMARK VINA RESULT:      -9.8      0.000      0.000
REMARK  4 active torsions:
REMARK  status: ('A' for Active; 'I' for Inactive)
REMARK    1  A    between atoms: C13_19  and  O3_3 
REMARK    2  A    between atoms: N1_5  and  N2_6 
REMARK       I    between atoms: C15_21  and  N2_6 
REMARK    3  A    between atoms: C11_17  and  C7_13 
REMARK    4  A    between atoms: C12_18  and  C15_21 
ROOT
HETATM    1  N1  UNK     1      18.686   4.416  30.965  1.00  0.00    -0.183 NA
HETATM    2  C11 UNK     1      18.474   4.773  32.190  1.00  0.00     0.156 C 
ENDROOT
BRANCH   1   3
HETATM    3  N2  UNK     1      19.257   3.195  30.837  1.00  0.00    -0.243 N 
HETATM    4  C15 UNK     1      18.508   2.170  30.290  1.00  0.00     0.274 C 
HETATM    5  O4  UNK     1      17.347   2.279  29.903  1.00  0.00    -0.266 OA
HETATM    6  H12 UNK     1      20.196   3.077  31.204  1.00  0.00     0.192 HD
BRANCH   4   7
HETATM    7  C12 UNK     1      19.186   0.851  30.199  1.00  0.00     0.066 A 
HETATM    8  C13 UNK     1      19.349   0.083  31.334  1.00  0.00     0.081 A 
HETATM    9  C16 UNK     1      19.989  -1.152  31.228  1.00  0.00     0.037 A 
HETATM   10  C18 UNK     1      20.453  -1.592  29.988  1.00  0.00     0.003 A 
HETATM   11  C17 UNK     1      20.277  -0.798  28.855  1.00  0.00     0.001 A 
HETATM   12  C14 UNK     1      19.637   0.437  28.961  1.00  0.00     0.020 A 
BRANCH   8  13
HETATM   13  O3  UNK     1      18.904   0.495  32.554  1.00  0.00    -0.360 OA
HETATM   14  H14 UNK     1      19.019  -0.226  33.196  1.00  0.00     0.217 HD
ENDBRANCH   8  13
ENDBRANCH   4   7
ENDBRANCH   1   3
BRANCH   2  15
HETATM   15  C7  UNK     1      17.865   6.056  32.540  1.00  0.00     0.056 A 
HETATM   16  C5  UNK     1      18.636   7.226  33.017  1.00  0.00     0.198 A 
HETATM   17  C1  UNK     1      17.851   8.436  33.322  1.00  0.00     0.049 A 
HETATM   18  O2  UNK     1      19.851   7.193  33.151  1.00  0.00    -0.286 OA
HETATM   19  C2  UNK     1      16.465   8.408  33.148  1.00  0.00     0.089 A 
HETATM   20  C4  UNK     1      18.479   9.597  33.778  1.00  0.00     0.025 A 
HETATM   21  O1  UNK     1      15.794   7.296  32.702  1.00  0.00    -0.321 OA
HETATM   22  C6  UNK     1      15.703   9.542  33.431  1.00  0.00     0.039 A 
HETATM   23  C9  UNK     1      16.539   6.174  32.421  1.00  0.00     0.159 A 
HETATM   24  C8  UNK     1      16.329  10.701  33.888  1.00  0.00     0.009 A 
HETATM   25  C3  UNK     1      17.714  10.729  34.061  1.00  0.00    -0.061 A 
HETATM   26  C10 UNK     1      18.377  11.973  34.549  1.00  0.00     0.048 C 
ENDBRANCH   2  15
TORSDOF 4
ENDMDL
MODEL 2
REMARK VINA RESULT:      -9.6      0.782      1.986
REMARK  4 active torsions:
REMARK  status: ('A' for Active; 'I' for Inactive)
REMARK    1  A    between atoms: C13_19  and  O3_3 
REMARK    2  A    between atoms: N1_5  and  N2_6 
REMARK       I    between atoms: C15_21  and  N2_6 
REMARK    3  A    between atoms: C11_17  and  C7_13 
REMARK    4  A    between atoms: C12_18  and  C15_21 
ROOT
HETATM    1  N1  UNK     1      18.906   4.674  30.806  1.00  0.00    -0.183 NA
HETATM    2  C11 UNK     1      18.943   5.016  32.053  1.00  0.00     0.156 C 
ENDROOT
BRANCH   1   3
HETATM    3  N2  UNK     1      19.398   3.436  30.560  1.00  0.00    -0.243 N 
HETATM    4  C15 UNK     1      18.521   2.368  30.550  1.00  0.00     0.274 C 
HETATM    5  O4  UNK     1      17.312   2.451  30.750  1.00  0.00    -0.266 OA
HETATM    6  H12 UNK     1      20.402   3.346  30.448  1.00  0.00     0.192 HD
BRANCH   4   7
HETATM    7  C12 UNK     1      19.128   1.035  30.296  1.00  0.00     0.066 A 
HETATM    8  C13 UNK     1      19.291   0.146  31.338  1.00  0.00     0.081 A 
HETATM    9  C16 UNK     1      19.864  -1.100  31.078  1.00  0.00     0.037 A 
HETATM   10  C18 UNK     1      20.261  -1.428  29.782  1.00  0.00     0.003 A 
HETATM   11  C17 UNK     1      20.085  -0.512  28.745  1.00  0.00     0.001 A 
HETATM   12  C14 UNK     1      19.513   0.733  29.005  1.00  0.00     0.020 A 
BRANCH   8  13
HETATM   13  O3  UNK     1      18.911   0.448  32.611  1.00  0.00    -0.360 OA
HETATM   14  H14 UNK     1      19.407   1.227  32.916  1.00  0.00     0.217 HD
ENDBRANCH   8  13
ENDBRANCH   4   7
ENDBRANCH   1   3
BRANCH   2  15
HETATM   15  C7  UNK     1      18.459   6.313  32.526  1.00  0.00     0.056 A 
HETATM   16  C5  UNK     1      17.038   6.725  32.478  1.00  0.00     0.198 A 
HETATM   17  C1  UNK     1      16.738   8.072  33.000  1.00  0.00     0.049 A 
HETATM   18  O2  UNK     1      16.164   5.994  32.034  1.00  0.00    -0.286 OA
HETATM   19  C2  UNK     1      17.783   8.857  33.493  1.00  0.00     0.089 A 
HETATM   20  C4  UNK     1      15.430   8.558  33.003  1.00  0.00     0.025 A 
HETATM   21  O1  UNK     1      19.088   8.429  33.516  1.00  0.00    -0.321 OA
HETATM   22  C6  UNK     1      17.521  10.134  33.991  1.00  0.00     0.039 A 
HETATM   23  C9  UNK     1      19.354   7.171  33.027  1.00  0.00     0.159 A 
HETATM   24  C8  UNK     1      16.214  10.622  33.993  1.00  0.00     0.009 A 
HETATM   25  C3  UNK     1      15.171   9.837  33.501  1.00  0.00    -0.061 A 
HETATM   26  C10 UNK     1      13.776  10.365  33.507  1.00  0.00     0.048 C 
ENDBRANCH   2  15
TORSDOF 4
ENDMDL
MODEL 3
REMARK VINA RESULT:      -9.4      1.653      9.251
REMARK  4 active torsions:
REMARK  status: ('A' for Active; 'I' for Inactive)
REMARK    1  A    between atoms: C13_19  and  O3_3 
REMARK    2  A    between atoms: N1_5  and  N2_6 
REMARK       I    between atoms: C15_21  and  N2_6 
REMARK    3  A    between atoms: C11_17  and  C7_13 
REMARK    4  A    between atoms: C12_18  and  C15_21 
ROOT
HETATM    1  N1  UNK     1      18.395   4.448  32.510  1.00  0.00    -0.183 NA
HETATM    2  C11 UNK     1      17.749   3.621  31.754  1.00  0.00     0.156 C 
ENDROOT
BRANCH   1   3
HETATM    3  N2  UNK     1      17.631   5.445  33.016  1.00  0.00    -0.243 N 
HETATM    4  C15 UNK     1      17.613   6.662  32.359  1.00  0.00     0.274 C 
HETATM    5  O4  UNK     1      18.244   6.915  31.336  1.00  0.00    -0.266 OA
HETATM    6  H12 UNK     1      17.148   5.267  33.890  1.00  0.00     0.192 HD
BRANCH   4   7
HETATM    7  C12 UNK     1      16.772   7.719  32.977  1.00  0.00     0.066 A 
HETATM    8  C13 UNK     1      15.973   8.513  32.181  1.00  0.00     0.081 A 
HETATM    9  C16 UNK     1      15.191   9.501  32.781  1.00  0.00     0.037 A 
HETATM   10  C18 UNK     1      15.226   9.673  34.165  1.00  0.00     0.003 A 
HETATM   11  C17 UNK     1      16.042   8.857  34.949  1.00  0.00     0.001 A 
HETATM   12  C14 UNK     1      16.823   7.870  34.349  1.00  0.00     0.020 A 
BRANCH   8  13
HETATM   13  O3  UNK     1      15.926   8.363  30.827  1.00  0.00    -0.360 OA
HETATM   14  H14 UNK     1      16.228   7.468  30.595  1.00  0.00     0.217 HD
ENDBRANCH   8  13
ENDBRANCH   4   7
ENDBRANCH   1   3
BRANCH   2  15
HETATM   15  C7  UNK     1      18.394   2.476  31.112  1.00  0.00     0.056 A 
HETATM   16  C5  UNK     1      18.793   1.249  31.836  1.00  0.00     0.198 A 
HETATM   17  C1  UNK     1      19.432   0.198  31.022  1.00  0.00     0.049 A 
HETATM   18  O2  UNK     1      18.607   1.112  33.037  1.00  0.00    -0.286 OA
HETATM   19  C2  UNK     1      19.617   0.417  29.655  1.00  0.00     0.089 A 
HETATM   20  C4  UNK     1      19.847  -1.001  31.605  1.00  0.00     0.025 A 
HETATM   21  O1  UNK     1      19.228   1.575  29.028  1.00  0.00    -0.321 OA
HETATM   22  C6  UNK     1      20.219  -0.564  28.866  1.00  0.00     0.039 A 
HETATM   23  C9  UNK     1      18.633   2.547  29.798  1.00  0.00     0.159 A 
HETATM   24  C8  UNK     1      20.635  -1.762  29.448  1.00  0.00     0.009 A 
HETATM   25  C3  UNK     1      20.450  -1.980  30.814  1.00  0.00    -0.061 A 
HETATM   26  C10 UNK     1      20.897  -3.263  31.429  1.00  0.00     0.048 C 
ENDBRANCH   2  15
TORSDOF 4
ENDMDL
MODEL 4
REMARK VINA RESULT:      -9.1     14.654     20.273
REMARK  4 active torsions:
REMARK  status: ('A' for Active; 'I' for Inactive)
REMARK    1  A    between atoms: C13_19  and  O3_3 
REMARK    2  A    between atoms: N1_5  and  N2_6 
REMARK       I    between atoms: C15_21  and  N2_6 
REMARK    3  A    between atoms: C11_17  and  C7_13 
REMARK    4  A    between atoms: C12_18  and  C15_21 
ROOT
HETATM    1  N1  UNK     1      19.016  -1.727  15.481  1.00  0.00    -0.183 NA
HETATM    2  C11 UNK     1      19.693  -2.816  15.651  1.00  0.00     0.156 C 
ENDROOT
BRANCH   1   3
HETATM    3  N2  UNK     1      19.394  -0.711  16.293  1.00  0.00    -0.243 N 
HETATM    4  C15 UNK     1      18.569  -0.367  17.349  1.00  0.00     0.274 C 
HETATM    5  O4  UNK     1      17.504  -0.919  17.614  1.00  0.00    -0.266 OA
HETATM    6  H12 UNK     1      20.243  -0.211  16.053  1.00  0.00     0.192 HD
BRANCH   4   7
HETATM    7  C12 UNK     1      19.031   0.769  18.187  1.00  0.00     0.066 A 
HETATM    8  C13 UNK     1      19.025   2.049  17.672  1.00  0.00     0.081 A 
HETATM    9  C16 UNK     1      19.464   3.102  18.475  1.00  0.00     0.037 A 
HETATM   10  C18 UNK     1      19.900   2.851  19.776  1.00  0.00     0.003 A 
HETATM   11  C17 UNK     1      19.897   1.549  20.274  1.00  0.00     0.001 A 
HETATM   12  C14 UNK     1      19.459   0.496  19.471  1.00  0.00     0.020 A 
BRANCH   8  13
HETATM   13  O3  UNK     1      18.604   2.314  16.403  1.00  0.00    -0.360 OA
HETATM   14  H14 UNK     1      17.643   2.172  16.350  1.00  0.00     0.217 HD
ENDBRANCH   8  13
ENDBRANCH   4   7
ENDBRANCH   1   3
BRANCH   2  15
HETATM   15  C7  UNK     1      19.439  -4.028  14.872  1.00  0.00     0.056 A 
HETATM   16  C5  UNK     1      20.468  -5.054  14.593  1.00  0.00     0.198 A 
HETATM   17  C1  UNK     1      20.027  -6.209  13.789  1.00  0.00     0.049 A 
HETATM   18  O2  UNK     1      21.616  -4.952  15.004  1.00  0.00    -0.286 OA
HETATM   19  C2  UNK     1      18.702  -6.265  13.350  1.00  0.00     0.089 A 
HETATM   20  C4  UNK     1      20.919  -7.235  13.469  1.00  0.00     0.025 A 
HETATM   21  O1  UNK     1      17.783  -5.285  13.636  1.00  0.00    -0.321 OA
HETATM   22  C6  UNK     1      18.265  -7.348  12.588  1.00  0.00     0.039 A 
HETATM   23  C9  UNK     1      18.206  -4.214  14.387  1.00  0.00     0.159 A 
HETATM   24  C8  UNK     1      19.154  -8.373  12.266  1.00  0.00     0.009 A 
HETATM   25  C3  UNK     1      20.478  -8.317  12.706  1.00  0.00    -0.061 A 
HETATM   26  C10 UNK     1      21.423  -9.418  12.358  1.00  0.00     0.048 C 
ENDBRANCH   2  15
TORSDOF 4
ENDMDL
MODEL 5
REMARK VINA RESULT:      -9.0     16.278     21.279
REMARK  4 active torsions:
REMARK  status: ('A' for Active; 'I' for Inactive)
REMARK    1  A    between atoms: C13_19  and  O3_3 
REMARK    2  A    between atoms: N1_5  and  N2_6 
REMARK       I    between atoms: C15_21  and  N2_6 
REMARK    3  A    between atoms: C11_17  and  C7_13 
REMARK    4  A    between atoms: C12_18  and  C15_21 
ROOT
HETATM    1  N1  UNK     1      19.419  -0.533  14.264  1.00  0.00    -0.183 NA
HETATM    2  C11 UNK     1      19.125  -1.750  13.937  1.00  0.00     0.156 C 
ENDROOT
BRANCH   1   3
HETATM    3  N2  UNK     1      19.157  -0.233  15.559  1.00  0.00    -0.243 N 
HETATM    4  C15 UNK     1      19.436   1.044  16.010  1.00  0.00     0.274 C 
HETATM    5  O4  UNK     1      19.910   1.944  15.320  1.00  0.00    -0.266 OA
HETATM    6  H12 UNK     1      18.818  -0.982  16.153  1.00  0.00     0.192 HD
BRANCH   4   7
HETATM    7  C12 UNK     1      19.146   1.301  17.444  1.00  0.00     0.066 A 
HETATM    8  C13 UNK     1      18.972   2.596  17.887  1.00  0.00     0.081 A 
HETATM    9  C16 UNK     1      18.701   2.817  19.238  1.00  0.00     0.037 A 
HETATM   10  C18 UNK     1      18.611   1.737  20.116  1.00  0.00     0.003 A 
HETATM   11  C17 UNK     1      18.791   0.437  19.644  1.00  0.00     0.001 A 
HETATM   12  C14 UNK     1      19.062   0.216  18.294  1.00  0.00     0.020 A 
BRANCH   8  13
HETATM   13  O3  UNK     1      19.057   3.665  17.046  1.00  0.00    -0.360 OA
HETATM   14  H14 UNK     1      18.168   3.881  16.714  1.00  0.00     0.217 HD
ENDBRANCH   8  13
ENDBRANCH   4   7
ENDBRANCH   1   3
BRANCH   2  15
HETATM   15  C7  UNK     1      19.333  -2.271  12.586  1.00  0.00     0.056 A 
HETATM   16  C5  UNK     1      18.999  -3.654  12.180  1.00  0.00     0.198 A 
HETATM   17  C1  UNK     1      19.279  -4.001  10.774  1.00  0.00     0.049 A 
HETATM   18  O2  UNK     1      18.520  -4.463  12.962  1.00  0.00    -0.286 OA
HETATM   19  C2  UNK     1      19.828  -3.030   9.932  1.00  0.00     0.089 A 
HETATM   20  C4  UNK     1      19.001  -5.279  10.287  1.00  0.00     0.025 A 
HETATM   21  O1  UNK     1      20.121  -1.757  10.357  1.00  0.00    -0.321 OA
HETATM   22  C6  UNK     1      20.101  -3.337   8.599  1.00  0.00     0.039 A 
HETATM   23  C9  UNK     1      19.854  -1.447  11.670  1.00  0.00     0.159 A 
HETATM   24  C8  UNK     1      19.824  -4.614   8.111  1.00  0.00     0.009 A 
HETATM   25  C3  UNK     1      19.276  -5.583   8.953  1.00  0.00    -0.061 A 
HETATM   26  C10 UNK     1      18.982  -6.947   8.424  1.00  0.00     0.048 C 
ENDBRANCH   2  15
TORSDOF 4
ENDMDL
MODEL 6
REMARK VINA RESULT:      -8.9     15.477     17.317
REMARK  4 active torsions:
REMARK  status: ('A' for Active; 'I' for Inactive)
REMARK    1  A    between atoms: C13_19  and  O3_3 
REMARK    2  A    between atoms: N1_5  and  N2_6 
REMARK       I    between atoms: C15_21  and  N2_6 
REMARK    3  A    between atoms: C11_17  and  C7_13 
REMARK    4  A    between atoms: C12_18  and  C15_21 
ROOT
HETATM    1  N1  UNK     1      24.882  -7.553  38.729  1.00  0.00    -0.183 NA
HETATM    2  C11 UNK     1      26.017  -8.070  38.385  1.00  0.00     0.156 C 
ENDROOT
BRANCH   1   3
HETATM    3  N2  UNK     1      23.833  -8.402  38.612  1.00  0.00    -0.243 N 
HETATM    4  C15 UNK     1      22.621  -7.898  38.176  1.00  0.00     0.274 C 
HETATM    5  O4  UNK     1      22.416  -6.723  37.880  1.00  0.00    -0.266 OA
HETATM    6  H12 UNK     1      23.973  -9.362  38.906  1.00  0.00     0.192 HD
BRANCH   4   7
HETATM    7  C12 UNK     1      21.506  -8.876  38.091  1.00  0.00     0.066 A 
HETATM    8  C13 UNK     1      21.641 -10.002  37.305  1.00  0.00     0.081 A 
HETATM    9  C16 UNK     1      20.582 -10.909  37.238  1.00  0.00     0.037 A 
HETATM   10  C18 UNK     1      19.412 -10.669  37.959  1.00  0.00     0.003 A 
HETATM   11  C17 UNK     1      19.301  -9.524  38.747  1.00  0.00     0.001 A 
HETATM   12  C14 UNK     1      20.359  -8.617  38.814  1.00  0.00     0.020 A 
BRANCH   8  13
HETATM   13  O3  UNK     1      22.774 -10.254  36.592  1.00  0.00    -0.360 OA
HETATM   14  H14 UNK     1      22.533 -10.473  35.676  1.00  0.00     0.217 HD
ENDBRANCH   8  13
ENDBRANCH   4   7
ENDBRANCH   1   3
BRANCH   2  15
HETATM   15  C7  UNK     1      27.270  -7.318  38.439  1.00  0.00     0.056 A 
HETATM   16  C5  UNK     1      28.597  -7.915  38.168  1.00  0.00     0.198 A 
HETATM   17  C1  UNK     1      29.750  -7.001  38.271  1.00  0.00     0.049 A 
HETATM   18  O2  UNK     1      28.732  -9.095  37.878  1.00  0.00    -0.286 OA
HETATM   19  C2  UNK     1      29.528  -5.663  38.607  1.00  0.00     0.089 A 
HETATM   20  C4  UNK     1      31.047  -7.461  38.035  1.00  0.00     0.025 A 
HETATM   21  O1  UNK     1      28.275  -5.156  38.850  1.00  0.00    -0.321 OA
HETATM   22  C6  UNK     1      30.604  -4.781  38.710  1.00  0.00     0.039 A 
HETATM   23  C9  UNK     1      27.209  -6.019  38.750  1.00  0.00     0.159 A 
HETATM   24  C8  UNK     1      31.900  -5.240  38.475  1.00  0.00     0.009 A 
HETATM   25  C3  UNK     1      32.122  -6.576  38.138  1.00  0.00    -0.061 A 
HETATM   26  C10 UNK     1      33.511  -7.059  37.888  1.00  0.00     0.048 C 
ENDBRANCH   2  15
TORSDOF 4
ENDMDL
MODEL 7
REMARK VINA RESULT:      -8.8      7.410     12.597
REMARK  4 active torsions:
REMARK  status: ('A' for Active; 'I' for Inactive)
REMARK    1  A    between atoms: C13_19  and  O3_3 
REMARK    2  A    between atoms: N1_5  and  N2_6 
REMARK       I    between atoms: C15_21  and  N2_6 
REMARK    3  A    between atoms: C11_17  and  C7_13 
REMARK    4  A    between atoms: C12_18  and  C15_21 
ROOT
HETATM    1  N1  UNK     1      20.597  -2.858  34.907  1.00  0.00    -0.183 NA
HETATM    2  C11 UNK     1      19.818  -3.883  35.043  1.00  0.00     0.156 C 
ENDROOT
BRANCH   1   3
HETATM    3  N2  UNK     1      20.305  -2.083  33.835  1.00  0.00    -0.243 N 
HETATM    4  C15 UNK     1      20.740  -2.491  32.588  1.00  0.00     0.274 C 
HETATM    5  O4  UNK     1      21.381  -3.516  32.369  1.00  0.00    -0.266 OA
HETATM    6  H12 UNK     1      19.825  -1.206  34.009  1.00  0.00     0.192 HD
BRANCH   4   7
HETATM    7  C12 UNK     1      20.406  -1.585  31.458  1.00  0.00     0.066 A 
HETATM    8  C13 UNK     1      20.568  -2.021  30.159  1.00  0.00     0.081 A 
HETATM    9  C16 UNK     1      20.249  -1.155  29.112  1.00  0.00     0.037 A 
HETATM   10  C18 UNK     1      19.776   0.127  29.388  1.00  0.00     0.003 A 
HETATM   11  C17 UNK     1      19.620   0.544  30.710  1.00  0.00     0.001 A 
HETATM   12  C14 UNK     1      19.939  -0.321  31.756  1.00  0.00     0.020 A 
BRANCH   8  13
HETATM   13  O3  UNK     1      21.031  -3.269  29.868  1.00  0.00    -0.360 OA
HETATM   14  H14 UNK     1      21.914  -3.381  30.259  1.00  0.00     0.217 HD
ENDBRANCH   8  13
ENDBRANCH   4   7
ENDBRANCH   1   3
BRANCH   2  15
HETATM   15  C7  UNK     1      19.968  -4.842  36.137  1.00  0.00     0.056 A 
HETATM   16  C5  UNK     1      19.584  -6.268  36.035  1.00  0.00     0.198 A 
HETATM   17  C1  UNK     1      19.807  -7.084  37.243  1.00  0.00     0.049 A 
HETATM   18  O2  UNK     1      19.109  -6.742  35.013  1.00  0.00    -0.286 OA
HETATM   19  C2  UNK     1      20.353  -6.481  38.379  1.00  0.00     0.089 A 
HETATM   20  C4  UNK     1      19.481  -8.441  37.255  1.00  0.00     0.025 A 
HETATM   21  O1  UNK     1      20.694  -5.152  38.424  1.00  0.00    -0.321 OA
HETATM   22  C6  UNK     1      20.573  -7.235  39.532  1.00  0.00     0.039 A 
HETATM   23  C9  UNK     1      20.481  -4.401  37.291  1.00  0.00     0.159 A 
HETATM   24  C8  UNK     1      20.245  -8.591  39.546  1.00  0.00     0.009 A 
HETATM   25  C3  UNK     1      19.701  -9.193  38.411  1.00  0.00    -0.061 A 
HETATM   26  C10 UNK     1      19.354 -10.644  38.433  1.00  0.00     0.048 C 
ENDBRANCH   2  15
TORSDOF 4
ENDMDL
MODEL 8
REMARK VINA RESULT:      -8.8      6.966     10.814
REMARK  4 active torsions:
REMARK  status: ('A' for Active; 'I' for Inactive)
REMARK    1  A    between atoms: C13_19  and  O3_3 
REMARK    2  A    between atoms: N1_5  and  N2_6 
REMARK       I    between atoms: C15_21  and  N2_6 
REMARK    3  A    between atoms: C11_17  and  C7_13 
REMARK    4  A    between atoms: C12_18  and  C15_21 
ROOT
HETATM    1  N1  UNK     1      19.989  -4.504  35.749  1.00  0.00    -0.183 NA
HETATM    2  C11 UNK     1      20.375  -3.269  35.735  1.00  0.00     0.156 C 
ENDROOT
BRANCH   1   3
HETATM    3  N2  UNK     1      20.403  -5.198  36.836  1.00  0.00    -0.243 N 
HETATM    4  C15 UNK     1      20.937  -6.460  36.649  1.00  0.00     0.274 C 
HETATM    5  O4  UNK     1      21.069  -7.011  35.559  1.00  0.00    -0.266 OA
HETATM    6  H12 UNK     1      20.249  -4.777  37.746  1.00  0.00     0.192 HD
BRANCH   4   7
HETATM    7  C12 UNK     1      21.351  -7.176  37.884  1.00  0.00     0.066 A 
HETATM    8  C13 UNK     1      22.314  -6.626  38.705  1.00  0.00     0.081 A 
HETATM    9  C16 UNK     1      22.690  -7.314  39.859  1.00  0.00     0.037 A 
HETATM   10  C18 UNK     1      22.094  -8.538  40.166  1.00  0.00     0.003 A 
HETATM   11  C17 UNK     1      21.123  -9.073  39.320  1.00  0.00     0.001 A 
HETATM   12  C14 UNK     1      20.748  -8.385  38.167  1.00  0.00     0.020 A 
BRANCH   8  13
HETATM   13  O3  UNK     1      22.909  -5.433  38.422  1.00  0.00    -0.360 OA
HETATM   14  H14 UNK     1      23.729  -5.595  37.925  1.00  0.00     0.217 HD
ENDBRANCH   8  13
ENDBRANCH   4   7
ENDBRANCH   1   3
BRANCH   2  15
HETATM   15  C7  UNK     1      20.032  -2.352  34.649  1.00  0.00     0.056 A 
HETATM   16  C5  UNK     1      20.520  -2.507  33.260  1.00  0.00     0.198 A 
HETATM   17  C1  UNK     1      20.069  -1.483  32.299  1.00  0.00     0.049 A 
HETATM   18  O2  UNK     1      21.255  -3.426  32.928  1.00  0.00    -0.286 OA
HETATM   19  C2  UNK     1      19.231  -0.457  32.743  1.00  0.00     0.089 A 
HETATM   20  C4  UNK     1      20.471  -1.535  30.963  1.00  0.00     0.025 A 
HETATM   21  O1  UNK     1      18.804  -0.357  34.044  1.00  0.00    -0.321 OA
HETATM   22  C6  UNK     1      18.793   0.521  31.850  1.00  0.00     0.039 A 
HETATM   23  C9  UNK     1      19.232  -1.318  34.930  1.00  0.00     0.159 A 
HETATM   24  C8  UNK     1      19.195   0.471  30.515  1.00  0.00     0.009 A 
HETATM   25  C3  UNK     1      20.031  -0.554  30.072  1.00  0.00    -0.061 A 
HETATM   26  C10 UNK     1      20.456  -0.602  28.643  1.00  0.00     0.048 C 
ENDBRANCH   2  15
TORSDOF 4
ENDMDL
MODEL 9
REMARK VINA RESULT:      -8.8      5.814      8.127
REMARK  4 active torsions:
REMARK  status: ('A' for Active; 'I' for Inactive)
REMARK    1  A    between atoms: C13_19  and  O3_3 
REMARK    2  A    between atoms: N1_5  and  N2_6 
REMARK       I    between atoms: C15_21  and  N2_6 
REMARK    3  A    between atoms: C11_17  and  C7_13 
REMARK    4  A    between atoms: C12_18  and  C15_21 
ROOT
HETATM    1  N1  UNK     1      19.850  -2.057  35.739  1.00  0.00    -0.183 NA
HETATM    2  C11 UNK     1      18.727  -1.443  35.546  1.00  0.00     0.156 C 
ENDROOT
BRANCH   1   3
HETATM    3  N2  UNK     1      19.769  -3.093  36.607  1.00  0.00    -0.243 N 
HETATM    4  C15 UNK     1      20.013  -4.370  36.135  1.00  0.00     0.274 C 
HETATM    5  O4  UNK     1      20.303  -4.644  34.973  1.00  0.00    -0.266 OA
HETATM    6  H12 UNK     1      19.478  -2.887  37.556  1.00  0.00     0.192 HD
BRANCH   4   7
HETATM    7  C12 UNK     1      19.887  -5.464  37.133  1.00  0.00     0.066 A 
HETATM    8  C13 UNK     1      18.873  -6.391  37.009  1.00  0.00     0.081 A 
HETATM    9  C16 UNK     1      18.771  -7.410  37.957  1.00  0.00     0.037 A 
HETATM   10  C18 UNK     1      19.685  -7.478  39.008  1.00  0.00     0.003 A 
HETATM   11  C17 UNK     1      20.701  -6.528  39.112  1.00  0.00     0.001 A 
HETATM   12  C14 UNK     1      20.803  -5.510  38.165  1.00  0.00     0.020 A 
BRANCH   8  13
HETATM   13  O3  UNK     1      17.970  -6.342  35.990  1.00  0.00    -0.360 OA
HETATM   14  H14 UNK     1      17.316  -5.646  36.176  1.00  0.00     0.217 HD
ENDBRANCH   8  13
ENDBRANCH   4   7
ENDBRANCH   1   3
BRANCH   2  15
HETATM   15  C7  UNK     1      18.604  -0.297  34.645  1.00  0.00     0.056 A 
HETATM   16  C5  UNK     1      18.510   1.104  35.110  1.00  0.00     0.198 A 
HETATM   17  C1  UNK     1      18.390   2.128  34.055  1.00  0.00     0.049 A 
HETATM   18  O2  UNK     1      18.529   1.398  36.297  1.00  0.00    -0.286 OA
HETATM   19  C2  UNK     1      18.373   1.726  32.718  1.00  0.00     0.089 A 
HETATM   20  C4  UNK     1      18.295   3.482  34.384  1.00  0.00     0.025 A 
HETATM   21  O1  UNK     1      18.464   0.410  32.336  1.00  0.00    -0.321 OA
HETATM   22  C6  UNK     1      18.260   2.677  31.704  1.00  0.00     0.039 A 
HETATM   23  C9  UNK     1      18.576  -0.535  33.330  1.00  0.00     0.159 A 
HETATM   24  C8  UNK     1      18.164   4.030  32.031  1.00  0.00     0.009 A 
HETATM   25  C3  UNK     1      18.182   4.432  33.368  1.00  0.00    -0.061 A 
HETATM   26  C10 UNK     1      18.079   5.880  33.710  1.00  0.00     0.048 C 
ENDBRANCH   2  15
TORSDOF 4
ENDMDL
MODEL 10
REMARK VINA RESULT:      -8.7      7.653     10.360
REMARK  4 active torsions:
REMARK  status: ('A' for Active; 'I' for Inactive)
REMARK    1  A    between atoms: C13_19  and  O3_3 
REMARK    2  A    between atoms: N1_5  and  N2_6 
REMARK       I    between atoms: C15_21  and  N2_6 
REMARK    3  A    between atoms: C11_17  and  C7_13 
REMARK    4  A    between atoms: C12_18  and  C15_21 
ROOT
HETATM    1  N1  UNK     1      20.040  -4.967  37.283  1.00  0.00    -0.183 NA
HETATM    2  C11 UNK     1      19.968  -4.104  36.321  1.00  0.00     0.156 C 
ENDROOT
BRANCH   1   3
HETATM    3  N2  UNK     1      20.593  -6.149  36.920  1.00  0.00    -0.243 N 
HETATM    4  C15 UNK     1      19.793  -7.277  36.914  1.00  0.00     0.274 C 
HETATM    5  O4  UNK     1      18.602  -7.294  37.214  1.00  0.00    -0.266 OA
HETATM    6  H12 UNK     1      21.588  -6.160  36.723  1.00  0.00     0.192 HD
BRANCH   4   7
HETATM    7  C12 UNK     1      20.466  -8.545  36.528  1.00  0.00     0.066 A 
HETATM    8  C13 UNK     1      21.066  -8.653  35.290  1.00  0.00     0.081 A 
HETATM    9  C16 UNK     1      21.692  -9.852  34.947  1.00  0.00     0.037 A 
HETATM   10  C18 UNK     1      21.702 -10.916  35.848  1.00  0.00     0.003 A 
HETATM   11  C17 UNK     1      21.089 -10.782  37.093  1.00  0.00     0.001 A 
HETATM   12  C14 UNK     1      20.463  -9.584  37.437  1.00  0.00     0.020 A 
BRANCH   8  13
HETATM   13  O3  UNK     1      21.066  -7.626  34.395  1.00  0.00    -0.360 OA
HETATM   14  H14 UNK     1      20.160  -7.284  34.302  1.00  0.00     0.217 HD
ENDBRANCH   8  13
ENDBRANCH   4   7
ENDBRANCH   1   3
BRANCH   2  15
HETATM   15  C7  UNK     1      19.403  -2.767  36.508  1.00  0.00     0.056 A 
HETATM   16  C5  UNK     1      19.436  -1.712  35.471  1.00  0.00     0.198 A 
HETATM   17  C1  UNK     1      18.817  -0.425  35.840  1.00  0.00     0.049 A 
HETATM   18  O2  UNK     1      19.945  -1.893  34.374  1.00  0.00    -0.286 OA
HETATM   19  C2  UNK     1      18.253  -0.282  37.110  1.00  0.00     0.089 A 
HETATM   20  C4  UNK     1      18.792   0.638  34.935  1.00  0.00     0.025 A 
HETATM   21  O1  UNK     1      18.247  -1.293  38.039  1.00  0.00    -0.321 OA
HETATM   22  C6  UNK     1      17.662   0.927  37.479  1.00  0.00     0.039 A 
HETATM   23  C9  UNK     1      18.827  -2.488  37.682  1.00  0.00     0.159 A 
HETATM   24  C8  UNK     1      17.638   1.990  36.577  1.00  0.00     0.009 A 
HETATM   25  C3  UNK     1      18.201   1.847  35.308  1.00  0.00    -0.061 A 
HETATM   26  C10 UNK     1      18.171   2.988  34.348  1.00  0.00     0.048 C 
ENDBRANCH   2  15
TORSDOF 4
ENDMDL
