MODEL 1
REMARK VINA RESULT:      -7.9      0.000      0.000
REMARK  3 active torsions:
REMARK  status: ('A' for Active; 'I' for Inactive)
REMARK    1  A    between atoms: C1_7  and  N1_5 
REMARK    2  A    between atoms: C6_12  and  N1_5 
REMARK    3  A    between atoms: C8_14  and  N2_6 
ROOT
HETATM    1  O1  UNK     1      17.939   3.358  33.982  1.00  0.00    -0.273 OA
HETATM    2  O2  UNK     1      17.674   1.744  35.573  1.00  0.00    -0.257 OA
HETATM    3  C6  UNK     1      18.615   1.294  32.110  1.00  0.00     0.081 A 
HETATM    4  C7  UNK     1      18.599   2.724  31.707  1.00  0.00     0.027 A 
HETATM    5  C8  UNK     1      18.299   1.048  33.393  1.00  0.00     0.205 A 
HETATM    6  C9  UNK     1      18.261   3.699  32.653  1.00  0.00     0.092 A 
HETATM    7  C10 UNK     1      18.907   3.180  30.414  1.00  0.00     0.017 A 
HETATM    8  C11 UNK     1      17.946   2.043  34.416  1.00  0.00     0.324 A 
HETATM    9  C12 UNK     1      18.222   5.063  32.351  1.00  0.00     0.038 A 
HETATM   10  C13 UNK     1      18.873   4.545  30.097  1.00  0.00     0.001 A 
HETATM   11  C14 UNK     1      18.532   5.485  31.064  1.00  0.00     0.003 A 
ENDROOT
BRANCH   3  12
HETATM   12  N1  UNK     1      18.941   0.358  31.162  1.00  0.00    -0.382 N 
HETATM   13  H10 UNK     1      18.259   0.226  30.422  1.00  0.00     0.160 HD
BRANCH  12  14
HETATM   14  C1  UNK     1      20.312   0.080  30.791  1.00  0.00     0.082 C 
HETATM   15  C2  UNK     1      20.718  -1.319  31.236  1.00  0.00     0.025 C 
HETATM   16  C4  UNK     1      20.151  -2.249  30.166  1.00  0.00     0.002 C 
HETATM   17  C5  UNK     1      19.989  -1.400  28.906  1.00  0.00     0.002 C 
HETATM   18  C3  UNK     1      20.456   0.006  29.276  1.00  0.00     0.025 C 
ENDBRANCH  12  14
ENDBRANCH   3  12
BRANCH   5  19
HETATM   19  N2  UNK     1      18.305  -0.316  33.820  1.00  0.00    -0.107 N 
HETATM   20  O3  UNK     1      19.343  -0.736  34.344  1.00  0.00    -0.531 OA
HETATM   21  O4  UNK     1      17.273  -0.968  33.628  1.00  0.00    -0.531 OA
ENDBRANCH   5  19
TORSDOF 3
ENDMDL
MODEL 2
REMARK VINA RESULT:      -7.7      1.850      3.792
REMARK  3 active torsions:
REMARK  status: ('A' for Active; 'I' for Inactive)
REMARK    1  A    between atoms: C1_7  and  N1_5 
REMARK    2  A    between atoms: C6_12  and  N1_5 
REMARK    3  A    between atoms: C8_14  and  N2_6 
ROOT
HETATM    1  O1  UNK     1      17.821   3.190  34.059  1.00  0.00    -0.273 OA
HETATM    2  O2  UNK     1      17.616   4.641  32.310  1.00  0.00    -0.257 OA
HETATM    3  C6  UNK     1      18.573   1.156  32.182  1.00  0.00     0.081 A 
HETATM    4  C7  UNK     1      18.485   0.867  33.637  1.00  0.00     0.027 A 
HETATM    5  C8  UNK     1      18.276   2.416  31.821  1.00  0.00     0.205 A 
HETATM    6  C9  UNK     1      18.116   1.890  34.517  1.00  0.00     0.092 A 
HETATM    7  C10 UNK     1      18.750  -0.390  34.207  1.00  0.00     0.017 A 
HETATM    8  C11 UNK     1      17.878   3.514  32.713  1.00  0.00     0.324 A 
HETATM    9  C12 UNK     1      18.011   1.698  35.898  1.00  0.00     0.038 A 
HETATM   10  C13 UNK     1      18.648  -0.598  35.589  1.00  0.00     0.001 A 
HETATM   11  C14 UNK     1      18.280   0.444  36.434  1.00  0.00     0.003 A 
ENDROOT
BRANCH   3  12
HETATM   12  N1  UNK     1      18.945   0.138  31.342  1.00  0.00    -0.382 N 
HETATM   13  H10 UNK     1      18.244  -0.155  30.669  1.00  0.00     0.160 HD
BRANCH  12  14
HETATM   14  C1  UNK     1      20.317  -0.054  30.922  1.00  0.00     0.082 C 
HETATM   15  C2  UNK     1      20.792  -1.461  31.262  1.00  0.00     0.025 C 
HETATM   16  C4  UNK     1      20.238  -2.342  30.146  1.00  0.00     0.002 C 
HETATM   17  C5  UNK     1      20.008  -1.419  28.949  1.00  0.00     0.002 C 
HETATM   18  C3  UNK     1      20.425  -0.022  29.403  1.00  0.00     0.025 C 
ENDBRANCH  12  14
ENDBRANCH   3  12
BRANCH   5  19
HETATM   19  N2  UNK     1      18.348   2.733  30.429  1.00  0.00    -0.107 N 
HETATM   20  O3  UNK     1      19.210   3.548  30.083  1.00  0.00    -0.531 OA
HETATM   21  O4  UNK     1      17.540   2.168  29.683  1.00  0.00    -0.531 OA
ENDBRANCH   5  19
TORSDOF 3
ENDMDL
MODEL 3
REMARK VINA RESULT:      -7.4      2.607      4.818
REMARK  3 active torsions:
REMARK  status: ('A' for Active; 'I' for Inactive)
REMARK    1  A    between atoms: C1_7  and  N1_5 
REMARK    2  A    between atoms: C6_12  and  N1_5 
REMARK    3  A    between atoms: C8_14  and  N2_6 
ROOT
HETATM    1  O1  UNK     1      18.856   1.446  31.013  1.00  0.00    -0.273 OA
HETATM    2  O2  UNK     1      17.712   2.949  32.294  1.00  0.00    -0.257 OA
HETATM    3  C6  UNK     1      18.713  -0.407  33.196  1.00  0.00     0.081 A 
HETATM    4  C7  UNK     1      19.396  -0.765  31.926  1.00  0.00     0.027 A 
HETATM    5  C8  UNK     1      18.183   0.827  33.244  1.00  0.00     0.205 A 
HETATM    6  C9  UNK     1      19.440   0.170  30.886  1.00  0.00     0.092 A 
HETATM    7  C10 UNK     1      20.016  -2.003  31.688  1.00  0.00     0.017 A 
HETATM    8  C11 UNK     1      18.215   1.837  32.177  1.00  0.00     0.324 A 
HETATM    9  C12 UNK     1      20.061  -0.091  29.661  1.00  0.00     0.038 A 
HETATM   10  C13 UNK     1      20.645  -2.279  30.465  1.00  0.00     0.001 A 
HETATM   11  C14 UNK     1      20.667  -1.325  29.454  1.00  0.00     0.003 A 
ENDROOT
BRANCH   3  12
HETATM   12  N1  UNK     1      18.677  -1.344  34.197  1.00  0.00    -0.382 N 
HETATM   13  H10 UNK     1      18.484  -2.296  33.901  1.00  0.00     0.160 HD
BRANCH  12  14
HETATM   14  C1  UNK     1      19.477  -1.224  35.397  1.00  0.00     0.082 C 
HETATM   15  C2  UNK     1      18.650  -1.557  36.632  1.00  0.00     0.025 C 
HETATM   16  C4  UNK     1      18.635  -3.082  36.694  1.00  0.00     0.002 C 
HETATM   17  C5  UNK     1      19.870  -3.552  35.925  1.00  0.00     0.002 C 
HETATM   18  C3  UNK     1      20.567  -2.288  35.427  1.00  0.00     0.025 C 
ENDBRANCH  12  14
ENDBRANCH   3  12
BRANCH   5  19
HETATM   19  N2  UNK     1      17.519   1.209  34.451  1.00  0.00    -0.107 N 
HETATM   20  O3  UNK     1      18.178   1.854  35.274  1.00  0.00    -0.531 OA
HETATM   21  O4  UNK     1      16.340   0.861  34.576  1.00  0.00    -0.531 OA
ENDBRANCH   5  19
TORSDOF 3
ENDMDL
MODEL 4
REMARK VINA RESULT:      -7.4      2.750      5.700
REMARK  3 active torsions:
REMARK  status: ('A' for Active; 'I' for Inactive)
REMARK    1  A    between atoms: C1_7  and  N1_5 
REMARK    2  A    between atoms: C6_12  and  N1_5 
REMARK    3  A    between atoms: C8_14  and  N2_6 
ROOT
HETATM    1  O1  UNK     1      19.315   0.110  28.747  1.00  0.00    -0.273 OA
HETATM    2  O2  UNK     1      18.349   2.100  28.187  1.00  0.00    -0.257 OA
HETATM    3  C6  UNK     1      19.173   0.903  31.499  1.00  0.00     0.081 A 
HETATM    4  C7  UNK     1      19.757  -0.405  31.104  1.00  0.00     0.027 A 
HETATM    5  C8  UNK     1      18.730   1.672  30.489  1.00  0.00     0.205 A 
HETATM    6  C9  UNK     1      19.805  -0.752  29.749  1.00  0.00     0.092 A 
HETATM    7  C10 UNK     1      20.279  -1.340  32.013  1.00  0.00     0.017 A 
HETATM    8  C11 UNK     1      18.769   1.345  29.057  1.00  0.00     0.324 A 
HETATM    9  C12 UNK     1      20.337  -1.963  29.298  1.00  0.00     0.038 A 
HETATM   10  C13 UNK     1      20.817  -2.558  31.575  1.00  0.00     0.001 A 
HETATM   11  C14 UNK     1      20.846  -2.869  30.220  1.00  0.00     0.003 A 
ENDROOT
BRANCH   3  12
HETATM   12  N1  UNK     1      19.130   1.216  32.833  1.00  0.00    -0.382 N 
HETATM   13  H10 UNK     1      19.754   1.960  33.131  1.00  0.00     0.160 HD
BRANCH  12  14
HETATM   14  C1  UNK     1      17.925   1.074  33.622  1.00  0.00     0.082 C 
HETATM   15  C2  UNK     1      17.848  -0.316  34.242  1.00  0.00     0.025 C 
HETATM   16  C4  UNK     1      18.747  -0.246  35.474  1.00  0.00     0.002 C 
HETATM   17  C5  UNK     1      18.820   1.230  35.864  1.00  0.00     0.002 C 
HETATM   18  C3  UNK     1      17.969   1.984  34.843  1.00  0.00     0.025 C 
ENDBRANCH  12  14
ENDBRANCH   3  12
BRANCH   5  19
HETATM   19  N2  UNK     1      18.163   2.938  30.829  1.00  0.00    -0.107 N 
HETATM   20  O3  UNK     1      16.937   2.982  30.978  1.00  0.00    -0.531 OA
HETATM   21  O4  UNK     1      18.944   3.890  30.944  1.00  0.00    -0.531 OA
ENDBRANCH   5  19
TORSDOF 3
ENDMDL
MODEL 5
REMARK VINA RESULT:      -7.1     12.963     15.092
REMARK  3 active torsions:
REMARK  status: ('A' for Active; 'I' for Inactive)
REMARK    1  A    between atoms: C1_7  and  N1_5 
REMARK    2  A    between atoms: C6_12  and  N1_5 
REMARK    3  A    between atoms: C8_14  and  N2_6 
ROOT
HETATM    1  O1  UNK     1      26.707  -6.477  38.038  1.00  0.00    -0.273 OA
HETATM    2  O2  UNK     1      26.792  -4.426  39.034  1.00  0.00    -0.257 OA
HETATM    3  C6  UNK     1      29.533  -6.289  37.587  1.00  0.00     0.081 A 
HETATM    4  C7  UNK     1      28.759  -7.476  37.139  1.00  0.00     0.027 A 
HETATM    5  C8  UNK     1      28.822  -5.330  38.202  1.00  0.00     0.205 A 
HETATM    6  C9  UNK     1      27.382  -7.527  37.382  1.00  0.00     0.092 A 
HETATM    7  C10 UNK     1      29.323  -8.577  36.473  1.00  0.00     0.017 A 
HETATM    8  C11 UNK     1      27.376  -5.344  38.469  1.00  0.00     0.324 A 
HETATM    9  C12 UNK     1      26.585  -8.608  36.993  1.00  0.00     0.038 A 
HETATM   10  C13 UNK     1      28.536  -9.668  36.076  1.00  0.00     0.001 A 
HETATM   11  C14 UNK     1      27.170  -9.683  36.336  1.00  0.00     0.003 A 
ENDROOT
BRANCH   3  12
HETATM   12  N1  UNK     1      30.882  -6.268  37.345  1.00  0.00    -0.382 N 
HETATM   13  H10 UNK     1      31.189  -5.625  36.622  1.00  0.00     0.160 HD
BRANCH  12  14
HETATM   14  C1  UNK     1      31.857  -6.539  38.379  1.00  0.00     0.082 C 
HETATM   15  C2  UNK     1      32.612  -7.829  38.085  1.00  0.00     0.025 C 
HETATM   16  C4  UNK     1      33.678  -7.435  37.065  1.00  0.00     0.002 C 
HETATM   17  C5  UNK     1      33.909  -5.935  37.249  1.00  0.00     0.002 C 
HETATM   18  C3  UNK     1      32.964  -5.492  38.364  1.00  0.00     0.025 C 
ENDBRANCH  12  14
ENDBRANCH   3  12
BRANCH   5  19
HETATM   19  N2  UNK     1      29.530  -4.171  38.646  1.00  0.00    -0.107 N 
HETATM   20  O3  UNK     1      29.538  -3.949  39.862  1.00  0.00    -0.531 OA
HETATM   21  O4  UNK     1      30.078  -3.481  37.778  1.00  0.00    -0.531 OA
ENDBRANCH   5  19
TORSDOF 3
ENDMDL
MODEL 6
REMARK VINA RESULT:      -7.1      2.078      4.362
REMARK  3 active torsions:
REMARK  status: ('A' for Active; 'I' for Inactive)
REMARK    1  A    between atoms: C1_7  and  N1_5 
REMARK    2  A    between atoms: C6_12  and  N1_5 
REMARK    3  A    between atoms: C8_14  and  N2_6 
ROOT
HETATM    1  O1  UNK     1      19.227   2.198  30.374  1.00  0.00    -0.273 OA
HETATM    2  O2  UNK     1      19.590  -0.024  30.002  1.00  0.00    -0.257 OA
HETATM    3  C6  UNK     1      18.364   1.534  33.027  1.00  0.00     0.081 A 
HETATM    4  C7  UNK     1      18.374   2.941  32.550  1.00  0.00     0.027 A 
HETATM    5  C8  UNK     1      18.777   0.615  32.138  1.00  0.00     0.205 A 
HETATM    6  C9  UNK     1      18.804   3.220  31.248  1.00  0.00     0.092 A 
HETATM    7  C10 UNK     1      17.970   4.039  33.329  1.00  0.00     0.017 A 
HETATM    8  C11 UNK     1      19.230   0.868  30.762  1.00  0.00     0.324 A 
HETATM    9  C12 UNK     1      18.844   4.516  30.726  1.00  0.00     0.038 A 
HETATM   10  C13 UNK     1      18.003   5.344  32.819  1.00  0.00     0.001 A 
HETATM   11  C14 UNK     1      18.439   5.582  31.520  1.00  0.00     0.003 A 
ENDROOT
BRANCH   3  12
HETATM   12  N1  UNK     1      17.945   1.289  34.309  1.00  0.00    -0.382 N 
HETATM   13  H10 UNK     1      17.077   0.770  34.397  1.00  0.00     0.160 HD
BRANCH  12  14
HETATM   14  C1  UNK     1      18.874   1.120  35.407  1.00  0.00     0.082 C 
HETATM   15  C2  UNK     1      18.552   2.087  36.539  1.00  0.00     0.025 C 
HETATM   16  C4  UNK     1      17.403   1.429  37.300  1.00  0.00     0.002 C 
HETATM   17  C5  UNK     1      17.495  -0.067  37.001  1.00  0.00     0.002 C 
HETATM   18  C3  UNK     1      18.689  -0.242  36.065  1.00  0.00     0.025 C 
ENDBRANCH  12  14
ENDBRANCH   3  12
BRANCH   5  19
HETATM   19  N2  UNK     1      18.781  -0.750  32.559  1.00  0.00    -0.107 N 
HETATM   20  O3  UNK     1      19.881  -1.264  32.789  1.00  0.00    -0.531 OA
HETATM   21  O4  UNK     1      17.683  -1.309  32.657  1.00  0.00    -0.531 OA
ENDBRANCH   5  19
TORSDOF 3
ENDMDL
MODEL 7
REMARK VINA RESULT:      -7.0     13.588     14.317
REMARK  3 active torsions:
REMARK  status: ('A' for Active; 'I' for Inactive)
REMARK    1  A    between atoms: C1_7  and  N1_5 
REMARK    2  A    between atoms: C6_12  and  N1_5 
REMARK    3  A    between atoms: C8_14  and  N2_6 
ROOT
HETATM    1  O1  UNK     1      30.859  -3.948  38.026  1.00  0.00    -0.273 OA
HETATM    2  O2  UNK     1      29.551  -3.788  39.889  1.00  0.00    -0.257 OA
HETATM    3  C6  UNK     1      29.160  -6.068  37.109  1.00  0.00     0.081 A 
HETATM    4  C7  UNK     1      30.330  -5.620  36.311  1.00  0.00     0.027 A 
HETATM    5  C8  UNK     1      28.965  -5.421  38.270  1.00  0.00     0.205 A 
HETATM    6  C9  UNK     1      31.132  -4.580  36.796  1.00  0.00     0.092 A 
HETATM    7  C10 UNK     1      30.702  -6.178  35.076  1.00  0.00     0.017 A 
HETATM    8  C11 UNK     1      29.787  -4.331  38.815  1.00  0.00     0.324 A 
HETATM    9  C12 UNK     1      32.249  -4.101  36.105  1.00  0.00     0.038 A 
HETATM   10  C13 UNK     1      31.820  -5.709  34.373  1.00  0.00     0.001 A 
HETATM   11  C14 UNK     1      32.592  -4.673  34.886  1.00  0.00     0.003 A 
ENDROOT
BRANCH   3  12
HETATM   12  N1  UNK     1      28.386  -7.083  36.608  1.00  0.00    -0.382 N 
HETATM   13  H10 UNK     1      27.692  -6.808  35.919  1.00  0.00     0.160 HD
BRANCH  12  14
HETATM   14  C1  UNK     1      28.880  -8.437  36.475  1.00  0.00     0.082 C 
HETATM   15  C2  UNK     1      28.823  -9.165  37.812  1.00  0.00     0.025 C 
HETATM   16  C4  UNK     1      27.372  -9.618  37.950  1.00  0.00     0.002 C 
HETATM   17  C5  UNK     1      26.811  -9.690  36.530  1.00  0.00     0.002 C 
HETATM   18  C3  UNK     1      27.948  -9.268  35.601  1.00  0.00     0.025 C 
ENDBRANCH  12  14
ENDBRANCH   3  12
BRANCH   5  19
HETATM   19  N2  UNK     1      27.850  -5.825  39.067  1.00  0.00    -0.107 N 
HETATM   20  O3  UNK     1      28.054  -6.697  39.919  1.00  0.00    -0.531 OA
HETATM   21  O4  UNK     1      26.768  -5.272  38.838  1.00  0.00    -0.531 OA
ENDBRANCH   5  19
TORSDOF 3
ENDMDL
MODEL 8
REMARK VINA RESULT:      -6.9      2.533      4.937
REMARK  3 active torsions:
REMARK  status: ('A' for Active; 'I' for Inactive)
REMARK    1  A    between atoms: C1_7  and  N1_5 
REMARK    2  A    between atoms: C6_12  and  N1_5 
REMARK    3  A    between atoms: C8_14  and  N2_6 
ROOT
HETATM    1  O1  UNK     1      19.936  -2.290  34.449  1.00  0.00    -0.273 OA
HETATM    2  O2  UNK     1      21.330  -3.308  32.957  1.00  0.00    -0.257 OA
HETATM    3  C6  UNK     1      19.017  -0.601  32.322  1.00  0.00     0.081 A 
HETATM    4  C7  UNK     1      18.484  -0.460  33.702  1.00  0.00     0.027 A 
HETATM    5  C8  UNK     1      19.946  -1.556  32.152  1.00  0.00     0.205 A 
HETATM    6  C9  UNK     1      18.959  -1.307  34.709  1.00  0.00     0.092 A 
HETATM    7  C10 UNK     1      17.514   0.485  34.078  1.00  0.00     0.017 A 
HETATM    8  C11 UNK     1      20.475  -2.459  33.185  1.00  0.00     0.324 A 
HETATM    9  C12 UNK     1      18.507  -1.239  36.030  1.00  0.00     0.038 A 
HETATM   10  C13 UNK     1      17.053   0.566  35.399  1.00  0.00     0.001 A 
HETATM   11  C14 UNK     1      17.548  -0.294  36.374  1.00  0.00     0.003 A 
ENDROOT
BRANCH   3  12
HETATM   12  N1  UNK     1      18.528   0.236  31.352  1.00  0.00    -0.382 N 
HETATM   13  H10 UNK     1      17.537   0.446  31.411  1.00  0.00     0.160 HD
BRANCH  12  14
HETATM   14  C1  UNK     1      19.339   1.268  30.741  1.00  0.00     0.082 C 
HETATM   15  C2  UNK     1      19.255   1.191  29.222  1.00  0.00     0.025 C 
HETATM   16  C4  UNK     1      17.946   1.893  28.867  1.00  0.00     0.002 C 
HETATM   17  C5  UNK     1      17.638   2.833  30.032  1.00  0.00     0.002 C 
HETATM   18  C3  UNK     1      18.770   2.649  31.040  1.00  0.00     0.025 C 
ENDBRANCH  12  14
ENDBRANCH   3  12
BRANCH   5  19
HETATM   19  N2  UNK     1      20.485  -1.721  30.839  1.00  0.00    -0.107 N 
HETATM   20  O3  UNK     1      21.475  -1.041  30.548  1.00  0.00    -0.531 OA
HETATM   21  O4  UNK     1      19.915  -2.529  30.096  1.00  0.00    -0.531 OA
ENDBRANCH   5  19
TORSDOF 3
ENDMDL
MODEL 9
REMARK VINA RESULT:      -6.9      5.415      7.491
REMARK  3 active torsions:
REMARK  status: ('A' for Active; 'I' for Inactive)
REMARK    1  A    between atoms: C1_7  and  N1_5 
REMARK    2  A    between atoms: C6_12  and  N1_5 
REMARK    3  A    between atoms: C8_14  and  N2_6 
ROOT
HETATM    1  O1  UNK     1      16.439  10.578  33.492  1.00  0.00    -0.273 OA
HETATM    2  O2  UNK     1      14.273  10.216  32.874  1.00  0.00    -0.257 OA
HETATM    3  C6  UNK     1      16.862   7.744  33.391  1.00  0.00     0.081 A 
HETATM    4  C7  UNK     1      17.958   8.673  33.770  1.00  0.00     0.027 A 
HETATM    5  C8  UNK     1      15.682   8.321  33.109  1.00  0.00     0.205 A 
HETATM    6  C9  UNK     1      17.708  10.049  33.805  1.00  0.00     0.092 A 
HETATM    7  C10 UNK     1      19.258   8.260  34.107  1.00  0.00     0.017 A 
HETATM    8  C11 UNK     1      15.380   9.760  33.140  1.00  0.00     0.324 A 
HETATM    9  C12 UNK     1      18.686  10.987  34.151  1.00  0.00     0.038 A 
HETATM   10  C13 UNK     1      20.249   9.188  34.458  1.00  0.00     0.001 A 
HETATM   11  C14 UNK     1      19.963  10.549  34.479  1.00  0.00     0.003 A 
ENDROOT
BRANCH   3  12
HETATM   12  N1  UNK     1      17.136   6.401  33.356  1.00  0.00    -0.382 N 
HETATM   13  H10 UNK     1      16.805   5.864  34.152  1.00  0.00     0.160 HD
BRANCH  12  14
HETATM   14  C1  UNK     1      17.229   5.663  32.115  1.00  0.00     0.082 C 
HETATM   15  C2  UNK     1      17.960   6.479  31.056  1.00  0.00     0.025 C 
HETATM   16  C4  UNK     1      19.442   6.295  31.375  1.00  0.00     0.002 C 
HETATM   17  C5  UNK     1      19.550   4.984  32.154  1.00  0.00     0.002 C 
HETATM   18  C3  UNK     1      18.127   4.443  32.278  1.00  0.00     0.025 C 
ENDBRANCH  12  14
ENDBRANCH   3  12
BRANCH   5  19
HETATM   19  N2  UNK     1      14.603   7.461  32.740  1.00  0.00    -0.107 N 
HETATM   20  O3  UNK     1      13.889   7.033  33.654  1.00  0.00    -0.531 OA
HETATM   21  O4  UNK     1      14.470   7.211  31.537  1.00  0.00    -0.531 OA
ENDBRANCH   5  19
TORSDOF 3
ENDMDL
MODEL 10
REMARK VINA RESULT:      -6.9      2.670      5.985
REMARK  3 active torsions:
REMARK  status: ('A' for Active; 'I' for Inactive)
REMARK    1  A    between atoms: C1_7  and  N1_5 
REMARK    2  A    between atoms: C6_12  and  N1_5 
REMARK    3  A    between atoms: C8_14  and  N2_6 
ROOT
HETATM    1  O1  UNK     1      19.098   0.003  31.310  1.00  0.00    -0.273 OA
HETATM    2  O2  UNK     1      19.408   0.468  29.098  1.00  0.00    -0.257 OA
HETATM    3  C6  UNK     1      18.206   2.704  31.674  1.00  0.00     0.081 A 
HETATM    4  C7  UNK     1      18.271   1.754  32.815  1.00  0.00     0.027 A 
HETATM    5  C8  UNK     1      18.592   2.212  30.484  1.00  0.00     0.205 A 
HETATM    6  C9  UNK     1      18.711   0.445  32.591  1.00  0.00     0.092 A 
HETATM    7  C10 UNK     1      17.917   2.084  34.134  1.00  0.00     0.017 A 
HETATM    8  C11 UNK     1      19.065   0.847  30.212  1.00  0.00     0.324 A 
HETATM    9  C12 UNK     1      18.800  -0.507  33.611  1.00  0.00     0.038 A 
HETATM   10  C13 UNK     1      18.003   1.141  35.167  1.00  0.00     0.001 A 
HETATM   11  C14 UNK     1      18.443  -0.153  34.906  1.00  0.00     0.003 A 
ENDROOT
BRANCH   3  12
HETATM   12  N1  UNK     1      17.764   3.979  31.918  1.00  0.00    -0.382 N 
HETATM   13  H10 UNK     1      16.766   4.075  32.080  1.00  0.00     0.160 HD
BRANCH  12  14
HETATM   14  C1  UNK     1      18.590   4.971  32.572  1.00  0.00     0.082 C 
HETATM   15  C2  UNK     1      18.817   6.169  31.659  1.00  0.00     0.025 C 
HETATM   16  C4  UNK     1      17.551   7.011  31.796  1.00  0.00     0.002 C 
HETATM   17  C5  UNK     1      16.938   6.642  33.146  1.00  0.00     0.002 C 
HETATM   18  C3  UNK     1      17.857   5.586  33.757  1.00  0.00     0.025 C 
ENDBRANCH  12  14
ENDBRANCH   3  12
BRANCH   5  19
HETATM   19  N2  UNK     1      18.545   3.095  29.362  1.00  0.00    -0.107 N 
HETATM   20  O3  UNK     1      19.219   4.129  29.432  1.00  0.00    -0.531 OA
HETATM   21  O4  UNK     1      17.830   2.757  28.412  1.00  0.00    -0.531 OA
ENDBRANCH   5  19
TORSDOF 3
ENDMDL
