MODEL 1
REMARK VINA RESULT:      -7.7      0.000      0.000
REMARK  5 active torsions:
REMARK  status: ('A' for Active; 'I' for Inactive)
REMARK    1  A    between atoms: C17_22  and  O2_2 
REMARK    2  A    between atoms: C9_14  and  O2_2 
REMARK    3  A    between atoms: C10_15  and  O3_3 
REMARK    4  A    between atoms: C18_23  and  O3_3 
REMARK    5  A    between atoms: C1_6  and  C6_11 
ROOT
HETATM    1  N1  UNK     1       8.940   6.202   6.735  1.00  0.00     0.097 N 
HETATM    2  C1  UNK     1       9.294   6.941   7.963  1.00  0.00     0.292 C 
HETATM    3  C2  UNK     1      10.785   6.930   8.277  1.00  0.00    -0.011 A 
HETATM    4  C3  UNK     1      11.717   6.515   7.306  1.00  0.00    -0.045 A 
HETATM    5  C4  UNK     1      11.249   6.027   5.961  1.00  0.00     0.069 C 
HETATM    6  C5  UNK     1       9.844   6.523   5.634  1.00  0.00     0.275 C 
HETATM    7  C7  UNK     1      11.265   7.407   9.510  1.00  0.00     0.049 A 
HETATM    8  C8  UNK     1      13.088   6.521   7.601  1.00  0.00     0.047 A 
HETATM    9  C9  UNK     1      12.632   7.421   9.789  1.00  0.00     0.102 A 
HETATM   10  C10 UNK     1      13.542   6.972   8.838  1.00  0.00     0.102 A 
HETATM   11  H6  UNK     1       7.986   6.443   6.465  1.00  0.00     0.317 HD
ENDROOT
BRANCH   2  12
HETATM   12  C6  UNK     1       8.471   6.382   9.090  1.00  0.00     0.053 A 
HETATM   13  C11 UNK     1       7.764   7.329   9.988  1.00  0.00     0.195 A 
HETATM   14  O4  UNK     1       7.830   8.543   9.838  1.00  0.00    -0.287 OA
HETATM   15  C13 UNK     1       6.971   6.729  11.077  1.00  0.00     0.048 A 
HETATM   16  C14 UNK     1       6.930   5.340  11.199  1.00  0.00     0.089 A 
HETATM   17  C15 UNK     1       6.268   7.535  11.975  1.00  0.00     0.018 A 
HETATM   18  C16 UNK     1       6.186   4.750  12.222  1.00  0.00     0.038 A 
HETATM   19  O1  UNK     1       7.600   4.500  10.345  1.00  0.00    -0.321 OA
HETATM   20  C20 UNK     1       5.484   5.553  13.120  1.00  0.00     0.003 A 
HETATM   21  C19 UNK     1       5.525   6.943  12.996  1.00  0.00     0.001 A 
HETATM   22  C12 UNK     1       8.334   5.073   9.336  1.00  0.00     0.156 A 
ENDBRANCH   2  12
BRANCH   9  23
HETATM   23  O2  UNK     1      13.063   7.880  10.998  1.00  0.00    -0.349 OA
BRANCH  23  24
HETATM   24  C17 UNK     1      13.255   9.287  11.125  1.00  0.00     0.171 C 
HETATM   25  C21 UNK     1      14.629   9.546  11.706  1.00  0.00     0.034 C 
ENDBRANCH  23  24
ENDBRANCH   9  23
BRANCH  10  26
HETATM   26  O3  UNK     1      14.879   6.976   9.100  1.00  0.00    -0.349 OA
BRANCH  26  27
HETATM   27  C18 UNK     1      15.549   5.717   9.075  1.00  0.00     0.171 C 
HETATM   28  C22 UNK     1      15.036   4.862  10.214  1.00  0.00     0.034 C 
ENDBRANCH  26  27
ENDBRANCH  10  26
TORSDOF 5
ENDMDL
MODEL 2
REMARK VINA RESULT:      -7.6      3.368      6.074
REMARK  5 active torsions:
REMARK  status: ('A' for Active; 'I' for Inactive)
REMARK    1  A    between atoms: C17_22  and  O2_2 
REMARK    2  A    between atoms: C9_14  and  O2_2 
REMARK    3  A    between atoms: C10_15  and  O3_3 
REMARK    4  A    between atoms: C18_23  and  O3_3 
REMARK    5  A    between atoms: C1_6  and  C6_11 
ROOT
HETATM    1  N1  UNK     1      15.120   6.145   9.540  1.00  0.00     0.097 N 
HETATM    2  C1  UNK     1      14.690   7.292   8.716  1.00  0.00     0.292 C 
HETATM    3  C2  UNK     1      15.202   8.636   9.220  1.00  0.00    -0.011 A 
HETATM    4  C3  UNK     1      16.226   8.693  10.186  1.00  0.00    -0.045 A 
HETATM    5  C4  UNK     1      16.793   7.427  10.772  1.00  0.00     0.069 C 
HETATM    6  C5  UNK     1      16.540   6.222   9.871  1.00  0.00     0.275 C 
HETATM    7  C7  UNK     1      14.721   9.840   8.678  1.00  0.00     0.049 A 
HETATM    8  C8  UNK     1      16.700   9.935  10.635  1.00  0.00     0.047 A 
HETATM    9  C9  UNK     1      15.208  11.071   9.121  1.00  0.00     0.102 A 
HETATM   10  C10 UNK     1      16.192  11.118  10.103  1.00  0.00     0.102 A 
HETATM   11  H6  UNK     1      14.944   5.282   9.026  1.00  0.00     0.317 HD
ENDROOT
BRANCH   2  12
HETATM   12  C6  UNK     1      13.191   7.255   8.621  1.00  0.00     0.053 A 
HETATM   13  C11 UNK     1      12.572   6.893   7.321  1.00  0.00     0.195 A 
HETATM   14  O4  UNK     1      13.242   6.627   6.332  1.00  0.00    -0.287 OA
HETATM   15  C13 UNK     1      11.098   6.871   7.283  1.00  0.00     0.048 A 
HETATM   16  C14 UNK     1      10.385   7.183   8.441  1.00  0.00     0.089 A 
HETATM   17  C15 UNK     1      10.420   6.543   6.107  1.00  0.00     0.018 A 
HETATM   18  C16 UNK     1       8.989   7.168   8.428  1.00  0.00     0.038 A 
HETATM   19  O1  UNK     1      10.998   7.512   9.623  1.00  0.00    -0.321 OA
HETATM   20  C20 UNK     1       8.311   6.841   7.254  1.00  0.00     0.003 A 
HETATM   21  C19 UNK     1       9.025   6.529   6.096  1.00  0.00     0.001 A 
HETATM   22  C12 UNK     1      12.371   7.527   9.644  1.00  0.00     0.156 A 
ENDBRANCH   2  12
BRANCH   9  23
HETATM   23  O2  UNK     1      14.712  12.219   8.581  1.00  0.00    -0.349 OA
BRANCH  23  24
HETATM   24  C17 UNK     1      15.312  12.678   7.371  1.00  0.00     0.171 C 
HETATM   25  C21 UNK     1      14.879  14.107   7.117  1.00  0.00     0.034 C 
ENDBRANCH  23  24
ENDBRANCH   9  23
BRANCH  10  26
HETATM   26  O3  UNK     1      16.671  12.313  10.548  1.00  0.00    -0.349 OA
BRANCH  26  27
HETATM   27  C18 UNK     1      18.088  12.478  10.565  1.00  0.00     0.171 C 
HETATM   28  C22 UNK     1      18.559  12.843   9.174  1.00  0.00     0.034 C 
ENDBRANCH  26  27
ENDBRANCH  10  26
TORSDOF 5
ENDMDL
MODEL 3
REMARK VINA RESULT:      -7.5     32.208     35.189
REMARK  5 active torsions:
REMARK  status: ('A' for Active; 'I' for Inactive)
REMARK    1  A    between atoms: C17_22  and  O2_2 
REMARK    2  A    between atoms: C9_14  and  O2_2 
REMARK    3  A    between atoms: C10_15  and  O3_3 
REMARK    4  A    between atoms: C18_23  and  O3_3 
REMARK    5  A    between atoms: C1_6  and  C6_11 
ROOT
HETATM    1  N1  UNK     1      25.813 -11.446  36.506  1.00  0.00     0.097 N 
HETATM    2  C1  UNK     1      25.326 -10.262  37.239  1.00  0.00     0.292 C 
HETATM    3  C2  UNK     1      23.957  -9.775  36.780  1.00  0.00    -0.011 A 
HETATM    4  C3  UNK     1      23.149 -10.586  35.958  1.00  0.00    -0.045 A 
HETATM    5  C4  UNK     1      23.649 -11.924  35.482  1.00  0.00     0.069 C 
HETATM    6  C5  UNK     1      24.771 -12.459  36.366  1.00  0.00     0.275 C 
HETATM    7  C7  UNK     1      23.442  -8.546  37.227  1.00  0.00     0.049 A 
HETATM    8  C8  UNK     1      21.885 -10.134  35.551  1.00  0.00     0.047 A 
HETATM    9  C9  UNK     1      22.177  -8.110  36.826  1.00  0.00     0.102 A 
HETATM   10  C10 UNK     1      21.403  -8.901  35.984  1.00  0.00     0.102 A 
HETATM   11  H6  UNK     1      26.603 -11.848  37.010  1.00  0.00     0.317 HD
ENDROOT
BRANCH   2  12
HETATM   12  C6  UNK     1      26.375  -9.191  37.133  1.00  0.00     0.053 A 
HETATM   13  C11 UNK     1      26.712  -8.406  38.348  1.00  0.00     0.195 A 
HETATM   14  O4  UNK     1      26.165  -8.605  39.424  1.00  0.00    -0.287 OA
HETATM   15  C13 UNK     1      27.748  -7.369  38.189  1.00  0.00     0.048 A 
HETATM   16  C14 UNK     1      28.339  -7.187  36.938  1.00  0.00     0.089 A 
HETATM   17  C15 UNK     1      28.136  -6.577  39.272  1.00  0.00     0.018 A 
HETATM   18  C16 UNK     1      29.322  -6.211  36.764  1.00  0.00     0.038 A 
HETATM   19  O1  UNK     1      27.997  -7.936  35.840  1.00  0.00    -0.321 OA
HETATM   20  C20 UNK     1      29.711  -5.419  37.845  1.00  0.00     0.003 A 
HETATM   21  C19 UNK     1      29.119  -5.602  39.096  1.00  0.00     0.001 A 
HETATM   22  C12 UNK     1      27.032  -8.898  36.003  1.00  0.00     0.156 A 
ENDBRANCH   2  12
BRANCH   9  23
HETATM   23  O2  UNK     1      21.713  -6.909  37.270  1.00  0.00    -0.349 OA
BRANCH  23  24
HETATM   24  C17 UNK     1      21.875  -6.625  38.658  1.00  0.00     0.171 C 
HETATM   25  C21 UNK     1      20.714  -7.225  39.424  1.00  0.00     0.034 C 
ENDBRANCH  23  24
ENDBRANCH   9  23
BRANCH  10  26
HETATM   26  O3  UNK     1      20.170  -8.486  35.581  1.00  0.00    -0.349 OA
BRANCH  26  27
HETATM   27  C18 UNK     1      19.082  -8.724  36.472  1.00  0.00     0.171 C 
HETATM   28  C22 UNK     1      18.275  -7.452  36.618  1.00  0.00     0.034 C 
ENDBRANCH  26  27
ENDBRANCH  10  26
TORSDOF 5
ENDMDL
MODEL 4
REMARK VINA RESULT:      -7.4     31.354     34.772
REMARK  5 active torsions:
REMARK  status: ('A' for Active; 'I' for Inactive)
REMARK    1  A    between atoms: C17_22  and  O2_2 
REMARK    2  A    between atoms: C9_14  and  O2_2 
REMARK    3  A    between atoms: C10_15  and  O3_3 
REMARK    4  A    between atoms: C18_23  and  O3_3 
REMARK    5  A    between atoms: C1_6  and  C6_11 
ROOT
HETATM    1  N1  UNK     1      33.926  -7.289  33.909  1.00  0.00     0.097 N 
HETATM    2  C1  UNK     1      32.508  -7.665  34.072  1.00  0.00     0.292 C 
HETATM    3  C2  UNK     1      31.732  -7.716  32.761  1.00  0.00    -0.011 A 
HETATM    4  C3  UNK     1      32.412  -7.704  31.528  1.00  0.00    -0.045 A 
HETATM    5  C4  UNK     1      33.912  -7.589  31.486  1.00  0.00     0.069 C 
HETATM    6  C5  UNK     1      34.551  -8.012  32.805  1.00  0.00     0.275 C 
HETATM    7  C7  UNK     1      30.333  -7.855  32.757  1.00  0.00     0.049 A 
HETATM    8  C8  UNK     1      31.689  -7.764  30.327  1.00  0.00     0.047 A 
HETATM    9  C9  UNK     1      29.623  -7.927  31.557  1.00  0.00     0.102 A 
HETATM   10  C10 UNK     1      30.301  -7.875  30.343  1.00  0.00     0.102 A 
HETATM   11  H6  UNK     1      34.427  -7.500  34.772  1.00  0.00     0.317 HD
ENDROOT
BRANCH   2  12
HETATM   12  C6  UNK     1      31.890  -6.718  35.061  1.00  0.00     0.053 A 
HETATM   13  C11 UNK     1      31.050  -7.278  36.149  1.00  0.00     0.195 A 
HETATM   14  O4  UNK     1      30.847  -8.479  36.263  1.00  0.00    -0.287 OA
HETATM   15  C13 UNK     1      30.469  -6.305  37.093  1.00  0.00     0.048 A 
HETATM   16  C14 UNK     1      30.734  -4.947  36.915  1.00  0.00     0.089 A 
HETATM   17  C15 UNK     1      29.664  -6.731  38.151  1.00  0.00     0.018 A 
HETATM   18  C16 UNK     1      30.195  -4.008  37.796  1.00  0.00     0.038 A 
HETATM   19  O1  UNK     1      31.518  -4.472  35.894  1.00  0.00    -0.321 OA
HETATM   20  C20 UNK     1      29.391  -4.432  38.854  1.00  0.00     0.003 A 
HETATM   21  C19 UNK     1      29.126  -5.791  39.031  1.00  0.00     0.001 A 
HETATM   22  C12 UNK     1      32.053  -5.389  35.024  1.00  0.00     0.156 A 
ENDBRANCH   2  12
BRANCH   9  23
HETATM   23  O2  UNK     1      28.267  -8.051  31.589  1.00  0.00    -0.349 OA
BRANCH  23  24
HETATM   24  C17 UNK     1      27.508  -6.845  31.642  1.00  0.00     0.171 C 
HETATM   25  C21 UNK     1      26.514  -6.837  30.498  1.00  0.00     0.034 C 
ENDBRANCH  23  24
ENDBRANCH   9  23
BRANCH  10  26
HETATM   26  O3  UNK     1      29.620  -7.939  29.165  1.00  0.00    -0.349 OA
BRANCH  26  27
HETATM   27  C18 UNK     1      29.702  -9.160  28.433  1.00  0.00     0.171 C 
HETATM   28  C22 UNK     1      28.373  -9.878  28.520  1.00  0.00     0.034 C 
ENDBRANCH  26  27
ENDBRANCH  10  26
TORSDOF 5
ENDMDL
MODEL 5
REMARK VINA RESULT:      -7.3     32.850     36.031
REMARK  5 active torsions:
REMARK  status: ('A' for Active; 'I' for Inactive)
REMARK    1  A    between atoms: C17_22  and  O2_2 
REMARK    2  A    between atoms: C9_14  and  O2_2 
REMARK    3  A    between atoms: C10_15  and  O3_3 
REMARK    4  A    between atoms: C18_23  and  O3_3 
REMARK    5  A    between atoms: C1_6  and  C6_11 
ROOT
HETATM    1  N1  UNK     1      32.112  -5.713  37.549  1.00  0.00     0.097 N 
HETATM    2  C1  UNK     1      31.970  -6.972  36.792  1.00  0.00     0.292 C 
HETATM    3  C2  UNK     1      31.610  -6.769  35.325  1.00  0.00    -0.011 A 
HETATM    4  C3  UNK     1      31.720  -5.495  34.733  1.00  0.00    -0.045 A 
HETATM    5  C4  UNK     1      32.146  -4.307  35.553  1.00  0.00     0.069 C 
HETATM    6  C5  UNK     1      32.898  -4.727  36.813  1.00  0.00     0.275 C 
HETATM    7  C7  UNK     1      31.238  -7.857  34.517  1.00  0.00     0.049 A 
HETATM    8  C8  UNK     1      31.399  -5.321  33.378  1.00  0.00     0.047 A 
HETATM    9  C9  UNK     1      30.933  -7.676  33.167  1.00  0.00     0.102 A 
HETATM   10  C10 UNK     1      31.007  -6.408  32.600  1.00  0.00     0.102 A 
HETATM   11  H6  UNK     1      32.572  -5.909  38.438  1.00  0.00     0.317 HD
ENDROOT
BRANCH   2  12
HETATM   12  C6  UNK     1      30.967  -7.830  37.510  1.00  0.00     0.053 A 
HETATM   13  C11 UNK     1      29.601  -7.292  37.727  1.00  0.00     0.195 A 
HETATM   14  O4  UNK     1      29.270  -6.178  37.342  1.00  0.00    -0.287 OA
HETATM   15  C13 UNK     1      28.656  -8.175  38.436  1.00  0.00     0.048 A 
HETATM   16  C14 UNK     1      29.087  -9.435  38.851  1.00  0.00     0.089 A 
HETATM   17  C15 UNK     1      27.347  -7.761  38.689  1.00  0.00     0.018 A 
HETATM   18  C16 UNK     1      28.210 -10.288  39.523  1.00  0.00     0.038 A 
HETATM   19  O1  UNK     1      30.361  -9.894  38.629  1.00  0.00    -0.321 OA
HETATM   20  C20 UNK     1      26.902  -9.877  39.778  1.00  0.00     0.003 A 
HETATM   21  C19 UNK     1      26.471  -8.616  39.361  1.00  0.00     0.001 A 
HETATM   22  C12 UNK     1      31.230  -9.061  37.967  1.00  0.00     0.156 A 
ENDBRANCH   2  12
BRANCH   9  23
HETATM   23  O2  UNK     1      30.566  -8.751  32.415  1.00  0.00    -0.349 OA
BRANCH  23  24
HETATM   24  C17 UNK     1      29.207  -9.174  32.509  1.00  0.00     0.171 C 
HETATM   25  C21 UNK     1      29.163 -10.556  33.128  1.00  0.00     0.034 C 
ENDBRANCH  23  24
ENDBRANCH   9  23
BRANCH  10  26
HETATM   26  O3  UNK     1      30.706  -6.217  31.285  1.00  0.00    -0.349 OA
BRANCH  26  27
HETATM   27  C18 UNK     1      29.681  -5.272  30.985  1.00  0.00     0.171 C 
HETATM   28  C22 UNK     1      28.369  -6.005  30.810  1.00  0.00     0.034 C 
ENDBRANCH  26  27
ENDBRANCH  10  26
TORSDOF 5
ENDMDL
MODEL 6
REMARK VINA RESULT:      -7.3     33.848     37.036
REMARK  5 active torsions:
REMARK  status: ('A' for Active; 'I' for Inactive)
REMARK    1  A    between atoms: C17_22  and  O2_2 
REMARK    2  A    between atoms: C9_14  and  O2_2 
REMARK    3  A    between atoms: C10_15  and  O3_3 
REMARK    4  A    between atoms: C18_23  and  O3_3 
REMARK    5  A    between atoms: C1_6  and  C6_11 
ROOT
HETATM    1  N1  UNK     1      32.997  -6.912  38.190  1.00  0.00     0.097 N 
HETATM    2  C1  UNK     1      32.669  -8.172  37.494  1.00  0.00     0.292 C 
HETATM    3  C2  UNK     1      32.707  -8.062  35.975  1.00  0.00    -0.011 A 
HETATM    4  C3  UNK     1      33.299  -6.945  35.354  1.00  0.00    -0.045 A 
HETATM    5  C4  UNK     1      33.859  -5.820  36.183  1.00  0.00     0.069 C 
HETATM    6  C5  UNK     1      34.171  -6.266  37.609  1.00  0.00     0.275 C 
HETATM    7  C7  UNK     1      32.223  -9.104  35.165  1.00  0.00     0.049 A 
HETATM    8  C8  UNK     1      33.340  -6.859  33.954  1.00  0.00     0.047 A 
HETATM    9  C9  UNK     1      32.280  -9.015  33.773  1.00  0.00     0.102 A 
HETATM   10  C10 UNK     1      32.832  -7.890  33.168  1.00  0.00     0.102 A 
HETATM   11  H6  UNK     1      33.180  -7.112  39.173  1.00  0.00     0.317 HD
ENDROOT
BRANCH   2  12
HETATM   12  C6  UNK     1      31.334  -8.641  37.997  1.00  0.00     0.053 A 
HETATM   13  C11 UNK     1      30.188  -7.699  37.951  1.00  0.00     0.195 A 
HETATM   14  O4  UNK     1      30.298  -6.559  37.517  1.00  0.00    -0.287 OA
HETATM   15  C13 UNK     1      28.900  -8.210  38.456  1.00  0.00     0.048 A 
HETATM   16  C14 UNK     1      28.832  -9.517  38.938  1.00  0.00     0.089 A 
HETATM   17  C15 UNK     1      27.762  -7.401  38.454  1.00  0.00     0.018 A 
HETATM   18  C16 UNK     1      27.623 -10.022  39.421  1.00  0.00     0.038 A 
HETATM   19  O1  UNK     1      29.917 -10.356  38.962  1.00  0.00    -0.321 OA
HETATM   20  C20 UNK     1      26.486  -9.216  39.420  1.00  0.00     0.003 A 
HETATM   21  C19 UNK     1      26.555  -7.908  38.938  1.00  0.00     0.001 A 
HETATM   22  C12 UNK     1      31.109  -9.867  38.488  1.00  0.00     0.156 A 
ENDBRANCH   2  12
BRANCH   9  23
HETATM   23  O2  UNK     1      31.792 -10.039  33.017  1.00  0.00    -0.349 OA
BRANCH  23  24
HETATM   24  C17 UNK     1      30.573 -10.639  33.450  1.00  0.00     0.171 C 
HETATM   25  C21 UNK     1      29.412  -9.933  32.782  1.00  0.00     0.034 C 
ENDBRANCH  23  24
ENDBRANCH   9  23
BRANCH  10  26
HETATM   26  O3  UNK     1      32.888  -7.789  31.811  1.00  0.00    -0.349 OA
BRANCH  26  27
HETATM   27  C18 UNK     1      31.809  -7.118  31.165  1.00  0.00     0.171 C 
HETATM   28  C22 UNK     1      31.243  -8.016  30.086  1.00  0.00     0.034 C 
ENDBRANCH  26  27
ENDBRANCH  10  26
TORSDOF 5
ENDMDL
MODEL 7
REMARK VINA RESULT:      -7.3      3.008      5.488
REMARK  5 active torsions:
REMARK  status: ('A' for Active; 'I' for Inactive)
REMARK    1  A    between atoms: C17_22  and  O2_2 
REMARK    2  A    between atoms: C9_14  and  O2_2 
REMARK    3  A    between atoms: C10_15  and  O3_3 
REMARK    4  A    between atoms: C18_23  and  O3_3 
REMARK    5  A    between atoms: C1_6  and  C6_11 
ROOT
HETATM    1  N1  UNK     1      14.399   5.206   9.155  1.00  0.00     0.097 N 
HETATM    2  C1  UNK     1      14.319   6.394   8.282  1.00  0.00     0.292 C 
HETATM    3  C2  UNK     1      14.735   7.690   8.968  1.00  0.00    -0.011 A 
HETATM    4  C3  UNK     1      15.411   7.659  10.203  1.00  0.00    -0.045 A 
HETATM    5  C4  UNK     1      15.687   6.347  10.888  1.00  0.00     0.069 C 
HETATM    6  C5  UNK     1      15.649   5.176   9.910  1.00  0.00     0.275 C 
HETATM    7  C7  UNK     1      14.522   8.933   8.348  1.00  0.00     0.049 A 
HETATM    8  C8  UNK     1      15.800   8.857  10.821  1.00  0.00     0.047 A 
HETATM    9  C9  UNK     1      14.925  10.119   8.964  1.00  0.00     0.102 A 
HETATM   10  C10 UNK     1      15.558  10.081  10.203  1.00  0.00     0.102 A 
HETATM   11  H6  UNK     1      14.337   4.366   8.581  1.00  0.00     0.317 HD
ENDROOT
BRANCH   2  12
HETATM   12  C6  UNK     1      12.924   6.465   7.729  1.00  0.00     0.053 A 
HETATM   13  C11 UNK     1      11.788   6.544   8.681  1.00  0.00     0.195 A 
HETATM   14  O4  UNK     1      11.953   6.553   9.894  1.00  0.00    -0.287 OA
HETATM   15  C13 UNK     1      10.440   6.613   8.086  1.00  0.00     0.048 A 
HETATM   16  C14 UNK     1      10.311   6.600   6.697  1.00  0.00     0.089 A 
HETATM   17  C15 UNK     1       9.306   6.690   8.897  1.00  0.00     0.018 A 
HETATM   18  C16 UNK     1       9.045   6.665   6.112  1.00  0.00     0.038 A 
HETATM   19  O1  UNK     1      11.390   6.527   5.853  1.00  0.00    -0.321 OA
HETATM   20  C20 UNK     1       7.911   6.742   6.920  1.00  0.00     0.003 A 
HETATM   21  C19 UNK     1       8.041   6.755   8.310  1.00  0.00     0.001 A 
HETATM   22  C12 UNK     1      12.638   6.464   6.421  1.00  0.00     0.156 A 
ENDBRANCH   2  12
BRANCH   9  23
HETATM   23  O2  UNK     1      14.695  11.308   8.340  1.00  0.00    -0.349 OA
BRANCH  23  24
HETATM   24  C17 UNK     1      15.666  11.739   7.388  1.00  0.00     0.171 C 
HETATM   25  C21 UNK     1      15.544  13.237   7.203  1.00  0.00     0.034 C 
ENDBRANCH  23  24
ENDBRANCH   9  23
BRANCH  10  26
HETATM   26  O3  UNK     1      15.951  11.231  10.817  1.00  0.00    -0.349 OA
BRANCH  26  27
HETATM   27  C18 UNK     1      15.011  11.853  11.691  1.00  0.00     0.171 C 
HETATM   28  C22 UNK     1      14.775  13.276  11.231  1.00  0.00     0.034 C 
ENDBRANCH  26  27
ENDBRANCH  10  26
TORSDOF 5
ENDMDL
MODEL 8
REMARK VINA RESULT:      -7.2     32.893     36.352
REMARK  5 active torsions:
REMARK  status: ('A' for Active; 'I' for Inactive)
REMARK    1  A    between atoms: C17_22  and  O2_2 
REMARK    2  A    between atoms: C9_14  and  O2_2 
REMARK    3  A    between atoms: C10_15  and  O3_3 
REMARK    4  A    between atoms: C18_23  and  O3_3 
REMARK    5  A    between atoms: C1_6  and  C6_11 
ROOT
HETATM    1  N1  UNK     1      35.502  -7.075  35.701  1.00  0.00     0.097 N 
HETATM    2  C1  UNK     1      34.321  -7.907  35.400  1.00  0.00     0.292 C 
HETATM    3  C2  UNK     1      33.942  -7.924  33.924  1.00  0.00    -0.011 A 
HETATM    4  C3  UNK     1      34.838  -7.438  32.951  1.00  0.00    -0.045 A 
HETATM    5  C4  UNK     1      36.160  -6.847  33.361  1.00  0.00     0.069 C 
HETATM    6  C5  UNK     1      36.585  -7.313  34.750  1.00  0.00     0.275 C 
HETATM    7  C7  UNK     1      32.730  -8.495  33.497  1.00  0.00     0.049 A 
HETATM    8  C8  UNK     1      34.485  -7.470  31.594  1.00  0.00     0.047 A 
HETATM    9  C9  UNK     1      32.394  -8.535  32.143  1.00  0.00     0.102 A 
HETATM   10  C10 UNK     1      33.268  -8.017  31.193  1.00  0.00     0.102 A 
HETATM   11  H6  UNK     1      35.831  -7.292  36.642  1.00  0.00     0.317 HD
ENDROOT
BRANCH   2  12
HETATM   12  C6  UNK     1      33.191  -7.434  36.271  1.00  0.00     0.053 A 
HETATM   13  C11 UNK     1      32.790  -6.006  36.198  1.00  0.00     0.195 A 
HETATM   14  O4  UNK     1      33.348  -5.209  35.456  1.00  0.00    -0.287 OA
HETATM   15  C13 UNK     1      31.676  -5.595  37.073  1.00  0.00     0.048 A 
HETATM   16  C14 UNK     1      31.076  -6.546  37.898  1.00  0.00     0.089 A 
HETATM   17  C15 UNK     1      31.224  -4.274  37.078  1.00  0.00     0.018 A 
HETATM   18  C16 UNK     1      30.020  -6.180  38.734  1.00  0.00     0.038 A 
HETATM   19  O1  UNK     1      31.478  -7.858  37.934  1.00  0.00    -0.321 OA
HETATM   20  C20 UNK     1      29.567  -4.861  38.741  1.00  0.00     0.003 A 
HETATM   21  C19 UNK     1      30.168  -3.910  37.914  1.00  0.00     0.001 A 
HETATM   22  C12 UNK     1      32.516  -8.226  37.114  1.00  0.00     0.156 A 
ENDBRANCH   2  12
BRANCH   9  23
HETATM   23  O2  UNK     1      31.207  -9.086  31.765  1.00  0.00    -0.349 OA
BRANCH  23  24
HETATM   24  C17 UNK     1      30.019  -8.429  32.203  1.00  0.00     0.171 C 
HETATM   25  C21 UNK     1      28.852  -8.910  31.366  1.00  0.00     0.034 C 
ENDBRANCH  23  24
ENDBRANCH   9  23
BRANCH  10  26
HETATM   26  O3  UNK     1      32.950  -8.044  29.869  1.00  0.00    -0.349 OA
BRANCH  26  27
HETATM   27  C18 UNK     1      32.305  -6.890  29.333  1.00  0.00     0.171 C 
HETATM   28  C22 UNK     1      31.015  -7.312  28.663  1.00  0.00     0.034 C 
ENDBRANCH  26  27
ENDBRANCH  10  26
TORSDOF 5
ENDMDL
MODEL 9
REMARK VINA RESULT:      -7.2     35.063     37.413
REMARK  5 active torsions:
REMARK  status: ('A' for Active; 'I' for Inactive)
REMARK    1  A    between atoms: C17_22  and  O2_2 
REMARK    2  A    between atoms: C9_14  and  O2_2 
REMARK    3  A    between atoms: C10_15  and  O3_3 
REMARK    4  A    between atoms: C18_23  and  O3_3 
REMARK    5  A    between atoms: C1_6  and  C6_11 
ROOT
HETATM    1  N1  UNK     1      31.527  -4.192  37.252  1.00  0.00     0.097 N 
HETATM    2  C1  UNK     1      31.414  -5.331  36.320  1.00  0.00     0.292 C 
HETATM    3  C2  UNK     1      30.567  -6.480  36.855  1.00  0.00    -0.011 A 
HETATM    4  C3  UNK     1      29.747  -6.297  37.985  1.00  0.00    -0.045 A 
HETATM    5  C4  UNK     1      29.735  -4.978  38.712  1.00  0.00     0.069 C 
HETATM    6  C5  UNK     1      30.233  -3.838  37.829  1.00  0.00     0.275 C 
HETATM    7  C7  UNK     1      30.527  -7.717  36.188  1.00  0.00     0.049 A 
HETATM    8  C8  UNK     1      28.962  -7.356  38.462  1.00  0.00     0.047 A 
HETATM    9  C9  UNK     1      29.732  -8.761  36.662  1.00  0.00     0.102 A 
HETATM   10  C10 UNK     1      28.955  -8.583  37.803  1.00  0.00     0.102 A 
HETATM   11  H6  UNK     1      31.899  -3.387  36.748  1.00  0.00     0.317 HD
ENDROOT
BRANCH   2  12
HETATM   12  C6  UNK     1      32.805  -5.771  35.959  1.00  0.00     0.053 A 
HETATM   13  C11 UNK     1      33.115  -6.043  34.533  1.00  0.00     0.195 A 
HETATM   14  O4  UNK     1      32.277  -5.919  33.649  1.00  0.00    -0.287 OA
HETATM   15  C13 UNK     1      34.494  -6.470  34.234  1.00  0.00     0.048 A 
HETATM   16  C14 UNK     1      35.408  -6.593  35.281  1.00  0.00     0.089 A 
HETATM   17  C15 UNK     1      34.885  -6.750  32.923  1.00  0.00     0.018 A 
HETATM   18  C16 UNK     1      36.719  -6.996  35.021  1.00  0.00     0.038 A 
HETATM   19  O1  UNK     1      35.079  -6.331  36.587  1.00  0.00    -0.321 OA
HETATM   20  C20 UNK     1      37.111  -7.276  33.713  1.00  0.00     0.003 A 
HETATM   21  C19 UNK     1      36.196  -7.153  32.665  1.00  0.00     0.001 A 
HETATM   22  C12 UNK     1      33.791  -5.933  36.850  1.00  0.00     0.156 A 
ENDBRANCH   2  12
BRANCH   9  23
HETATM   23  O2  UNK     1      29.724  -9.951  35.998  1.00  0.00    -0.349 OA
BRANCH  23  24
HETATM   24  C17 UNK     1      30.117  -9.929  34.627  1.00  0.00     0.171 C 
HETATM   25  C21 UNK     1      28.880 -10.026  33.758  1.00  0.00     0.034 C 
ENDBRANCH  23  24
ENDBRANCH   9  23
BRANCH  10  26
HETATM   26  O3  UNK     1      28.179  -9.596  38.279  1.00  0.00    -0.349 OA
BRANCH  26  27
HETATM   27  C18 UNK     1      26.766  -9.439  38.166  1.00  0.00     0.171 C 
HETATM   28  C22 UNK     1      26.295 -10.112  36.895  1.00  0.00     0.034 C 
ENDBRANCH  26  27
ENDBRANCH  10  26
TORSDOF 5
ENDMDL
MODEL 10
REMARK VINA RESULT:      -7.2     12.659     15.123
REMARK  5 active torsions:
REMARK  status: ('A' for Active; 'I' for Inactive)
REMARK    1  A    between atoms: C17_22  and  O2_2 
REMARK    2  A    between atoms: C9_14  and  O2_2 
REMARK    3  A    between atoms: C10_15  and  O3_3 
REMARK    4  A    between atoms: C18_23  and  O3_3 
REMARK    5  A    between atoms: C1_6  and  C6_11 
ROOT
HETATM    1  N1  UNK     1      18.692  -0.977  13.347  1.00  0.00     0.097 N 
HETATM    2  C1  UNK     1      19.780  -1.282  14.296  1.00  0.00     0.292 C 
HETATM    3  C2  UNK     1      20.191  -2.750  14.308  1.00  0.00    -0.011 A 
HETATM    4  C3  UNK     1      19.765  -3.619  13.285  1.00  0.00    -0.045 A 
HETATM    5  C4  UNK     1      18.857  -3.122  12.191  1.00  0.00     0.069 C 
HETATM    6  C5  UNK     1      18.920  -1.604  12.047  1.00  0.00     0.275 C 
HETATM    7  C7  UNK     1      21.062  -3.246  15.294  1.00  0.00     0.049 A 
HETATM    8  C8  UNK     1      20.159  -4.965  13.298  1.00  0.00     0.047 A 
HETATM    9  C9  UNK     1      21.459  -4.585  15.291  1.00  0.00     0.102 A 
HETATM   10  C10 UNK     1      21.002  -5.445  14.298  1.00  0.00     0.102 A 
HETATM   11  H6  UNK     1      18.632   0.034  13.223  1.00  0.00     0.317 HD
ENDROOT
BRANCH   2  12
HETATM   12  C6  UNK     1      19.355  -0.800  15.654  1.00  0.00     0.053 A 
HETATM   13  C11 UNK     1      19.503   0.643  15.972  1.00  0.00     0.195 A 
HETATM   14  O4  UNK     1      19.958   1.444  15.167  1.00  0.00    -0.287 OA
HETATM   15  C13 UNK     1      19.070   1.063  17.318  1.00  0.00     0.048 A 
HETATM   16  C14 UNK     1      18.558   0.106  18.195  1.00  0.00     0.089 A 
HETATM   17  C15 UNK     1      19.169   2.398  17.714  1.00  0.00     0.018 A 
HETATM   18  C16 UNK     1      18.142   0.481  19.474  1.00  0.00     0.038 A 
HETATM   19  O1  UNK     1      18.438  -1.219  17.859  1.00  0.00    -0.321 OA
HETATM   20  C20 UNK     1      18.240   1.815  19.871  1.00  0.00     0.003 A 
HETATM   21  C19 UNK     1      18.752   2.771  18.993  1.00  0.00     0.001 A 
HETATM   22  C12 UNK     1      18.844  -1.595  16.603  1.00  0.00     0.156 A 
ENDBRANCH   2  12
BRANCH   9  23
HETATM   23  O2  UNK     1      22.296  -5.035  16.267  1.00  0.00    -0.349 OA
BRANCH  23  24
HETATM   24  C17 UNK     1      23.344  -4.160  16.676  1.00  0.00     0.171 C 
HETATM   25  C21 UNK     1      23.908  -4.647  17.995  1.00  0.00     0.034 C 
ENDBRANCH  23  24
ENDBRANCH   9  23
BRANCH  10  26
HETATM   26  O3  UNK     1      21.377  -6.754  14.287  1.00  0.00    -0.349 OA
BRANCH  26  27
HETATM   27  C18 UNK     1      20.916  -7.552  13.199  1.00  0.00     0.171 C 
HETATM   28  C22 UNK     1      21.977  -8.574  12.852  1.00  0.00     0.034 C 
ENDBRANCH  26  27
ENDBRANCH  10  26
TORSDOF 5
ENDMDL
