MODEL 1
REMARK VINA RESULT:      -8.3      0.000      0.000
REMARK  3 active torsions:
REMARK  status: ('A' for Active; 'I' for Inactive)
REMARK    1  A    between atoms: C6_12  and  N1_5 
REMARK    2  A    between atoms: C1_7  and  C5_11 
REMARK    3  A    between atoms: C10_16  and  C6_12 
ROOT
HETATM    1  O1  UNK     1      29.753  -9.101  33.152  1.00  0.00    -0.303 OA
HETATM    2  O2  UNK     1      30.253  -9.522  36.015  1.00  0.00    -0.265 OA
HETATM    3  O3  UNK     1      30.473  -5.168  32.207  1.00  0.00    -0.287 OA
HETATM    4  N1  UNK     1      30.846  -7.231  36.030  1.00  0.00    -0.329 N 
HETATM    5  C1  UNK     1      30.922  -6.151  35.047  1.00  0.00     0.164 A 
HETATM    6  C2  UNK     1      30.464  -6.882  33.831  1.00  0.00     0.060 A 
HETATM    7  C3  UNK     1      30.193  -8.172  34.048  1.00  0.00     0.156 A 
HETATM    8  C4  UNK     1      30.425  -8.441  35.477  1.00  0.00     0.279 A 
HETATM    9  C7  UNK     1      30.271  -6.342  32.480  1.00  0.00     0.196 A 
HETATM   10  C8  UNK     1      29.809  -7.326  31.474  1.00  0.00     0.049 A 
HETATM   11  C9  UNK     1      29.574  -8.655  31.860  1.00  0.00     0.090 A 
HETATM   12  C13 UNK     1      29.607  -6.936  30.148  1.00  0.00     0.018 A 
HETATM   13  C14 UNK     1      29.138  -9.589  30.921  1.00  0.00     0.038 A 
HETATM   14  C20 UNK     1      29.170  -7.875  29.212  1.00  0.00     0.001 A 
HETATM   15  C21 UNK     1      28.937  -9.197  29.597  1.00  0.00     0.003 A 
ENDROOT
BRANCH   4  16
HETATM   16  C6  UNK     1      31.106  -7.015  37.441  1.00  0.00     0.165 C 
BRANCH  16  17
HETATM   17  C10 UNK     1      30.123  -6.059  38.052  1.00  0.00    -0.037 A 
HETATM   18  C17 UNK     1      28.763  -6.350  38.036  1.00  0.00     0.028 A 
HETATM   19  C22 UNK     1      27.897  -5.435  38.614  1.00  0.00     0.116 A 
HETATM   20  N2  UNK     1      28.293  -4.279  39.193  1.00  0.00    -0.273 NA
HETATM   21  C23 UNK     1      29.622  -4.031  39.189  1.00  0.00     0.116 A 
HETATM   22  C18 UNK     1      30.569  -4.879  38.638  1.00  0.00     0.028 A 
ENDBRANCH  16  17
ENDBRANCH   4  16
BRANCH   5  23
HETATM   23  C5  UNK     1      32.305  -5.613  34.908  1.00  0.00     0.008 A 
HETATM   24  C11 UNK     1      32.607  -4.330  35.365  1.00  0.00     0.125 A 
HETATM   25  F1  UNK     1      31.659  -3.571  35.932  1.00  0.00    -0.205 F 
HETATM   26  C15 UNK     1      33.902  -3.829  35.232  1.00  0.00     0.043 A 
HETATM   27  C19 UNK     1      34.895  -4.611  34.642  1.00  0.00     0.003 A 
HETATM   28  C16 UNK     1      34.593  -5.894  34.185  1.00  0.00     0.001 A 
HETATM   29  C12 UNK     1      33.298  -6.394  34.318  1.00  0.00     0.012 A 
ENDBRANCH   5  23
TORSDOF 3
ENDMDL
MODEL 2
REMARK VINA RESULT:      -8.0      1.538      1.910
REMARK  3 active torsions:
REMARK  status: ('A' for Active; 'I' for Inactive)
REMARK    1  A    between atoms: C6_12  and  N1_5 
REMARK    2  A    between atoms: C1_7  and  C5_11 
REMARK    3  A    between atoms: C10_16  and  C6_12 
ROOT
HETATM    1  O1  UNK     1      30.927 -10.714  34.812  1.00  0.00    -0.303 OA
HETATM    2  O2  UNK     1      31.317 -10.155  37.668  1.00  0.00    -0.265 OA
HETATM    3  O3  UNK     1      30.966  -7.181  32.716  1.00  0.00    -0.287 OA
HETATM    4  N1  UNK     1      31.474  -7.895  36.986  1.00  0.00    -0.329 N 
HETATM    5  C1  UNK     1      31.411  -7.164  35.722  1.00  0.00     0.164 A 
HETATM    6  C2  UNK     1      31.172  -8.299  34.784  1.00  0.00     0.060 A 
HETATM    7  C3  UNK     1      31.131  -9.493  35.383  1.00  0.00     0.156 A 
HETATM    8  C4  UNK     1      31.320  -9.272  36.827  1.00  0.00     0.279 A 
HETATM    9  C7  UNK     1      30.967  -8.236  33.333  1.00  0.00     0.196 A 
HETATM   10  C8  UNK     1      30.759  -9.545  32.673  1.00  0.00     0.049 A 
HETATM   11  C9  UNK     1      30.750 -10.717  33.445  1.00  0.00     0.090 A 
HETATM   12  C13 UNK     1      30.571  -9.615  31.290  1.00  0.00     0.018 A 
HETATM   13  C14 UNK     1      30.553 -11.955  32.834  1.00  0.00     0.038 A 
HETATM   14  C20 UNK     1      30.375 -10.857  30.684  1.00  0.00     0.001 A 
HETATM   15  C21 UNK     1      30.366 -12.023  31.453  1.00  0.00     0.003 A 
ENDROOT
BRANCH   4  16
HETATM   16  C6  UNK     1      31.601  -7.222  38.265  1.00  0.00     0.165 C 
BRANCH  16  17
HETATM   17  C10 UNK     1      30.453  -6.289  38.525  1.00  0.00    -0.037 A 
HETATM   18  C17 UNK     1      29.166  -6.793  38.678  1.00  0.00     0.028 A 
HETATM   19  C22 UNK     1      28.141  -5.891  38.917  1.00  0.00     0.116 A 
HETATM   20  N2  UNK     1      28.317  -4.553  39.009  1.00  0.00    -0.273 NA
HETATM   21  C23 UNK     1      29.581  -4.101  38.855  1.00  0.00     0.116 A 
HETATM   22  C18 UNK     1      30.674  -4.919  38.614  1.00  0.00     0.028 A 
ENDBRANCH  16  17
ENDBRANCH   4  16
BRANCH   5  23
HETATM   23  C5  UNK     1      32.676  -6.434  35.429  1.00  0.00     0.008 A 
HETATM   24  C11 UNK     1      32.672  -5.042  35.316  1.00  0.00     0.125 A 
HETATM   25  F1  UNK     1      31.534  -4.353  35.469  1.00  0.00    -0.205 F 
HETATM   26  C15 UNK     1      33.859  -4.362  35.042  1.00  0.00     0.043 A 
HETATM   27  C19 UNK     1      35.048  -5.072  34.880  1.00  0.00     0.003 A 
HETATM   28  C16 UNK     1      35.052  -6.462  34.992  1.00  0.00     0.001 A 
HETATM   29  C12 UNK     1      33.866  -7.142  35.267  1.00  0.00     0.012 A 
ENDBRANCH   5  23
TORSDOF 3
ENDMDL
MODEL 3
REMARK VINA RESULT:      -8.0      2.550      6.205
REMARK  3 active torsions:
REMARK  status: ('A' for Active; 'I' for Inactive)
REMARK    1  A    between atoms: C6_12  and  N1_5 
REMARK    2  A    between atoms: C1_7  and  C5_11 
REMARK    3  A    between atoms: C10_16  and  C6_12 
ROOT
HETATM    1  O1  UNK     1      27.635  -7.341  35.690  1.00  0.00    -0.303 OA
HETATM    2  O2  UNK     1      27.560  -5.795  33.194  1.00  0.00    -0.265 OA
HETATM    3  O3  UNK     1      31.481  -8.598  36.399  1.00  0.00    -0.287 OA
HETATM    4  N1  UNK     1      29.892  -6.192  33.128  1.00  0.00    -0.329 N 
HETATM    5  C1  UNK     1      30.872  -6.881  33.966  1.00  0.00     0.164 A 
HETATM    6  C2  UNK     1      29.974  -7.387  35.044  1.00  0.00     0.060 A 
HETATM    7  C3  UNK     1      28.694  -7.035  34.888  1.00  0.00     0.156 A 
HETATM    8  C4  UNK     1      28.597  -6.255  33.642  1.00  0.00     0.279 A 
HETATM    9  C7  UNK     1      30.337  -8.214  36.200  1.00  0.00     0.196 A 
HETATM   10  C8  UNK     1      29.214  -8.553  37.104  1.00  0.00     0.049 A 
HETATM   11  C9  UNK     1      27.921  -8.099  36.804  1.00  0.00     0.090 A 
HETATM   12  C13 UNK     1      29.440  -9.321  38.249  1.00  0.00     0.018 A 
HETATM   13  C14 UNK     1      26.856  -8.413  37.648  1.00  0.00     0.038 A 
HETATM   14  C20 UNK     1      28.370  -9.632  39.091  1.00  0.00     0.001 A 
HETATM   15  C21 UNK     1      27.083  -9.180  38.792  1.00  0.00     0.003 A 
ENDROOT
BRANCH   4  16
HETATM   16  C6  UNK     1      30.247  -5.587  31.858  1.00  0.00     0.165 C 
BRANCH  16  17
HETATM   17  C10 UNK     1      30.384  -6.611  30.769  1.00  0.00    -0.037 A 
HETATM   18  C17 UNK     1      29.251  -7.128  30.150  1.00  0.00     0.028 A 
HETATM   19  C22 UNK     1      29.431  -8.070  29.149  1.00  0.00     0.116 A 
HETATM   20  N2  UNK     1      30.640  -8.516  28.738  1.00  0.00    -0.273 NA
HETATM   21  C23 UNK     1      31.718  -7.990  29.363  1.00  0.00     0.116 A 
HETATM   22  C18 UNK     1      31.645  -7.045  30.373  1.00  0.00     0.028 A 
ENDBRANCH  16  17
ENDBRANCH   4  16
BRANCH   5  23
HETATM   23  C5  UNK     1      31.923  -5.958  34.480  1.00  0.00     0.008 A 
HETATM   24  C11 UNK     1      33.240  -6.077  34.034  1.00  0.00     0.125 A 
HETATM   25  F1  UNK     1      33.571  -7.020  33.142  1.00  0.00    -0.205 F 
HETATM   26  C15 UNK     1      34.221  -5.211  34.518  1.00  0.00     0.043 A 
HETATM   27  C19 UNK     1      33.885  -4.227  35.447  1.00  0.00     0.003 A 
HETATM   28  C16 UNK     1      32.569  -4.107  35.893  1.00  0.00     0.001 A 
HETATM   29  C12 UNK     1      31.588  -4.973  35.410  1.00  0.00     0.012 A 
ENDBRANCH   5  23
TORSDOF 3
ENDMDL
MODEL 4
REMARK VINA RESULT:      -7.9      2.726      6.144
REMARK  3 active torsions:
REMARK  status: ('A' for Active; 'I' for Inactive)
REMARK    1  A    between atoms: C6_12  and  N1_5 
REMARK    2  A    between atoms: C1_7  and  C5_11 
REMARK    3  A    between atoms: C10_16  and  C6_12 
ROOT
HETATM    1  O1  UNK     1      29.998  -9.396  37.735  1.00  0.00    -0.303 OA
HETATM    2  O2  UNK     1      32.507  -9.250  36.217  1.00  0.00    -0.265 OA
HETATM    3  O3  UNK     1      27.184  -6.995  35.948  1.00  0.00    -0.287 OA
HETATM    4  N1  UNK     1      31.308  -7.800  34.783  1.00  0.00    -0.329 N 
HETATM    5  C1  UNK     1      29.949  -7.264  34.717  1.00  0.00     0.164 A 
HETATM    6  C2  UNK     1      29.367  -7.894  35.937  1.00  0.00     0.060 A 
HETATM    7  C3  UNK     1      30.219  -8.686  36.593  1.00  0.00     0.156 A 
HETATM    8  C4  UNK     1      31.504  -8.649  35.873  1.00  0.00     0.279 A 
HETATM    9  C7  UNK     1      28.013  -7.722  36.476  1.00  0.00     0.196 A 
HETATM   10  C8  UNK     1      27.729  -8.492  37.709  1.00  0.00     0.049 A 
HETATM   11  C9  UNK     1      28.735  -9.290  38.276  1.00  0.00     0.090 A 
HETATM   12  C13 UNK     1      26.468  -8.423  38.306  1.00  0.00     0.018 A 
HETATM   13  C14 UNK     1      28.478 -10.017  39.438  1.00  0.00     0.038 A 
HETATM   14  C20 UNK     1      26.217  -9.155  39.469  1.00  0.00     0.001 A 
HETATM   15  C21 UNK     1      27.218  -9.949  40.033  1.00  0.00     0.003 A 
ENDROOT
BRANCH   4  16
HETATM   16  C6  UNK     1      32.343  -7.407  33.847  1.00  0.00     0.165 C 
BRANCH  16  17
HETATM   17  C10 UNK     1      33.183  -6.282  34.381  1.00  0.00    -0.037 A 
HETATM   18  C17 UNK     1      32.640  -5.009  34.516  1.00  0.00     0.028 A 
HETATM   19  C22 UNK     1      33.457  -4.006  35.014  1.00  0.00     0.116 A 
HETATM   20  N2  UNK     1      34.747  -4.189  35.376  1.00  0.00    -0.273 NA
HETATM   21  C23 UNK     1      35.239  -5.439  35.230  1.00  0.00     0.116 A 
HETATM   22  C18 UNK     1      34.506  -6.510  34.743  1.00  0.00     0.028 A 
ENDBRANCH  16  17
ENDBRANCH   4  16
BRANCH   5  23
HETATM   23  C5  UNK     1      29.244  -7.669  33.468  1.00  0.00     0.008 A 
HETATM   24  C11 UNK     1      28.527  -6.725  32.731  1.00  0.00     0.125 A 
HETATM   25  F1  UNK     1      28.466  -5.450  33.138  1.00  0.00    -0.205 F 
HETATM   26  C15 UNK     1      27.867  -7.108  31.563  1.00  0.00     0.043 A 
HETATM   27  C19 UNK     1      27.924  -8.433  31.133  1.00  0.00     0.003 A 
HETATM   28  C16 UNK     1      28.641  -9.377  31.869  1.00  0.00     0.001 A 
HETATM   29  C12 UNK     1      29.300  -8.994  33.037  1.00  0.00     0.012 A 
ENDBRANCH   5  23
TORSDOF 3
ENDMDL
MODEL 5
REMARK VINA RESULT:      -7.8      3.160      6.957
REMARK  3 active torsions:
REMARK  status: ('A' for Active; 'I' for Inactive)
REMARK    1  A    between atoms: C6_12  and  N1_5 
REMARK    2  A    between atoms: C1_7  and  C5_11 
REMARK    3  A    between atoms: C10_16  and  C6_12 
ROOT
HETATM    1  O1  UNK     1      30.713  -8.960  36.290  1.00  0.00    -0.303 OA
HETATM    2  O2  UNK     1      32.885  -8.835  34.319  1.00  0.00    -0.265 OA
HETATM    3  O3  UNK     1      27.654  -6.488  35.104  1.00  0.00    -0.287 OA
HETATM    4  N1  UNK     1      31.460  -7.345  33.158  1.00  0.00    -0.329 N 
HETATM    5  C1  UNK     1      30.125  -6.784  33.361  1.00  0.00     0.164 A 
HETATM    6  C2  UNK     1      29.776  -7.422  34.663  1.00  0.00     0.060 A 
HETATM    7  C3  UNK     1      30.723  -8.238  35.134  1.00  0.00     0.156 A 
HETATM    8  C4  UNK     1      31.846  -8.213  34.180  1.00  0.00     0.279 A 
HETATM    9  C7  UNK     1      28.555  -7.235  35.455  1.00  0.00     0.196 A 
HETATM   10  C8  UNK     1      28.499  -8.018  36.711  1.00  0.00     0.049 A 
HETATM   11  C9  UNK     1      29.579  -8.841  37.065  1.00  0.00     0.090 A 
HETATM   12  C13 UNK     1      27.378  -7.937  37.541  1.00  0.00     0.018 A 
HETATM   13  C14 UNK     1      29.537  -9.580  38.247  1.00  0.00     0.038 A 
HETATM   14  C20 UNK     1      27.341  -8.680  38.722  1.00  0.00     0.001 A 
HETATM   15  C21 UNK     1      28.416  -9.499  39.074  1.00  0.00     0.003 A 
ENDROOT
BRANCH   4  16
HETATM   16  C6  UNK     1      32.304  -6.955  32.045  1.00  0.00     0.165 C 
BRANCH  16  17
HETATM   17  C10 UNK     1      32.074  -7.819  30.838  1.00  0.00    -0.037 A 
HETATM   18  C17 UNK     1      31.589  -7.259  29.662  1.00  0.00     0.028 A 
HETATM   19  C22 UNK     1      31.395  -8.098  28.576  1.00  0.00     0.116 A 
HETATM   20  N2  UNK     1      31.648  -9.427  28.592  1.00  0.00    -0.273 NA
HETATM   21  C23 UNK     1      32.118  -9.935  29.753  1.00  0.00     0.116 A 
HETATM   22  C18 UNK     1      32.346  -9.182  30.893  1.00  0.00     0.028 A 
ENDBRANCH  16  17
ENDBRANCH   4  16
BRANCH   5  23
HETATM   23  C5  UNK     1      29.185  -7.160  32.267  1.00  0.00     0.008 A 
HETATM   24  C11 UNK     1      28.580  -6.169  31.492  1.00  0.00     0.125 A 
HETATM   25  F1  UNK     1      28.837  -4.875  31.724  1.00  0.00    -0.205 F 
HETATM   26  C15 UNK     1      27.700  -6.525  30.470  1.00  0.00     0.043 A 
HETATM   27  C19 UNK     1      27.425  -7.869  30.222  1.00  0.00     0.003 A 
HETATM   28  C16 UNK     1      28.029  -8.859  30.996  1.00  0.00     0.001 A 
HETATM   29  C12 UNK     1      28.909  -8.504  32.019  1.00  0.00     0.012 A 
ENDBRANCH   5  23
TORSDOF 3
ENDMDL
MODEL 6
REMARK VINA RESULT:      -7.8      2.874      6.764
REMARK  3 active torsions:
REMARK  status: ('A' for Active; 'I' for Inactive)
REMARK    1  A    between atoms: C6_12  and  N1_5 
REMARK    2  A    between atoms: C1_7  and  C5_11 
REMARK    3  A    between atoms: C10_16  and  C6_12 
ROOT
HETATM    1  O1  UNK     1      28.489  -7.493  37.207  1.00  0.00    -0.303 OA
HETATM    2  O2  UNK     1      27.643  -9.985  35.903  1.00  0.00    -0.265 OA
HETATM    3  O3  UNK     1      31.141  -5.515  34.773  1.00  0.00    -0.287 OA
HETATM    4  N1  UNK     1      29.039  -9.279  34.127  1.00  0.00    -0.329 N 
HETATM    5  C1  UNK     1      29.895  -8.127  33.848  1.00  0.00     0.164 A 
HETATM    6  C2  UNK     1      29.707  -7.358  35.112  1.00  0.00     0.060 A 
HETATM    7  C3  UNK     1      28.865  -7.936  35.974  1.00  0.00     0.156 A 
HETATM    8  C4  UNK     1      28.408  -9.200  35.369  1.00  0.00     0.279 A 
HETATM    9  C7  UNK     1      30.342  -6.092  35.495  1.00  0.00     0.196 A 
HETATM   10  C8  UNK     1      29.945  -5.570  36.823  1.00  0.00     0.049 A 
HETATM   11  C9  UNK     1      29.038  -6.296  37.611  1.00  0.00     0.090 A 
HETATM   12  C13 UNK     1      30.469  -4.362  37.290  1.00  0.00     0.018 A 
HETATM   13  C14 UNK     1      28.659  -5.814  38.863  1.00  0.00     0.038 A 
HETATM   14  C20 UNK     1      30.085  -3.884  38.544  1.00  0.00     0.001 A 
HETATM   15  C21 UNK     1      29.183  -4.607  39.328  1.00  0.00     0.003 A 
ENDROOT
BRANCH   4  16
HETATM   16  C6  UNK     1      28.941 -10.409  33.223  1.00  0.00     0.165 C 
BRANCH  16  17
HETATM   17  C10 UNK     1      30.291 -10.947  32.849  1.00  0.00    -0.037 A 
HETATM   18  C17 UNK     1      31.098 -11.540  33.813  1.00  0.00     0.028 A 
HETATM   19  C22 UNK     1      32.336 -12.021  33.417  1.00  0.00     0.116 A 
HETATM   20  N2  UNK     1      32.806 -11.949  32.150  1.00  0.00    -0.273 NA
HETATM   21  C23 UNK     1      31.994 -11.366  31.241  1.00  0.00     0.116 A 
HETATM   22  C18 UNK     1      30.740 -10.854  31.536  1.00  0.00     0.028 A 
ENDBRANCH  16  17
ENDBRANCH   4  16
BRANCH   5  23
HETATM   23  C5  UNK     1      29.449  -7.372  32.644  1.00  0.00     0.008 A 
HETATM   24  C11 UNK     1      30.371  -7.019  31.657  1.00  0.00     0.125 A 
HETATM   25  F1  UNK     1      31.662  -7.355  31.783  1.00  0.00    -0.205 F 
HETATM   26  C15 UNK     1      29.950  -6.311  30.531  1.00  0.00     0.043 A 
HETATM   27  C19 UNK     1      28.608  -5.956  30.392  1.00  0.00     0.003 A 
HETATM   28  C16 UNK     1      27.687  -6.309  31.378  1.00  0.00     0.001 A 
HETATM   29  C12 UNK     1      28.108  -7.016  32.504  1.00  0.00     0.012 A 
ENDBRANCH   5  23
TORSDOF 3
ENDMDL
MODEL 7
REMARK VINA RESULT:      -7.7      2.758      5.319
REMARK  3 active torsions:
REMARK  status: ('A' for Active; 'I' for Inactive)
REMARK    1  A    between atoms: C6_12  and  N1_5 
REMARK    2  A    between atoms: C1_7  and  C5_11 
REMARK    3  A    between atoms: C10_16  and  C6_12 
ROOT
HETATM    1  O1  UNK     1      33.931  -6.303  36.067  1.00  0.00    -0.303 OA
HETATM    2  O2  UNK     1      31.726  -5.197  37.660  1.00  0.00    -0.265 OA
HETATM    3  O3  UNK     1      32.429  -8.981  33.338  1.00  0.00    -0.287 OA
HETATM    4  N1  UNK     1      30.345  -6.554  36.300  1.00  0.00    -0.329 N 
HETATM    5  C1  UNK     1      30.541  -7.486  35.191  1.00  0.00     0.164 A 
HETATM    6  C2  UNK     1      32.025  -7.422  35.064  1.00  0.00     0.060 A 
HETATM    7  C3  UNK     1      32.604  -6.581  35.926  1.00  0.00     0.156 A 
HETATM    8  C4  UNK     1      31.538  -5.995  36.757  1.00  0.00     0.279 A 
HETATM    9  C7  UNK     1      32.880  -8.175  34.139  1.00  0.00     0.196 A 
HETATM   10  C8  UNK     1      34.328  -7.887  34.251  1.00  0.00     0.049 A 
HETATM   11  C9  UNK     1      34.780  -6.966  35.208  1.00  0.00     0.090 A 
HETATM   12  C13 UNK     1      35.241  -8.529  33.410  1.00  0.00     0.018 A 
HETATM   13  C14 UNK     1      36.142  -6.689  35.323  1.00  0.00     0.038 A 
HETATM   14  C20 UNK     1      36.603  -8.247  33.529  1.00  0.00     0.001 A 
HETATM   15  C21 UNK     1      37.052  -7.330  34.482  1.00  0.00     0.003 A 
ENDROOT
BRANCH   4  16
HETATM   16  C6  UNK     1      29.043  -6.321  36.897  1.00  0.00     0.165 C 
BRANCH  16  17
HETATM   17  C10 UNK     1      28.425  -7.591  37.407  1.00  0.00    -0.037 A 
HETATM   18  C17 UNK     1      27.264  -8.085  36.824  1.00  0.00     0.028 A 
HETATM   19  C22 UNK     1      26.734  -9.261  37.331  1.00  0.00     0.116 A 
HETATM   20  N2  UNK     1      27.276  -9.955  38.358  1.00  0.00    -0.273 NA
HETATM   21  C23 UNK     1      28.404  -9.443  38.899  1.00  0.00     0.116 A 
HETATM   22  C18 UNK     1      29.012  -8.277  38.465  1.00  0.00     0.028 A 
ENDBRANCH  16  17
ENDBRANCH   4  16
BRANCH   5  23
HETATM   23  C5  UNK     1      29.839  -7.042  33.953  1.00  0.00     0.008 A 
HETATM   24  C11 UNK     1      28.839  -7.838  33.391  1.00  0.00     0.125 A 
HETATM   25  F1  UNK     1      28.502  -9.004  33.957  1.00  0.00    -0.205 F 
HETATM   26  C15 UNK     1      28.185  -7.420  32.232  1.00  0.00     0.043 A 
HETATM   27  C19 UNK     1      28.530  -6.208  31.635  1.00  0.00     0.003 A 
HETATM   28  C16 UNK     1      29.529  -5.413  32.196  1.00  0.00     0.001 A 
HETATM   29  C12 UNK     1      30.183  -5.830  33.355  1.00  0.00     0.012 A 
ENDBRANCH   5  23
TORSDOF 3
ENDMDL
MODEL 8
REMARK VINA RESULT:      -7.7      2.126      2.860
REMARK  3 active torsions:
REMARK  status: ('A' for Active; 'I' for Inactive)
REMARK    1  A    between atoms: C6_12  and  N1_5 
REMARK    2  A    between atoms: C1_7  and  C5_11 
REMARK    3  A    between atoms: C10_16  and  C6_12 
ROOT
HETATM    1  O1  UNK     1      28.783  -8.720  32.728  1.00  0.00    -0.303 OA
HETATM    2  O2  UNK     1      27.704  -9.408  35.371  1.00  0.00    -0.265 OA
HETATM    3  O3  UNK     1      30.611  -5.046  32.919  1.00  0.00    -0.287 OA
HETATM    4  N1  UNK     1      28.634  -7.342  36.053  1.00  0.00    -0.329 N 
HETATM    5  C1  UNK     1      29.392  -6.263  35.422  1.00  0.00     0.164 A 
HETATM    6  C2  UNK     1      29.470  -6.789  34.028  1.00  0.00     0.060 A 
HETATM    7  C3  UNK     1      28.888  -7.980  33.869  1.00  0.00     0.156 A 
HETATM    8  C4  UNK     1      28.323  -8.377  35.170  1.00  0.00     0.279 A 
HETATM    9  C7  UNK     1      30.081  -6.145  32.860  1.00  0.00     0.196 A 
HETATM   10  C8  UNK     1      30.003  -6.926  31.604  1.00  0.00     0.049 A 
HETATM   11  C9  UNK     1      29.359  -8.174  31.602  1.00  0.00     0.090 A 
HETATM   12  C13 UNK     1      30.566  -6.425  30.427  1.00  0.00     0.018 A 
HETATM   13  C14 UNK     1      29.279  -8.917  30.424  1.00  0.00     0.038 A 
HETATM   14  C20 UNK     1      30.483  -7.174  29.252  1.00  0.00     0.001 A 
HETATM   15  C21 UNK     1      29.842  -8.415  29.250  1.00  0.00     0.003 A 
ENDROOT
BRANCH   4  16
HETATM   16  C6  UNK     1      28.193  -7.275  37.433  1.00  0.00     0.165 C 
BRANCH  16  17
HETATM   17  C10 UNK     1      28.656  -8.463  38.227  1.00  0.00    -0.037 A 
HETATM   18  C17 UNK     1      29.966  -8.914  38.109  1.00  0.00     0.028 A 
HETATM   19  C22 UNK     1      30.344 -10.013  38.865  1.00  0.00     0.116 A 
HETATM   20  N2  UNK     1      29.517 -10.673  39.708  1.00  0.00    -0.273 NA
HETATM   21  C23 UNK     1      28.252 -10.205  39.796  1.00  0.00     0.116 A 
HETATM   22  C18 UNK     1      27.776  -9.115  39.085  1.00  0.00     0.028 A 
ENDBRANCH  16  17
ENDBRANCH   4  16
BRANCH   5  23
HETATM   23  C5  UNK     1      30.735  -6.081  36.043  1.00  0.00     0.008 A 
HETATM   24  C11 UNK     1      30.956  -5.032  36.937  1.00  0.00     0.125 A 
HETATM   25  F1  UNK     1      29.967  -4.182  37.244  1.00  0.00    -0.205 F 
HETATM   26  C15 UNK     1      32.214  -4.864  37.516  1.00  0.00     0.043 A 
HETATM   27  C19 UNK     1      33.250  -5.742  37.201  1.00  0.00     0.003 A 
HETATM   28  C16 UNK     1      33.029  -6.791  36.308  1.00  0.00     0.001 A 
HETATM   29  C12 UNK     1      31.771  -6.959  35.728  1.00  0.00     0.012 A 
ENDBRANCH   5  23
TORSDOF 3
ENDMDL
MODEL 9
REMARK VINA RESULT:      -7.7     31.796     34.784
REMARK  3 active torsions:
REMARK  status: ('A' for Active; 'I' for Inactive)
REMARK    1  A    between atoms: C6_12  and  N1_5 
REMARK    2  A    between atoms: C1_7  and  C5_11 
REMARK    3  A    between atoms: C10_16  and  C6_12 
ROOT
HETATM    1  O1  UNK     1      10.304   8.216   9.444  1.00  0.00    -0.303 OA
HETATM    2  O2  UNK     1      11.053   9.972  11.676  1.00  0.00    -0.265 OA
HETATM    3  O3  UNK     1      13.512   7.789   6.913  1.00  0.00    -0.287 OA
HETATM    4  N1  UNK     1      13.176  10.039  10.632  1.00  0.00    -0.329 N 
HETATM    5  C1  UNK     1      13.787   9.455   9.439  1.00  0.00     0.164 A 
HETATM    6  C2  UNK     1      12.622   8.693   8.904  1.00  0.00     0.060 A 
HETATM    7  C3  UNK     1      11.524   8.785   9.660  1.00  0.00     0.156 A 
HETATM    8  C4  UNK     1      11.843   9.662  10.800  1.00  0.00     0.279 A 
HETATM    9  C7  UNK     1      12.559   7.901   7.670  1.00  0.00     0.196 A 
HETATM   10  C8  UNK     1      11.253   7.253   7.410  1.00  0.00     0.049 A 
HETATM   11  C9  UNK     1      10.193   7.442   8.310  1.00  0.00     0.090 A 
HETATM   12  C13 UNK     1      11.076   6.458   6.275  1.00  0.00     0.018 A 
HETATM   13  C14 UNK     1       8.959   6.837   8.073  1.00  0.00     0.038 A 
HETATM   14  C20 UNK     1       9.838   5.854   6.044  1.00  0.00     0.001 A 
HETATM   15  C21 UNK     1       8.784   6.043   6.939  1.00  0.00     0.003 A 
ENDROOT
BRANCH   4  16
HETATM   16  C6  UNK     1      13.881  10.975  11.486  1.00  0.00     0.165 C 
BRANCH  16  17
HETATM   17  C10 UNK     1      14.087  12.302  10.814  1.00  0.00    -0.037 A 
HETATM   18  C17 UNK     1      15.356  12.867  10.758  1.00  0.00     0.028 A 
HETATM   19  C22 UNK     1      15.492  14.093  10.126  1.00  0.00     0.116 A 
HETATM   20  N2  UNK     1      14.468  14.772   9.561  1.00  0.00    -0.273 NA
HETATM   21  C23 UNK     1      13.250  14.191   9.636  1.00  0.00     0.116 A 
HETATM   22  C18 UNK     1      13.008  12.970  10.245  1.00  0.00     0.028 A 
ENDBRANCH  16  17
ENDBRANCH   4  16
BRANCH   5  23
HETATM   23  C5  UNK     1      14.944   8.576   9.772  1.00  0.00     0.008 A 
HETATM   24  C11 UNK     1      16.249   9.043   9.606  1.00  0.00     0.125 A 
HETATM   25  F1  UNK     1      16.472  10.281   9.146  1.00  0.00    -0.205 F 
HETATM   26  C15 UNK     1      17.329   8.217   9.917  1.00  0.00     0.043 A 
HETATM   27  C19 UNK     1      17.105   6.927  10.395  1.00  0.00     0.003 A 
HETATM   28  C16 UNK     1      15.802   6.460  10.562  1.00  0.00     0.001 A 
HETATM   29  C12 UNK     1      14.721   7.285  10.250  1.00  0.00     0.012 A 
ENDBRANCH   5  23
TORSDOF 3
ENDMDL
MODEL 10
REMARK VINA RESULT:      -7.7      2.299      3.631
REMARK  3 active torsions:
REMARK  status: ('A' for Active; 'I' for Inactive)
REMARK    1  A    between atoms: C6_12  and  N1_5 
REMARK    2  A    between atoms: C1_7  and  C5_11 
REMARK    3  A    between atoms: C10_16  and  C6_12 
ROOT
HETATM    1  O1  UNK     1      30.112  -8.734  31.722  1.00  0.00    -0.303 OA
HETATM    2  O2  UNK     1      32.462  -9.799  33.124  1.00  0.00    -0.265 OA
HETATM    3  O3  UNK     1      27.977  -6.328  34.277  1.00  0.00    -0.287 OA
HETATM    4  N1  UNK     1      31.684  -8.519  34.956  1.00  0.00    -0.329 N 
HETATM    5  C1  UNK     1      30.560  -7.623  35.218  1.00  0.00     0.164 A 
HETATM    6  C2  UNK     1      29.868  -7.689  33.899  1.00  0.00     0.060 A 
HETATM    7  C3  UNK     1      30.488  -8.464  33.004  1.00  0.00     0.156 A 
HETATM    8  C4  UNK     1      31.680  -9.031  33.658  1.00  0.00     0.279 A 
HETATM    9  C7  UNK     1      28.616  -7.032  33.508  1.00  0.00     0.196 A 
HETATM   10  C8  UNK     1      28.183  -7.288  32.115  1.00  0.00     0.049 A 
HETATM   11  C9  UNK     1      28.953  -8.125  31.293  1.00  0.00     0.090 A 
HETATM   12  C13 UNK     1      27.015  -6.701  31.621  1.00  0.00     0.018 A 
HETATM   13  C14 UNK     1      28.554  -8.374  29.980  1.00  0.00     0.038 A 
HETATM   14  C20 UNK     1      26.621  -6.954  30.306  1.00  0.00     0.001 A 
HETATM   15  C21 UNK     1      27.388  -7.787  29.488  1.00  0.00     0.003 A 
ENDROOT
BRANCH   4  16
HETATM   16  C6  UNK     1      32.641  -8.885  35.983  1.00  0.00     0.165 C 
BRANCH  16  17
HETATM   17  C10 UNK     1      33.650  -7.799  36.221  1.00  0.00    -0.037 A 
HETATM   18  C17 UNK     1      33.672  -7.119  37.434  1.00  0.00     0.028 A 
HETATM   19  C22 UNK     1      34.624  -6.127  37.604  1.00  0.00     0.116 A 
HETATM   20  N2  UNK     1      35.532  -5.779  36.664  1.00  0.00    -0.273 NA
HETATM   21  C23 UNK     1      35.480  -6.462  35.499  1.00  0.00     0.116 A 
HETATM   22  C18 UNK     1      34.569  -7.471  35.230  1.00  0.00     0.028 A 
ENDBRANCH  16  17
ENDBRANCH   4  16
BRANCH   5  23
HETATM   23  C5  UNK     1      31.007  -6.243  35.563  1.00  0.00     0.008 A 
HETATM   24  C11 UNK     1      30.639  -5.672  36.782  1.00  0.00     0.125 A 
HETATM   25  F1  UNK     1      29.881  -6.355  37.651  1.00  0.00    -0.205 F 
HETATM   26  C15 UNK     1      31.059  -4.380  37.102  1.00  0.00     0.043 A 
HETATM   27  C19 UNK     1      31.847  -3.661  36.203  1.00  0.00     0.003 A 
HETATM   28  C16 UNK     1      32.215  -4.232  34.985  1.00  0.00     0.001 A 
HETATM   29  C12 UNK     1      31.795  -5.524  34.665  1.00  0.00     0.012 A 
ENDBRANCH   5  23
TORSDOF 3
ENDMDL
