MODEL 1
REMARK VINA RESULT:      -9.0      0.000      0.000
REMARK  2 active torsions:
REMARK  status: ('A' for Active; 'I' for Inactive)
REMARK    1  A    between atoms: C8_13  and  O2_3 
REMARK    2  A    between atoms: C2_7  and  C5_10 
ROOT
HETATM    1  O1  UNK     1      19.783  -1.123  34.874  1.00  0.00    -0.271 OA
HETATM    2  O3  UNK     1      20.887  -2.930  34.022  1.00  0.00    -0.259 OA
HETATM    3  C1  UNK     1      18.594  -1.310  36.983  1.00  0.00     0.002 A 
HETATM    4  C2  UNK     1      19.784  -3.241  36.109  1.00  0.00     0.076 A 
HETATM    5  C3  UNK     1      18.986  -0.553  35.885  1.00  0.00     0.123 A 
HETATM    6  C4  UNK     1      19.026  -2.696  37.072  1.00  0.00     0.035 A 
HETATM    7  C8  UNK     1      18.609   0.780  35.740  1.00  0.00     0.102 A 
HETATM    8  C9  UNK     1      17.802  -0.712  37.965  1.00  0.00     0.014 A 
HETATM    9  C10 UNK     1      20.205  -2.449  34.922  1.00  0.00     0.301 A 
HETATM   10  C11 UNK     1      17.819   1.369  36.723  1.00  0.00     0.040 A 
HETATM   11  C12 UNK     1      17.416   0.625  37.834  1.00  0.00     0.004 A 
ENDROOT
BRANCH   4  12
HETATM   12  C5  UNK     1      20.197  -4.606  36.232  1.00  0.00     0.115 A 
HETATM   13  S1  UNK     1      20.942  -5.097  37.695  1.00  0.00    -0.067 SA
HETATM   14  C6  UNK     1      21.104  -6.697  37.070  1.00  0.00     0.035 A 
HETATM   15  C13 UNK     1      21.661  -7.832  37.681  1.00  0.00     0.021 A 
HETATM   16  C7  UNK     1      20.574  -6.739  35.778  1.00  0.00     0.075 A 
HETATM   17  C15 UNK     1      21.677  -9.030  36.961  1.00  0.00     0.002 A 
HETATM   18  C16 UNK     1      21.155  -9.096  35.674  1.00  0.00     0.002 A 
HETATM   19  C14 UNK     1      20.602  -7.962  35.073  1.00  0.00     0.033 A 
HETATM   20  N1  UNK     1      20.058  -5.538  35.312  1.00  0.00    -0.239 NA
ENDBRANCH   4  12
BRANCH   7  21
HETATM   21  O2  UNK     1      18.999   1.508  34.660  1.00  0.00    -0.353 OA
HETATM   22  C17 UNK     1      17.989   1.869  33.719  1.00  0.00     0.210 C 
ENDBRANCH   7  21
TORSDOF 2
ENDMDL
MODEL 2
REMARK VINA RESULT:      -8.8      5.813     10.867
REMARK  2 active torsions:
REMARK  status: ('A' for Active; 'I' for Inactive)
REMARK    1  A    between atoms: C8_13  and  O2_3 
REMARK    2  A    between atoms: C2_7  and  C5_10 
ROOT
HETATM    1  O1  UNK     1      18.798   0.826  32.816  1.00  0.00    -0.271 OA
HETATM    2  O3  UNK     1      18.036   2.419  34.262  1.00  0.00    -0.259 OA
HETATM    3  C1  UNK     1      19.176   1.386  30.482  1.00  0.00     0.002 A 
HETATM    4  C2  UNK     1      18.389   3.106  32.009  1.00  0.00     0.076 A 
HETATM    5  C3  UNK     1      19.187   0.454  31.515  1.00  0.00     0.123 A 
HETATM    6  C4  UNK     1      18.761   2.749  30.771  1.00  0.00     0.035 A 
HETATM    7  C8  UNK     1      19.576  -0.868  31.306  1.00  0.00     0.102 A 
HETATM    8  C9  UNK     1      19.567   0.980  29.205  1.00  0.00     0.014 A 
HETATM    9  C10 UNK     1      18.386   2.120  33.124  1.00  0.00     0.301 A 
HETATM   10  C11 UNK     1      19.964  -1.265  30.029  1.00  0.00     0.040 A 
HETATM   11  C12 UNK     1      19.960  -0.343  28.980  1.00  0.00     0.004 A 
ENDROOT
BRANCH   4  12
HETATM   12  C5  UNK     1      17.994   4.458  32.260  1.00  0.00     0.115 A 
HETATM   13  S1  UNK     1      19.110   5.495  33.045  1.00  0.00    -0.067 SA
HETATM   14  C6  UNK     1      17.966   6.782  32.963  1.00  0.00     0.035 A 
HETATM   15  C13 UNK     1      18.088   8.105  33.420  1.00  0.00     0.021 A 
HETATM   16  C7  UNK     1      16.804   6.322  32.337  1.00  0.00     0.075 A 
HETATM   17  C15 UNK     1      17.008   8.971  33.236  1.00  0.00     0.002 A 
HETATM   18  C16 UNK     1      15.842   8.536  32.617  1.00  0.00     0.002 A 
HETATM   19  C14 UNK     1      15.727   7.219  32.163  1.00  0.00     0.033 A 
HETATM   20  N1  UNK     1      16.834   4.993  31.940  1.00  0.00    -0.239 NA
ENDBRANCH   4  12
BRANCH   7  21
HETATM   21  O2  UNK     1      19.581  -1.768  32.325  1.00  0.00    -0.353 OA
HETATM   22  C17 UNK     1      20.797  -2.475  32.563  1.00  0.00     0.210 C 
ENDBRANCH   7  21
TORSDOF 2
ENDMDL
MODEL 3
REMARK VINA RESULT:      -8.6     18.742     21.362
REMARK  2 active torsions:
REMARK  status: ('A' for Active; 'I' for Inactive)
REMARK    1  A    between atoms: C8_13  and  O2_3 
REMARK    2  A    between atoms: C2_7  and  C5_10 
ROOT
HETATM    1  O1  UNK     1      17.154  -3.781  15.477  1.00  0.00    -0.271 OA
HETATM    2  O3  UNK     1      16.395  -2.042  16.746  1.00  0.00    -0.259 OA
HETATM    3  C1  UNK     1      19.448  -3.789  14.677  1.00  0.00     0.002 A 
HETATM    4  C2  UNK     1      18.671  -1.940  16.050  1.00  0.00     0.076 A 
HETATM    5  C3  UNK     1      18.197  -4.391  14.753  1.00  0.00     0.123 A 
HETATM    6  C4  UNK     1      19.662  -2.524  15.362  1.00  0.00     0.035 A 
HETATM    7  C8  UNK     1      17.926  -5.604  14.123  1.00  0.00     0.102 A 
HETATM    8  C9  UNK     1      20.457  -4.423  13.950  1.00  0.00     0.014 A 
HETATM    9  C10 UNK     1      17.322  -2.564  16.135  1.00  0.00     0.301 A 
HETATM   10  C11 UNK     1      18.937  -6.229  13.399  1.00  0.00     0.040 A 
HETATM   11  C12 UNK     1      20.201  -5.641  13.312  1.00  0.00     0.004 A 
ENDROOT
BRANCH   4  12
HETATM   12  C5  UNK     1      18.918  -0.699  16.717  1.00  0.00     0.115 A 
HETATM   13  S1  UNK     1      19.073  -0.715  18.425  1.00  0.00    -0.067 SA
HETATM   14  C6  UNK     1      19.326   0.991  18.414  1.00  0.00     0.035 A 
HETATM   15  C13 UNK     1      19.556   1.858  19.494  1.00  0.00     0.021 A 
HETATM   16  C7  UNK     1      19.273   1.453  17.095  1.00  0.00     0.075 A 
HETATM   17  C15 UNK     1      19.734   3.217  19.226  1.00  0.00     0.002 A 
HETATM   18  C16 UNK     1      19.686   3.700  17.923  1.00  0.00     0.002 A 
HETATM   19  C14 UNK     1      19.457   2.831  16.852  1.00  0.00     0.033 A 
HETATM   20  N1  UNK     1      19.040   0.477  16.137  1.00  0.00    -0.239 NA
ENDBRANCH   4  12
BRANCH   7  21
HETATM   21  O2  UNK     1      16.697  -6.180  14.205  1.00  0.00    -0.353 OA
HETATM   22  C17 UNK     1      16.548  -7.268  15.116  1.00  0.00     0.210 C 
ENDBRANCH   7  21
TORSDOF 2
ENDMDL
MODEL 4
REMARK VINA RESULT:      -8.4      5.831     10.679
REMARK  2 active torsions:
REMARK  status: ('A' for Active; 'I' for Inactive)
REMARK    1  A    between atoms: C8_13  and  O2_3 
REMARK    2  A    between atoms: C2_7  and  C5_10 
ROOT
HETATM    1  O1  UNK     1      18.219   1.938  32.533  1.00  0.00    -0.271 OA
HETATM    2  O3  UNK     1      18.181   3.937  31.431  1.00  0.00    -0.259 OA
HETATM    3  C1  UNK     1      18.489   1.888  34.946  1.00  0.00     0.002 A 
HETATM    4  C2  UNK     1      18.424   4.029  33.798  1.00  0.00     0.076 A 
HETATM    5  C3  UNK     1      18.332   1.218  33.738  1.00  0.00     0.123 A 
HETATM    6  C4  UNK     1      18.530   3.341  34.945  1.00  0.00     0.035 A 
HETATM    7  C8  UNK     1      18.282  -0.173  33.670  1.00  0.00     0.102 A 
HETATM    8  C9  UNK     1      18.599   1.141  36.121  1.00  0.00     0.014 A 
HETATM    9  C10 UNK     1      18.265   3.330  32.494  1.00  0.00     0.301 A 
HETATM   10  C11 UNK     1      18.393  -0.911  34.845  1.00  0.00     0.040 A 
HETATM   11  C12 UNK     1      18.551  -0.256  36.069  1.00  0.00     0.004 A 
ENDROOT
BRANCH   4  12
HETATM   12  C5  UNK     1      18.461   5.459  33.833  1.00  0.00     0.115 A 
HETATM   13  S1  UNK     1      17.031   6.315  33.431  1.00  0.00    -0.067 SA
HETATM   14  C6  UNK     1      17.855   7.807  33.697  1.00  0.00     0.035 A 
HETATM   15  C13 UNK     1      17.369   9.119  33.578  1.00  0.00     0.021 A 
HETATM   16  C7  UNK     1      19.173   7.540  34.076  1.00  0.00     0.075 A 
HETATM   17  C15 UNK     1      18.241  10.176  33.850  1.00  0.00     0.002 A 
HETATM   18  C16 UNK     1      19.557   9.935  34.229  1.00  0.00     0.002 A 
HETATM   19  C14 UNK     1      20.034   8.626  34.346  1.00  0.00     0.033 A 
HETATM   20  N1  UNK     1      19.506   6.195  34.151  1.00  0.00    -0.239 NA
ENDBRANCH   4  12
BRANCH   7  21
HETATM   21  O2  UNK     1      18.129  -0.814  32.481  1.00  0.00    -0.353 OA
HETATM   22  C17 UNK     1      19.288  -1.423  31.916  1.00  0.00     0.210 C 
ENDBRANCH   7  21
TORSDOF 2
ENDMDL
MODEL 5
REMARK VINA RESULT:      -8.3     17.986     19.709
REMARK  2 active torsions:
REMARK  status: ('A' for Active; 'I' for Inactive)
REMARK    1  A    between atoms: C8_13  and  O2_3 
REMARK    2  A    between atoms: C2_7  and  C5_10 
ROOT
HETATM    1  O1  UNK     1      19.268   1.593  17.102  1.00  0.00    -0.271 OA
HETATM    2  O3  UNK     1      19.162   0.724  14.994  1.00  0.00    -0.259 OA
HETATM    3  C1  UNK     1      19.244   0.113  19.028  1.00  0.00     0.002 A 
HETATM    4  C2  UNK     1      19.156  -0.837  16.792  1.00  0.00     0.076 A 
HETATM    5  C3  UNK     1      19.290   1.397  18.496  1.00  0.00     0.123 A 
HETATM    6  C4  UNK     1      19.178  -1.022  18.121  1.00  0.00     0.035 A 
HETATM    7  C8  UNK     1      19.356   2.527  19.309  1.00  0.00     0.102 A 
HETATM    8  C9  UNK     1      19.265  -0.043  20.415  1.00  0.00     0.014 A 
HETATM    9  C10 UNK     1      19.196   0.529  16.205  1.00  0.00     0.301 A 
HETATM   10  C11 UNK     1      19.376   2.363  20.692  1.00  0.00     0.040 A 
HETATM   11  C12 UNK     1      19.332   1.081  21.245  1.00  0.00     0.004 A 
ENDROOT
BRANCH   4  12
HETATM   12  C5  UNK     1      19.099  -1.976  15.928  1.00  0.00     0.115 A 
HETATM   13  S1  UNK     1      17.649  -2.890  15.888  1.00  0.00    -0.067 SA
HETATM   14  C6  UNK     1      18.355  -3.953  14.728  1.00  0.00     0.035 A 
HETATM   15  C13 UNK     1      17.796  -5.080  14.105  1.00  0.00     0.021 A 
HETATM   16  C7  UNK     1      19.659  -3.529  14.454  1.00  0.00     0.075 A 
HETATM   17  C15 UNK     1      18.578  -5.787  13.189  1.00  0.00     0.002 A 
HETATM   18  C16 UNK     1      19.878  -5.385  12.900  1.00  0.00     0.002 A 
HETATM   19  C14 UNK     1      20.428  -4.261  13.524  1.00  0.00     0.033 A 
HETATM   20  N1  UNK     1      20.071  -2.399  15.146  1.00  0.00    -0.239 NA
ENDBRANCH   4  12
BRANCH   7  21
HETATM   21  O2  UNK     1      19.400   3.776  18.775  1.00  0.00    -0.353 OA
HETATM   22  C17 UNK     1      20.688   4.308  18.469  1.00  0.00     0.210 C 
ENDBRANCH   7  21
TORSDOF 2
ENDMDL
MODEL 6
REMARK VINA RESULT:      -8.2      6.745     11.257
REMARK  2 active torsions:
REMARK  status: ('A' for Active; 'I' for Inactive)
REMARK    1  A    between atoms: C8_13  and  O2_3 
REMARK    2  A    between atoms: C2_7  and  C5_10 
ROOT
HETATM    1  O1  UNK     1      19.062   2.636  30.271  1.00  0.00    -0.271 OA
HETATM    2  O3  UNK     1      18.855   4.865  29.822  1.00  0.00    -0.259 OA
HETATM    3  C1  UNK     1      18.523   1.788  32.482  1.00  0.00     0.002 A 
HETATM    4  C2  UNK     1      18.269   4.161  32.020  1.00  0.00     0.076 A 
HETATM    5  C3  UNK     1      18.959   1.567  31.180  1.00  0.00     0.123 A 
HETATM    6  C4  UNK     1      18.170   3.140  32.884  1.00  0.00     0.035 A 
HETATM    7  C8  UNK     1      19.310   0.296  30.729  1.00  0.00     0.102 A 
HETATM    8  C9  UNK     1      18.434   0.703  33.356  1.00  0.00     0.014 A 
HETATM    9  C10 UNK     1      18.743   3.945  30.626  1.00  0.00     0.301 A 
HETATM   10  C11 UNK     1      19.220  -0.781  31.608  1.00  0.00     0.040 A 
HETATM   11  C12 UNK     1      18.782  -0.578  32.919  1.00  0.00     0.004 A 
ENDROOT
BRANCH   4  12
HETATM   12  C5  UNK     1      17.907   5.478  32.447  1.00  0.00     0.115 A 
HETATM   13  S1  UNK     1      19.153   6.524  32.987  1.00  0.00    -0.067 SA
HETATM   14  C6  UNK     1      17.984   7.759  33.279  1.00  0.00     0.035 A 
HETATM   15  C13 UNK     1      18.175   9.059  33.772  1.00  0.00     0.021 A 
HETATM   16  C7  UNK     1      16.716   7.277  32.940  1.00  0.00     0.075 A 
HETATM   17  C15 UNK     1      17.056   9.882  33.922  1.00  0.00     0.002 A 
HETATM   18  C16 UNK     1      15.785   9.425  33.592  1.00  0.00     0.002 A 
HETATM   19  C14 UNK     1      15.602   8.129  33.101  1.00  0.00     0.033 A 
HETATM   20  N1  UNK     1      16.687   5.973  32.466  1.00  0.00    -0.239 NA
ENDBRANCH   4  12
BRANCH   7  21
HETATM   21  O2  UNK     1      19.736   0.094  29.454  1.00  0.00    -0.353 OA
HETATM   22  C17 UNK     1      20.772  -0.867  29.258  1.00  0.00     0.210 C 
ENDBRANCH   7  21
TORSDOF 2
ENDMDL
MODEL 7
REMARK VINA RESULT:      -8.2      6.859      8.742
REMARK  2 active torsions:
REMARK  status: ('A' for Active; 'I' for Inactive)
REMARK    1  A    between atoms: C8_13  and  O2_3 
REMARK    2  A    between atoms: C2_7  and  C5_10 
ROOT
HETATM    1  O1  UNK     1      25.901  -5.473  38.868  1.00  0.00    -0.271 OA
HETATM    2  O3  UNK     1      23.621  -5.366  38.898  1.00  0.00    -0.259 OA
HETATM    3  C1  UNK     1      27.012  -7.614  38.581  1.00  0.00     0.002 A 
HETATM    4  C2  UNK     1      24.583  -7.522  38.584  1.00  0.00     0.076 A 
HETATM    5  C3  UNK     1      27.079  -6.238  38.767  1.00  0.00     0.123 A 
HETATM    6  C4  UNK     1      25.706  -8.248  38.487  1.00  0.00     0.035 A 
HETATM    7  C8  UNK     1      28.297  -5.568  38.863  1.00  0.00     0.102 A 
HETATM    8  C9  UNK     1      28.201  -8.340  38.487  1.00  0.00     0.014 A 
HETATM    9  C10 UNK     1      24.635  -6.049  38.792  1.00  0.00     0.301 A 
HETATM   10  C11 UNK     1      29.479  -6.299  38.769  1.00  0.00     0.040 A 
HETATM   11  C12 UNK     1      29.431  -7.682  38.581  1.00  0.00     0.004 A 
ENDROOT
BRANCH   4  12
HETATM   12  C5  UNK     1      23.315  -8.176  38.480  1.00  0.00     0.115 A 
HETATM   13  S1  UNK     1      22.341  -8.283  39.886  1.00  0.00    -0.067 SA
HETATM   14  C6  UNK     1      21.134  -9.120  38.983  1.00  0.00     0.035 A 
HETATM   15  C13 UNK     1      19.893  -9.618  39.413  1.00  0.00     0.021 A 
HETATM   16  C7  UNK     1      21.567  -9.259  37.661  1.00  0.00     0.075 A 
HETATM   17  C15 UNK     1      19.082 -10.268  38.481  1.00  0.00     0.002 A 
HETATM   18  C16 UNK     1      19.491 -10.419  37.160  1.00  0.00     0.002 A 
HETATM   19  C14 UNK     1      20.727  -9.920  36.739  1.00  0.00     0.033 A 
HETATM   20  N1  UNK     1      22.814  -8.715  37.387  1.00  0.00    -0.239 NA
ENDBRANCH   4  12
BRANCH   7  21
HETATM   21  O2  UNK     1      28.347  -4.222  39.045  1.00  0.00    -0.353 OA
HETATM   22  C17 UNK     1      29.629  -3.646  39.292  1.00  0.00     0.210 C 
ENDBRANCH   7  21
TORSDOF 2
ENDMDL
MODEL 8
REMARK VINA RESULT:      -8.2     20.248     22.846
REMARK  2 active torsions:
REMARK  status: ('A' for Active; 'I' for Inactive)
REMARK    1  A    between atoms: C8_13  and  O2_3 
REMARK    2  A    between atoms: C2_7  and  C5_10 
ROOT
HETATM    1  O1  UNK     1      18.312  -3.430  13.384  1.00  0.00    -0.271 OA
HETATM    2  O3  UNK     1      17.455  -2.736  15.382  1.00  0.00    -0.259 OA
HETATM    3  C1  UNK     1      20.035  -2.122  12.281  1.00  0.00     0.002 A 
HETATM    4  C2  UNK     1      19.158  -1.376  14.422  1.00  0.00     0.076 A 
HETATM    5  C3  UNK     1      19.192  -3.227  12.304  1.00  0.00     0.123 A 
HETATM    6  C4  UNK     1      19.997  -1.185  13.393  1.00  0.00     0.035 A 
HETATM    7  C8  UNK     1      19.181  -4.164  11.272  1.00  0.00     0.102 A 
HETATM    8  C9  UNK     1      20.894  -1.952  11.193  1.00  0.00     0.014 A 
HETATM    9  C10 UNK     1      18.241  -2.548  14.459  1.00  0.00     0.301 A 
HETATM   10  C11 UNK     1      20.039  -3.987  10.190  1.00  0.00     0.040 A 
HETATM   11  C12 UNK     1      20.895  -2.883  10.150  1.00  0.00     0.004 A 
ENDROOT
BRANCH   4  12
HETATM   12  C5  UNK     1      19.151  -0.439  15.503  1.00  0.00     0.115 A 
HETATM   13  S1  UNK     1      18.972  -1.043  17.097  1.00  0.00    -0.067 SA
HETATM   14  C6  UNK     1      19.059   0.565  17.713  1.00  0.00     0.035 A 
HETATM   15  C13 UNK     1      18.990   1.008  19.044  1.00  0.00     0.021 A 
HETATM   16  C7  UNK     1      19.219   1.455  16.646  1.00  0.00     0.075 A 
HETATM   17  C15 UNK     1      19.086   2.379  19.291  1.00  0.00     0.002 A 
HETATM   18  C16 UNK     1      19.246   3.283  18.247  1.00  0.00     0.002 A 
HETATM   19  C14 UNK     1      19.314   2.835  16.924  1.00  0.00     0.033 A 
HETATM   20  N1  UNK     1      19.271   0.868  15.390  1.00  0.00    -0.239 NA
ENDBRANCH   4  12
BRANCH   7  21
HETATM   21  O2  UNK     1      18.350  -5.239  11.307  1.00  0.00    -0.353 OA
HETATM   22  C17 UNK     1      18.929  -6.499  11.644  1.00  0.00     0.210 C 
ENDBRANCH   7  21
TORSDOF 2
ENDMDL
MODEL 9
REMARK VINA RESULT:      -8.0      7.560     12.147
REMARK  2 active torsions:
REMARK  status: ('A' for Active; 'I' for Inactive)
REMARK    1  A    between atoms: C8_13  and  O2_3 
REMARK    2  A    between atoms: C2_7  and  C5_10 
ROOT
HETATM    1  O1  UNK     1      18.818   3.966  30.435  1.00  0.00    -0.271 OA
HETATM    2  O3  UNK     1      18.677   6.205  30.015  1.00  0.00    -0.259 OA
HETATM    3  C1  UNK     1      18.308   3.112  32.651  1.00  0.00     0.002 A 
HETATM    4  C2  UNK     1      18.124   5.497  32.221  1.00  0.00     0.076 A 
HETATM    5  C3  UNK     1      18.702   2.890  31.336  1.00  0.00     0.123 A 
HETATM    6  C4  UNK     1      18.013   4.471  33.077  1.00  0.00     0.035 A 
HETATM    7  C8  UNK     1      18.997   1.613  30.863  1.00  0.00     0.102 A 
HETATM    8  C9  UNK     1      18.205   2.021  33.517  1.00  0.00     0.014 A 
HETATM    9  C10 UNK     1      18.554   5.281  30.813  1.00  0.00     0.301 A 
HETATM   10  C11 UNK     1      18.892   0.530  31.733  1.00  0.00     0.040 A 
HETATM   11  C12 UNK     1      18.497   0.733  33.057  1.00  0.00     0.004 A 
ENDROOT
BRANCH   4  12
HETATM   12  C5  UNK     1      17.820   6.821  32.671  1.00  0.00     0.115 A 
HETATM   13  S1  UNK     1      16.178   7.316  32.676  1.00  0.00    -0.067 SA
HETATM   14  C6  UNK     1      16.650   8.858  33.289  1.00  0.00     0.035 A 
HETATM   15  C13 UNK     1      15.848   9.966  33.607  1.00  0.00     0.021 A 
HETATM   16  C7  UNK     1      18.038   8.883  33.445  1.00  0.00     0.075 A 
HETATM   17  C15 UNK     1      16.472  11.117  34.093  1.00  0.00     0.002 A 
HETATM   18  C16 UNK     1      17.852  11.166  34.257  1.00  0.00     0.002 A 
HETATM   19  C14 UNK     1      18.644  10.058  33.939  1.00  0.00     0.033 A 
HETATM   20  N1  UNK     1      18.694   7.713  33.089  1.00  0.00    -0.239 NA
ENDBRANCH   4  12
BRANCH   7  21
HETATM   21  O2  UNK     1      19.381   1.411  29.575  1.00  0.00    -0.353 OA
HETATM   22  C17 UNK     1      18.353   1.145  28.623  1.00  0.00     0.210 C 
ENDBRANCH   7  21
TORSDOF 2
ENDMDL
MODEL 10
REMARK VINA RESULT:      -7.8      7.491     10.258
REMARK  2 active torsions:
REMARK  status: ('A' for Active; 'I' for Inactive)
REMARK    1  A    between atoms: C8_13  and  O2_3 
REMARK    2  A    between atoms: C2_7  and  C5_10 
ROOT
HETATM    1  O1  UNK     1      18.470   8.043  33.050  1.00  0.00    -0.271 OA
HETATM    2  O3  UNK     1      20.075   6.480  32.612  1.00  0.00    -0.259 OA
HETATM    3  C1  UNK     1      16.125   7.497  32.733  1.00  0.00     0.002 A 
HETATM    4  C2  UNK     1      17.814   5.807  32.286  1.00  0.00     0.076 A 
HETATM    5  C3  UNK     1      17.112   8.409  33.089  1.00  0.00     0.123 A 
HETATM    6  C4  UNK     1      16.520   6.158  32.325  1.00  0.00     0.035 A 
HETATM    7  C8  UNK     1      16.801   9.707  33.491  1.00  0.00     0.102 A 
HETATM    8  C9  UNK     1      14.788   7.896  32.783  1.00  0.00     0.014 A 
HETATM    9  C10 UNK     1      18.884   6.773  32.654  1.00  0.00     0.301 A 
HETATM   10  C11 UNK     1      15.465  10.098  33.538  1.00  0.00     0.040 A 
HETATM   11  C12 UNK     1      14.460   9.194  33.185  1.00  0.00     0.004 A 
ENDROOT
BRANCH   4  12
HETATM   12  C5  UNK     1      18.167   4.479  31.887  1.00  0.00     0.115 A 
HETATM   13  S1  UNK     1      18.668   4.226  30.267  1.00  0.00    -0.067 SA
HETATM   14  C6  UNK     1      18.880   2.547  30.598  1.00  0.00     0.035 A 
HETATM   15  C13 UNK     1      19.309   1.523  29.738  1.00  0.00     0.021 A 
HETATM   16  C7  UNK     1      18.551   2.300  31.933  1.00  0.00     0.075 A 
HETATM   17  C15 UNK     1      19.402   0.226  30.247  1.00  0.00     0.002 A 
HETATM   18  C16 UNK     1      19.079  -0.045  31.572  1.00  0.00     0.002 A 
HETATM   19  C14 UNK     1      18.654   0.980  32.424  1.00  0.00     0.033 A 
HETATM   20  N1  UNK     1      18.146   3.411  32.658  1.00  0.00    -0.239 NA
ENDBRANCH   4  12
BRANCH   7  21
HETATM   21  O2  UNK     1      17.776  10.589  33.836  1.00  0.00    -0.353 OA
HETATM   22  C17 UNK     1      17.363  11.903  34.208  1.00  0.00     0.210 C 
ENDBRANCH   7  21
TORSDOF 2
ENDMDL
