MODEL 1
REMARK VINA RESULT:      -9.0      0.000      0.000
REMARK  7 active torsions:
REMARK  status: ('A' for Active; 'I' for Inactive)
REMARK    1  A    between atoms: C14_20  and  O2_2 
REMARK    2  A    between atoms: C19_25  and  O2_2 
REMARK    3  A    between atoms: C13_19  and  O3_3 
REMARK    4  A    between atoms: C20_26  and  O3_3 
REMARK    5  A    between atoms: C1_7  and  N1_6 
REMARK       I    between atoms: C5_11  and  N1_6 
REMARK    6  A    between atoms: C1_7  and  C2_8 
REMARK    7  A    between atoms: C4_10  and  C5_11 
ROOT
HETATM    1  O4  UNK     1      19.713  -0.488  29.813  1.00  0.00    -0.267 OA
HETATM    2  N1  UNK     1      19.046   1.335  31.104  1.00  0.00    -0.348 N 
HETATM    3  C5  UNK     1      19.440   0.025  30.896  1.00  0.00     0.258 C 
HETATM    4  H2  UNK     1      18.782   1.630  32.039  1.00  0.00     0.163 HD
ENDROOT
BRANCH   3   5
HETATM    5  C4  UNK     1      19.513  -0.753  32.138  1.00  0.00     0.108 A 
HETATM    6  C10 UNK     1      18.808  -0.282  33.174  1.00  0.00     0.037 A 
HETATM    7  C6  UNK     1      18.818  -0.985  34.448  1.00  0.00     0.002 A 
HETATM    8  C16 UNK     1      18.095  -0.532  35.554  1.00  0.00     0.014 A 
HETATM    9  C9  UNK     1      19.570  -2.148  34.568  1.00  0.00     0.123 A 
HETATM   10  C18 UNK     1      18.138  -1.243  36.757  1.00  0.00     0.004 A 
HETATM   11  C17 UNK     1      18.900  -2.408  36.859  1.00  0.00     0.040 A 
HETATM   12  C14 UNK     1      19.622  -2.869  35.761  1.00  0.00     0.103 A 
HETATM   13  O1  UNK     1      20.311  -2.638  33.476  1.00  0.00    -0.271 OA
HETATM   14  C15 UNK     1      20.321  -1.988  32.245  1.00  0.00     0.304 A 
HETATM   15  O5  UNK     1      20.968  -2.423  31.298  1.00  0.00    -0.259 OA
BRANCH  12  16
HETATM   16  O2  UNK     1      20.363  -4.004  35.865  1.00  0.00    -0.349 OA
BRANCH  16  17
HETATM   17  C19 UNK     1      20.000  -4.926  36.892  1.00  0.00     0.171 C 
HETATM   18  C21 UNK     1      21.214  -5.215  37.748  1.00  0.00     0.034 C 
ENDBRANCH  16  17
ENDBRANCH  12  16
ENDBRANCH   3   5
BRANCH   2  19
HETATM   19  C1  UNK     1      18.903   2.293  30.032  1.00  0.00     0.114 C 
HETATM   20  C3  UNK     1      17.778   1.888  29.087  1.00  0.00     0.037 C 
BRANCH  19  21
HETATM   21  C2  UNK     1      18.711   3.679  30.612  1.00  0.00    -0.036 A 
HETATM   22  C7  UNK     1      18.115   3.813  31.854  1.00  0.00     0.012 A 
HETATM   23  C11 UNK     1      17.937   5.090  32.387  1.00  0.00     0.037 A 
HETATM   24  C13 UNK     1      18.357   6.211  31.671  1.00  0.00     0.068 A 
HETATM   25  C12 UNK     1      18.956   6.055  30.420  1.00  0.00     0.037 A 
HETATM   26  C8  UNK     1      19.133   4.779  29.887  1.00  0.00     0.012 A 
BRANCH  24  27
HETATM   27  O3  UNK     1      18.183   7.456  32.192  1.00  0.00    -0.352 OA
BRANCH  27  28
HETATM   28  C20 UNK     1      18.195   7.573  33.614  1.00  0.00     0.171 C 
HETATM   29  C22 UNK     1      19.560   8.053  34.058  1.00  0.00     0.034 C 
ENDBRANCH  27  28
ENDBRANCH  24  27
ENDBRANCH  19  21
ENDBRANCH   2  19
TORSDOF 7
ENDMDL
MODEL 2
REMARK VINA RESULT:      -8.9      3.192     10.507
REMARK  7 active torsions:
REMARK  status: ('A' for Active; 'I' for Inactive)
REMARK    1  A    between atoms: C14_20  and  O2_2 
REMARK    2  A    between atoms: C19_25  and  O2_2 
REMARK    3  A    between atoms: C13_19  and  O3_3 
REMARK    4  A    between atoms: C20_26  and  O3_3 
REMARK    5  A    between atoms: C1_7  and  N1_6 
REMARK       I    between atoms: C5_11  and  N1_6 
REMARK    6  A    between atoms: C1_7  and  C2_8 
REMARK    7  A    between atoms: C4_10  and  C5_11 
ROOT
HETATM    1  O4  UNK     1      21.104  -2.489  36.112  1.00  0.00    -0.267 OA
HETATM    2  N1  UNK     1      19.602  -4.094  35.336  1.00  0.00    -0.348 N 
HETATM    3  C5  UNK     1      20.294  -2.898  35.282  1.00  0.00     0.258 C 
HETATM    4  H2  UNK     1      18.907  -4.297  34.624  1.00  0.00     0.163 HD
ENDROOT
BRANCH   3   5
HETATM    5  C4  UNK     1      19.973  -2.106  34.089  1.00  0.00     0.108 A 
HETATM    6  C10 UNK     1      20.546  -2.500  32.946  1.00  0.00     0.037 A 
HETATM    7  C6  UNK     1      20.288  -1.778  31.709  1.00  0.00     0.002 A 
HETATM    8  C16 UNK     1      20.863  -2.156  30.493  1.00  0.00     0.014 A 
HETATM    9  C9  UNK     1      19.440  -0.677  31.737  1.00  0.00     0.123 A 
HETATM   10  C18 UNK     1      20.584  -1.428  29.332  1.00  0.00     0.004 A 
HETATM   11  C17 UNK     1      19.731  -0.324  29.381  1.00  0.00     0.040 A 
HETATM   12  C14 UNK     1      19.152   0.058  30.588  1.00  0.00     0.103 A 
HETATM   13  O1  UNK     1      18.840  -0.266  32.944  1.00  0.00    -0.271 OA
HETATM   14  C15 UNK     1      19.067  -0.937  34.142  1.00  0.00     0.304 A 
HETATM   15  O5  UNK     1      18.540  -0.574  35.187  1.00  0.00    -0.259 OA
BRANCH  12  16
HETATM   16  O2  UNK     1      18.321   1.134  30.631  1.00  0.00    -0.349 OA
BRANCH  16  17
HETATM   17  C19 UNK     1      18.452   2.098  29.586  1.00  0.00     0.171 C 
HETATM   18  C21 UNK     1      18.838   3.431  30.191  1.00  0.00     0.034 C 
ENDBRANCH  16  17
ENDBRANCH  12  16
ENDBRANCH   3   5
BRANCH   2  19
HETATM   19  C1  UNK     1      19.752  -5.043  36.416  1.00  0.00     0.114 C 
HETATM   20  C3  UNK     1      18.435  -5.234  37.160  1.00  0.00     0.037 C 
BRANCH  19  21
HETATM   21  C2  UNK     1      20.314  -6.341  35.877  1.00  0.00    -0.036 A 
HETATM   22  C7  UNK     1      20.221  -6.605  34.521  1.00  0.00     0.012 A 
HETATM   23  C11 UNK     1      20.738  -7.801  34.025  1.00  0.00     0.037 A 
HETATM   24  C13 UNK     1      21.338  -8.715  34.891  1.00  0.00     0.068 A 
HETATM   25  C12 UNK     1      21.422  -8.432  36.255  1.00  0.00     0.037 A 
HETATM   26  C8  UNK     1      20.906  -7.235  36.751  1.00  0.00     0.012 A 
BRANCH  24  27
HETATM   27  O3  UNK     1      21.843  -9.882  34.406  1.00  0.00    -0.352 OA
BRANCH  27  28
HETATM   28  C20 UNK     1      21.747 -11.031  35.247  1.00  0.00     0.171 C 
HETATM   29  C22 UNK     1      23.139 -11.461  35.656  1.00  0.00     0.034 C 
ENDBRANCH  27  28
ENDBRANCH  24  27
ENDBRANCH  19  21
ENDBRANCH   2  19
TORSDOF 7
ENDMDL
MODEL 3
REMARK VINA RESULT:      -8.5      4.335     10.639
REMARK  7 active torsions:
REMARK  status: ('A' for Active; 'I' for Inactive)
REMARK    1  A    between atoms: C14_20  and  O2_2 
REMARK    2  A    between atoms: C19_25  and  O2_2 
REMARK    3  A    between atoms: C13_19  and  O3_3 
REMARK    4  A    between atoms: C20_26  and  O3_3 
REMARK    5  A    between atoms: C1_7  and  N1_6 
REMARK       I    between atoms: C5_11  and  N1_6 
REMARK    6  A    between atoms: C1_7  and  C2_8 
REMARK    7  A    between atoms: C4_10  and  C5_11 
ROOT
HETATM    1  O4  UNK     1      16.577   8.166  30.811  1.00  0.00    -0.267 OA
HETATM    2  N1  UNK     1      17.440   6.821  32.508  1.00  0.00    -0.348 N 
HETATM    3  C5  UNK     1      16.708   7.878  31.999  1.00  0.00     0.258 C 
HETATM    4  H2  UNK     1      17.531   6.720  33.514  1.00  0.00     0.163 HD
ENDROOT
BRANCH   3   5
HETATM    5  C4  UNK     1      16.060   8.678  33.045  1.00  0.00     0.108 A 
HETATM    6  C10 UNK     1      15.067   9.482  32.644  1.00  0.00     0.037 A 
HETATM    7  C6  UNK     1      14.364  10.314  33.608  1.00  0.00     0.002 A 
HETATM    8  C16 UNK     1      13.320  11.165  33.235  1.00  0.00     0.014 A 
HETATM    9  C9  UNK     1      14.740  10.259  34.946  1.00  0.00     0.123 A 
HETATM   10  C18 UNK     1      12.676  11.946  34.200  1.00  0.00     0.004 A 
HETATM   11  C17 UNK     1      13.069  11.878  35.538  1.00  0.00     0.040 A 
HETATM   12  C14 UNK     1      14.107  11.031  35.919  1.00  0.00     0.103 A 
HETATM   13  O1  UNK     1      15.786   9.413  35.361  1.00  0.00    -0.271 OA
HETATM   14  C15 UNK     1      16.477   8.605  34.463  1.00  0.00     0.304 A 
HETATM   15  O5  UNK     1      17.386   7.870  34.833  1.00  0.00    -0.259 OA
BRANCH  12  16
HETATM   16  O2  UNK     1      14.486  10.969  37.223  1.00  0.00    -0.349 OA
BRANCH  16  17
HETATM   17  C19 UNK     1      13.463  11.120  38.206  1.00  0.00     0.171 C 
HETATM   18  C21 UNK     1      14.106  11.364  39.555  1.00  0.00     0.034 C 
ENDBRANCH  16  17
ENDBRANCH  12  16
ENDBRANCH   3   5
BRANCH   2  19
HETATM   19  C1  UNK     1      18.166   5.892  31.672  1.00  0.00     0.114 C 
HETATM   20  C3  UNK     1      19.562   6.419  31.359  1.00  0.00     0.037 C 
BRANCH  19  21
HETATM   21  C2  UNK     1      18.190   4.528  32.330  1.00  0.00    -0.036 A 
HETATM   22  C7  UNK     1      18.235   4.446  33.711  1.00  0.00     0.012 A 
HETATM   23  C11 UNK     1      18.258   3.190  34.316  1.00  0.00     0.037 A 
HETATM   24  C13 UNK     1      18.234   2.036  33.532  1.00  0.00     0.068 A 
HETATM   25  C12 UNK     1      18.189   2.139  32.142  1.00  0.00     0.037 A 
HETATM   26  C8  UNK     1      18.166   3.395  31.536  1.00  0.00     0.012 A 
BRANCH  24  27
HETATM   27  O3  UNK     1      18.256   0.811  34.124  1.00  0.00    -0.352 OA
BRANCH  27  28
HETATM   28  C20 UNK     1      17.507   0.657  35.329  1.00  0.00     0.171 C 
HETATM   29  C22 UNK     1      16.107   0.197  34.985  1.00  0.00     0.034 C 
ENDBRANCH  27  28
ENDBRANCH  24  27
ENDBRANCH  19  21
ENDBRANCH   2  19
TORSDOF 7
ENDMDL
MODEL 4
REMARK VINA RESULT:      -8.4      4.270      7.722
REMARK  7 active torsions:
REMARK  status: ('A' for Active; 'I' for Inactive)
REMARK    1  A    between atoms: C14_20  and  O2_2 
REMARK    2  A    between atoms: C19_25  and  O2_2 
REMARK    3  A    between atoms: C13_19  and  O3_3 
REMARK    4  A    between atoms: C20_26  and  O3_3 
REMARK    5  A    between atoms: C1_7  and  N1_6 
REMARK       I    between atoms: C5_11  and  N1_6 
REMARK    6  A    between atoms: C1_7  and  C2_8 
REMARK    7  A    between atoms: C4_10  and  C5_11 
ROOT
HETATM    1  O4  UNK     1      17.799  -4.745  36.530  1.00  0.00    -0.267 OA
HETATM    2  N1  UNK     1      19.886  -4.110  35.710  1.00  0.00    -0.348 N 
HETATM    3  C5  UNK     1      18.945  -5.011  36.173  1.00  0.00     0.258 C 
HETATM    4  H2  UNK     1      20.825  -4.436  35.504  1.00  0.00     0.163 HD
ENDROOT
BRANCH   3   5
HETATM    5  C4  UNK     1      19.444  -6.390  36.207  1.00  0.00     0.108 A 
HETATM    6  C10 UNK     1      19.042  -7.140  37.240  1.00  0.00     0.037 A 
HETATM    7  C6  UNK     1      19.485  -8.521  37.361  1.00  0.00     0.002 A 
HETATM    8  C16 UNK     1      19.088  -9.339  38.421  1.00  0.00     0.014 A 
HETATM    9  C9  UNK     1      20.328  -9.044  36.387  1.00  0.00     0.123 A 
HETATM   10  C18 UNK     1      19.541 -10.660  38.492  1.00  0.00     0.004 A 
HETATM   11  C17 UNK     1      20.389 -11.168  37.506  1.00  0.00     0.040 A 
HETATM   12  C14 UNK     1      20.788 -10.359  36.444  1.00  0.00     0.103 A 
HETATM   13  O1  UNK     1      20.748  -8.251  35.303  1.00  0.00    -0.271 OA
HETATM   14  C15 UNK     1      20.342  -6.927  35.160  1.00  0.00     0.304 A 
HETATM   15  O5  UNK     1      20.712  -6.244  34.211  1.00  0.00    -0.259 OA
BRANCH  12  16
HETATM   16  O2  UNK     1      21.614 -10.858  35.486  1.00  0.00    -0.349 OA
BRANCH  16  17
HETATM   17  C19 UNK     1      23.018 -10.712  35.698  1.00  0.00     0.171 C 
HETATM   18  C21 UNK     1      23.665 -12.081  35.671  1.00  0.00     0.034 C 
ENDBRANCH  16  17
ENDBRANCH  12  16
ENDBRANCH   3   5
BRANCH   2  19
HETATM   19  C1  UNK     1      19.625  -2.693  35.585  1.00  0.00     0.114 C 
HETATM   20  C3  UNK     1      20.516  -1.892  36.528  1.00  0.00     0.037 C 
BRANCH  19  21
HETATM   21  C2  UNK     1      19.779  -2.274  34.138  1.00  0.00    -0.036 A 
HETATM   22  C7  UNK     1      18.899  -1.347  33.608  1.00  0.00     0.012 A 
HETATM   23  C11 UNK     1      19.041  -0.962  32.275  1.00  0.00     0.037 A 
HETATM   24  C13 UNK     1      20.059  -1.509  31.494  1.00  0.00     0.068 A 
HETATM   25  C12 UNK     1      20.936  -2.443  32.046  1.00  0.00     0.037 A 
HETATM   26  C8  UNK     1      20.794  -2.828  33.379  1.00  0.00     0.012 A 
BRANCH  24  27
HETATM   27  O3  UNK     1      20.196  -1.133  30.194  1.00  0.00    -0.352 OA
BRANCH  27  28
HETATM   28  C20 UNK     1      19.846   0.211  29.865  1.00  0.00     0.171 C 
HETATM   29  C22 UNK     1      19.145   0.225  28.525  1.00  0.00     0.034 C 
ENDBRANCH  27  28
ENDBRANCH  24  27
ENDBRANCH  19  21
ENDBRANCH   2  19
TORSDOF 7
ENDMDL
MODEL 5
REMARK VINA RESULT:      -8.4      2.534      3.534
REMARK  7 active torsions:
REMARK  status: ('A' for Active; 'I' for Inactive)
REMARK    1  A    between atoms: C14_20  and  O2_2 
REMARK    2  A    between atoms: C19_25  and  O2_2 
REMARK    3  A    between atoms: C13_19  and  O3_3 
REMARK    4  A    between atoms: C20_26  and  O3_3 
REMARK    5  A    between atoms: C1_7  and  N1_6 
REMARK       I    between atoms: C5_11  and  N1_6 
REMARK    6  A    between atoms: C1_7  and  C2_8 
REMARK    7  A    between atoms: C4_10  and  C5_11 
ROOT
HETATM    1  O4  UNK     1      17.484   3.102  31.513  1.00  0.00    -0.267 OA
HETATM    2  N1  UNK     1      18.811   4.365  32.955  1.00  0.00    -0.348 N 
HETATM    3  C5  UNK     1      18.121   3.234  32.556  1.00  0.00     0.258 C 
HETATM    4  H2  UNK     1      19.247   4.381  33.872  1.00  0.00     0.163 HD
ENDROOT
BRANCH   3   5
HETATM    5  C4  UNK     1      18.211   2.138  33.527  1.00  0.00     0.108 A 
HETATM    6  C10 UNK     1      17.862   2.432  34.786  1.00  0.00     0.037 A 
HETATM    7  C6  UNK     1      17.919   1.410  35.820  1.00  0.00     0.002 A 
HETATM    8  C16 UNK     1      17.562   1.672  37.145  1.00  0.00     0.014 A 
HETATM    9  C9  UNK     1      18.340   0.130  35.478  1.00  0.00     0.123 A 
HETATM   10  C18 UNK     1      17.634   0.655  38.102  1.00  0.00     0.004 A 
HETATM   11  C17 UNK     1      18.061  -0.624  37.741  1.00  0.00     0.040 A 
HETATM   12  C14 UNK     1      18.417  -0.894  36.422  1.00  0.00     0.103 A 
HETATM   13  O1  UNK     1      18.707  -0.173  34.153  1.00  0.00    -0.271 OA
HETATM   14  C15 UNK     1      18.663   0.782  33.142  1.00  0.00     0.304 A 
HETATM   15  O5  UNK     1      18.983   0.509  31.990  1.00  0.00    -0.259 OA
BRANCH  12  16
HETATM   16  O2  UNK     1      18.833  -2.141  36.074  1.00  0.00    -0.349 OA
BRANCH  16  17
HETATM   17  C19 UNK     1      20.188  -2.481  36.368  1.00  0.00     0.171 C 
HETATM   18  C21 UNK     1      20.219  -3.821  37.072  1.00  0.00     0.034 C 
ENDBRANCH  16  17
ENDBRANCH  12  16
ENDBRANCH   3   5
BRANCH   2  19
HETATM   19  C1  UNK     1      18.868   5.572  32.163  1.00  0.00     0.114 C 
HETATM   20  C3  UNK     1      19.028   5.244  30.683  1.00  0.00     0.037 C 
BRANCH  19  21
HETATM   21  C2  UNK     1      17.648   6.423  32.445  1.00  0.00    -0.036 A 
HETATM   22  C7  UNK     1      17.112   7.193  31.428  1.00  0.00     0.012 A 
HETATM   23  C11 UNK     1      15.989   7.977  31.689  1.00  0.00     0.037 A 
HETATM   24  C13 UNK     1      15.419   7.979  32.962  1.00  0.00     0.068 A 
HETATM   25  C12 UNK     1      15.973   7.196  33.976  1.00  0.00     0.037 A 
HETATM   26  C8  UNK     1      17.096   6.412  33.715  1.00  0.00     0.012 A 
BRANCH  24  27
HETATM   27  O3  UNK     1      14.323   8.744  33.216  1.00  0.00    -0.352 OA
BRANCH  27  28
HETATM   28  C20 UNK     1      14.379   9.604  34.353  1.00  0.00     0.171 C 
HETATM   29  C22 UNK     1      15.129  10.865  33.982  1.00  0.00     0.034 C 
ENDBRANCH  27  28
ENDBRANCH  24  27
ENDBRANCH  19  21
ENDBRANCH   2  19
TORSDOF 7
ENDMDL
MODEL 6
REMARK VINA RESULT:      -8.4      3.461     10.379
REMARK  7 active torsions:
REMARK  status: ('A' for Active; 'I' for Inactive)
REMARK    1  A    between atoms: C14_20  and  O2_2 
REMARK    2  A    between atoms: C19_25  and  O2_2 
REMARK    3  A    between atoms: C13_19  and  O3_3 
REMARK    4  A    between atoms: C20_26  and  O3_3 
REMARK    5  A    between atoms: C1_7  and  N1_6 
REMARK       I    between atoms: C5_11  and  N1_6 
REMARK    6  A    between atoms: C1_7  and  C2_8 
REMARK    7  A    between atoms: C4_10  and  C5_11 
ROOT
HETATM    1  O4  UNK     1      20.519  -5.082  35.632  1.00  0.00    -0.267 OA
HETATM    2  N1  UNK     1      18.528  -5.184  36.841  1.00  0.00    -0.348 N 
HETATM    3  C5  UNK     1      19.535  -4.547  36.140  1.00  0.00     0.258 C 
HETATM    4  H2  UNK     1      17.796  -4.629  37.273  1.00  0.00     0.163 HD
ENDROOT
BRANCH   3   5
HETATM    5  C4  UNK     1      19.331  -3.097  36.040  1.00  0.00     0.108 A 
HETATM    6  C10 UNK     1      18.660  -2.523  37.046  1.00  0.00     0.037 A 
HETATM    7  C6  UNK     1      18.408  -1.090  37.035  1.00  0.00     0.002 A 
HETATM    8  C16 UNK     1      17.714  -0.449  38.065  1.00  0.00     0.014 A 
HETATM    9  C9  UNK     1      18.875  -0.332  35.967  1.00  0.00     0.123 A 
HETATM   10  C18 UNK     1      17.497   0.931  38.008  1.00  0.00     0.004 A 
HETATM   11  C17 UNK     1      17.973   1.675  36.926  1.00  0.00     0.040 A 
HETATM   12  C14 UNK     1      18.667   1.045  35.897  1.00  0.00     0.103 A 
HETATM   13  O1  UNK     1      19.580  -0.942  34.911  1.00  0.00    -0.271 OA
HETATM   14  C15 UNK     1      19.837  -2.310  34.893  1.00  0.00     0.304 A 
HETATM   15  O5  UNK     1      20.452  -2.832  33.970  1.00  0.00    -0.259 OA
BRANCH  12  16
HETATM   16  O2  UNK     1      19.128   1.773  34.845  1.00  0.00    -0.349 OA
BRANCH  16  17
HETATM   17  C19 UNK     1      18.161   2.239  33.903  1.00  0.00     0.171 C 
HETATM   18  C21 UNK     1      18.247   3.748  33.815  1.00  0.00     0.034 C 
ENDBRANCH  16  17
ENDBRANCH  12  16
ENDBRANCH   3   5
BRANCH   2  19
HETATM   19  C1  UNK     1      18.510  -6.612  37.069  1.00  0.00     0.114 C 
HETATM   20  C3  UNK     1      18.185  -7.363  35.783  1.00  0.00     0.037 C 
BRANCH  19  21
HETATM   21  C2  UNK     1      19.824  -7.044  37.684  1.00  0.00    -0.036 A 
HETATM   22  C7  UNK     1      20.612  -7.964  37.014  1.00  0.00     0.012 A 
HETATM   23  C11 UNK     1      21.822  -8.362  37.581  1.00  0.00     0.037 A 
HETATM   24  C13 UNK     1      22.225  -7.836  38.808  1.00  0.00     0.068 A 
HETATM   25  C12 UNK     1      21.417  -6.910  39.469  1.00  0.00     0.037 A 
HETATM   26  C8  UNK     1      20.207  -6.511  38.902  1.00  0.00     0.012 A 
BRANCH  24  27
HETATM   27  O3  UNK     1      23.406  -8.225  39.361  1.00  0.00    -0.352 OA
BRANCH  27  28
HETATM   28  C20 UNK     1      24.591  -7.602  38.868  1.00  0.00     0.171 C 
HETATM   29  C22 UNK     1      25.749  -8.566  39.007  1.00  0.00     0.034 C 
ENDBRANCH  27  28
ENDBRANCH  24  27
ENDBRANCH  19  21
ENDBRANCH   2  19
TORSDOF 7
ENDMDL
MODEL 7
REMARK VINA RESULT:      -8.3      2.193      4.279
REMARK  7 active torsions:
REMARK  status: ('A' for Active; 'I' for Inactive)
REMARK    1  A    between atoms: C14_20  and  O2_2 
REMARK    2  A    between atoms: C19_25  and  O2_2 
REMARK    3  A    between atoms: C13_19  and  O3_3 
REMARK    4  A    between atoms: C20_26  and  O3_3 
REMARK    5  A    between atoms: C1_7  and  N1_6 
REMARK       I    between atoms: C5_11  and  N1_6 
REMARK    6  A    between atoms: C1_7  and  C2_8 
REMARK    7  A    between atoms: C4_10  and  C5_11 
ROOT
HETATM    1  O4  UNK     1      17.154   4.076  31.214  1.00  0.00    -0.267 OA
HETATM    2  N1  UNK     1      19.436   4.513  31.026  1.00  0.00    -0.348 N 
HETATM    3  C5  UNK     1      18.327   3.711  31.227  1.00  0.00     0.258 C 
HETATM    4  H2  UNK     1      20.363   4.111  31.126  1.00  0.00     0.163 HD
ENDROOT
BRANCH   3   5
HETATM    5  C4  UNK     1      18.676   2.306  31.472  1.00  0.00     0.108 A 
HETATM    6  C10 UNK     1      19.254   1.654  30.457  1.00  0.00     0.037 A 
HETATM    7  C6  UNK     1      19.636   0.258  30.604  1.00  0.00     0.002 A 
HETATM    8  C16 UNK     1      20.244  -0.460  29.571  1.00  0.00     0.014 A 
HETATM    9  C9  UNK     1      19.391  -0.382  31.814  1.00  0.00     0.123 A 
HETATM   10  C18 UNK     1      20.592  -1.801  29.763  1.00  0.00     0.004 A 
HETATM   11  C17 UNK     1      20.336  -2.427  30.984  1.00  0.00     0.040 A 
HETATM   12  C14 UNK     1      19.733  -1.718  32.020  1.00  0.00     0.103 A 
HETATM   13  O1  UNK     1      18.782   0.309  32.879  1.00  0.00    -0.271 OA
HETATM   14  C15 UNK     1      18.406   1.644  32.768  1.00  0.00     0.304 A 
HETATM   15  O5  UNK     1      17.877   2.239  33.701  1.00  0.00    -0.259 OA
BRANCH  12  16
HETATM   16  O2  UNK     1      19.486  -2.332  33.207  1.00  0.00    -0.349 OA
BRANCH  16  17
HETATM   17  C19 UNK     1      20.583  -2.468  34.110  1.00  0.00     0.171 C 
HETATM   18  C21 UNK     1      20.108  -2.160  35.514  1.00  0.00     0.034 C 
ENDBRANCH  16  17
ENDBRANCH  12  16
ENDBRANCH   3   5
BRANCH   2  19
HETATM   19  C1  UNK     1      19.344   5.931  30.764  1.00  0.00     0.114 C 
HETATM   20  C3  UNK     1      18.725   6.193  29.396  1.00  0.00     0.037 C 
BRANCH  19  21
HETATM   21  C2  UNK     1      18.586   6.607  31.888  1.00  0.00    -0.036 A 
HETATM   22  C7  UNK     1      17.391   7.244  31.608  1.00  0.00     0.012 A 
HETATM   23  C11 UNK     1      16.694   7.866  32.644  1.00  0.00     0.037 A 
HETATM   24  C13 UNK     1      17.203   7.841  33.942  1.00  0.00     0.068 A 
HETATM   25  C12 UNK     1      18.411   7.194  34.205  1.00  0.00     0.037 A 
HETATM   26  C8  UNK     1      19.108   6.572  33.170  1.00  0.00     0.012 A 
BRANCH  24  27
HETATM   27  O3  UNK     1      16.522   8.449  34.952  1.00  0.00    -0.352 OA
BRANCH  27  28
HETATM   28  C20 UNK     1      16.073   9.784  34.723  1.00  0.00     0.171 C 
HETATM   29  C22 UNK     1      14.570   9.833  34.883  1.00  0.00     0.034 C 
ENDBRANCH  27  28
ENDBRANCH  24  27
ENDBRANCH  19  21
ENDBRANCH   2  19
TORSDOF 7
ENDMDL
MODEL 8
REMARK VINA RESULT:      -8.2      3.307      5.921
REMARK  7 active torsions:
REMARK  status: ('A' for Active; 'I' for Inactive)
REMARK    1  A    between atoms: C14_20  and  O2_2 
REMARK    2  A    between atoms: C19_25  and  O2_2 
REMARK    3  A    between atoms: C13_19  and  O3_3 
REMARK    4  A    between atoms: C20_26  and  O3_3 
REMARK    5  A    between atoms: C1_7  and  N1_6 
REMARK       I    between atoms: C5_11  and  N1_6 
REMARK    6  A    between atoms: C1_7  and  C2_8 
REMARK    7  A    between atoms: C4_10  and  C5_11 
ROOT
HETATM    1  O4  UNK     1      17.502  -2.142  37.170  1.00  0.00    -0.267 OA
HETATM    2  N1  UNK     1      18.865  -1.731  35.324  1.00  0.00    -0.348 N 
HETATM    3  C5  UNK     1      18.415  -2.459  36.410  1.00  0.00     0.258 C 
HETATM    4  H2  UNK     1      19.673  -2.062  34.806  1.00  0.00     0.163 HD
ENDROOT
BRANCH   3   5
HETATM    5  C4  UNK     1      19.152  -3.714  36.601  1.00  0.00     0.108 A 
HETATM    6  C10 UNK     1      18.416  -4.830  36.652  1.00  0.00     0.037 A 
HETATM    7  C6  UNK     1      19.057  -6.124  36.839  1.00  0.00     0.002 A 
HETATM    8  C16 UNK     1      18.328  -7.314  36.896  1.00  0.00     0.014 A 
HETATM    9  C9  UNK     1      20.441  -6.177  36.961  1.00  0.00     0.123 A 
HETATM   10  C18 UNK     1      18.991  -8.532  37.077  1.00  0.00     0.004 A 
HETATM   11  C17 UNK     1      20.381  -8.565  37.199  1.00  0.00     0.040 A 
HETATM   12  C14 UNK     1      21.116  -7.383  37.141  1.00  0.00     0.103 A 
HETATM   13  O1  UNK     1      21.210  -4.999  36.907  1.00  0.00    -0.271 OA
HETATM   14  C15 UNK     1      20.626  -3.748  36.729  1.00  0.00     0.304 A 
HETATM   15  O5  UNK     1      21.304  -2.727  36.682  1.00  0.00    -0.259 OA
BRANCH  12  16
HETATM   16  O2  UNK     1      22.470  -7.421  37.261  1.00  0.00    -0.349 OA
BRANCH  16  17
HETATM   17  C19 UNK     1      23.001  -7.994  38.456  1.00  0.00     0.171 C 
HETATM   18  C21 UNK     1      22.952  -6.961  39.562  1.00  0.00     0.034 C 
ENDBRANCH  16  17
ENDBRANCH  12  16
ENDBRANCH   3   5
BRANCH   2  19
HETATM   19  C1  UNK     1      18.293  -0.462  34.935  1.00  0.00     0.114 C 
HETATM   20  C3  UNK     1      18.705   0.639  35.906  1.00  0.00     0.037 C 
BRANCH  19  21
HETATM   21  C2  UNK     1      18.672  -0.151  33.503  1.00  0.00    -0.036 A 
HETATM   22  C7  UNK     1      18.522   1.140  33.030  1.00  0.00     0.012 A 
HETATM   23  C11 UNK     1      18.870   1.426  31.710  1.00  0.00     0.037 A 
HETATM   24  C13 UNK     1      19.363   0.415  30.884  1.00  0.00     0.068 A 
HETATM   25  C12 UNK     1      19.507  -0.881  31.378  1.00  0.00     0.037 A 
HETATM   26  C8  UNK     1      19.159  -1.167  32.698  1.00  0.00     0.012 A 
BRANCH  24  27
HETATM   27  O3  UNK     1      19.703   0.695  29.596  1.00  0.00    -0.352 OA
BRANCH  27  28
HETATM   28  C20 UNK     1      18.664   0.632  28.621  1.00  0.00     0.171 C 
HETATM   29  C22 UNK     1      17.938   1.960  28.588  1.00  0.00     0.034 C 
ENDBRANCH  27  28
ENDBRANCH  24  27
ENDBRANCH  19  21
ENDBRANCH   2  19
TORSDOF 7
ENDMDL
MODEL 9
REMARK VINA RESULT:      -8.2      3.369      9.713
REMARK  7 active torsions:
REMARK  status: ('A' for Active; 'I' for Inactive)
REMARK    1  A    between atoms: C14_20  and  O2_2 
REMARK    2  A    between atoms: C19_25  and  O2_2 
REMARK    3  A    between atoms: C13_19  and  O3_3 
REMARK    4  A    between atoms: C20_26  and  O3_3 
REMARK    5  A    between atoms: C1_7  and  N1_6 
REMARK       I    between atoms: C5_11  and  N1_6 
REMARK    6  A    between atoms: C1_7  and  C2_8 
REMARK    7  A    between atoms: C4_10  and  C5_11 
ROOT
HETATM    1  O4  UNK     1      17.468  -1.406  35.733  1.00  0.00    -0.267 OA
HETATM    2  N1  UNK     1      19.746  -1.882  35.873  1.00  0.00    -0.348 N 
HETATM    3  C5  UNK     1      18.604  -1.399  35.262  1.00  0.00     0.258 C 
HETATM    4  H2  UNK     1      20.621  -1.883  35.359  1.00  0.00     0.163 HD
ENDROOT
BRANCH   3   5
HETATM    5  C4  UNK     1      18.862  -0.842  33.929  1.00  0.00     0.108 A 
HETATM    6  C10 UNK     1      19.383  -1.683  33.027  1.00  0.00     0.037 A 
HETATM    7  C6  UNK     1      19.674  -1.223  31.677  1.00  0.00     0.002 A 
HETATM    8  C16 UNK     1      20.216  -2.067  30.704  1.00  0.00     0.014 A 
HETATM    9  C9  UNK     1      19.402   0.099  31.344  1.00  0.00     0.123 A 
HETATM   10  C18 UNK     1      20.478  -1.577  29.422  1.00  0.00     0.004 A 
HETATM   11  C17 UNK     1      20.200  -0.245  29.106  1.00  0.00     0.040 A 
HETATM   12  C14 UNK     1      19.658   0.602  30.069  1.00  0.00     0.103 A 
HETATM   13  O1  UNK     1      18.855   0.979  32.297  1.00  0.00    -0.271 OA
HETATM   14  C15 UNK     1      18.565   0.569  33.595  1.00  0.00     0.304 A 
HETATM   15  O5  UNK     1      18.088   1.342  34.418  1.00  0.00    -0.259 OA
BRANCH  12  16
HETATM   16  O2  UNK     1      19.389   1.898  29.758  1.00  0.00    -0.349 OA
BRANCH  16  17
HETATM   17  C19 UNK     1      18.041   2.218  29.412  1.00  0.00     0.171 C 
HETATM   18  C21 UNK     1      17.642   1.418  28.190  1.00  0.00     0.034 C 
ENDBRANCH  16  17
ENDBRANCH  12  16
ENDBRANCH   3   5
BRANCH   2  19
HETATM   19  C1  UNK     1      19.742  -2.476  37.191  1.00  0.00     0.114 C 
HETATM   20  C3  UNK     1      18.476  -2.099  37.953  1.00  0.00     0.037 C 
BRANCH  19  21
HETATM   21  C2  UNK     1      19.929  -3.974  37.073  1.00  0.00    -0.036 A 
HETATM   22  C7  UNK     1      21.048  -4.561  37.637  1.00  0.00     0.012 A 
HETATM   23  C11 UNK     1      21.220  -5.940  37.528  1.00  0.00     0.037 A 
HETATM   24  C13 UNK     1      20.271  -6.711  36.857  1.00  0.00     0.068 A 
HETATM   25  C12 UNK     1      19.149  -6.103  36.295  1.00  0.00     0.037 A 
HETATM   26  C8  UNK     1      18.977  -4.723  36.404  1.00  0.00     0.012 A 
BRANCH  24  27
HETATM   27  O3  UNK     1      20.440  -8.058  36.751  1.00  0.00    -0.352 OA
BRANCH  27  28
HETATM   28  C20 UNK     1      19.264  -8.865  36.790  1.00  0.00     0.171 C 
HETATM   29  C22 UNK     1      19.020  -9.312  38.215  1.00  0.00     0.034 C 
ENDBRANCH  27  28
ENDBRANCH  24  27
ENDBRANCH  19  21
ENDBRANCH   2  19
TORSDOF 7
ENDMDL
MODEL 10
REMARK VINA RESULT:      -8.2      3.692      7.016
REMARK  7 active torsions:
REMARK  status: ('A' for Active; 'I' for Inactive)
REMARK    1  A    between atoms: C14_20  and  O2_2 
REMARK    2  A    between atoms: C19_25  and  O2_2 
REMARK    3  A    between atoms: C13_19  and  O3_3 
REMARK    4  A    between atoms: C20_26  and  O3_3 
REMARK    5  A    between atoms: C1_7  and  N1_6 
REMARK       I    between atoms: C5_11  and  N1_6 
REMARK    6  A    between atoms: C1_7  and  C2_8 
REMARK    7  A    between atoms: C4_10  and  C5_11 
ROOT
HETATM    1  O4  UNK     1      20.361  -2.672  37.571  1.00  0.00    -0.267 OA
HETATM    2  N1  UNK     1      18.280  -3.200  36.664  1.00  0.00    -0.348 N 
HETATM    3  C5  UNK     1      19.552  -3.483  37.125  1.00  0.00     0.258 C 
HETATM    4  H2  UNK     1      17.723  -3.944  36.256  1.00  0.00     0.163 HD
ENDROOT
BRANCH   3   5
HETATM    5  C4  UNK     1      19.886  -4.910  37.039  1.00  0.00     0.108 A 
HETATM    6  C10 UNK     1      19.844  -5.598  38.186  1.00  0.00     0.037 A 
HETATM    7  C6  UNK     1      20.159  -7.018  38.201  1.00  0.00     0.002 A 
HETATM    8  C16 UNK     1      20.126  -7.775  39.375  1.00  0.00     0.014 A 
HETATM    9  C9  UNK     1      20.502  -7.644  37.008  1.00  0.00     0.123 A 
HETATM   10  C18 UNK     1      20.437  -9.138  39.337  1.00  0.00     0.004 A 
HETATM   11  C17 UNK     1      20.781  -9.748  38.129  1.00  0.00     0.040 A 
HETATM   12  C14 UNK     1      20.815  -9.002  36.954  1.00  0.00     0.103 A 
HETATM   13  O1  UNK     1      20.545  -6.915  35.804  1.00  0.00    -0.271 OA
HETATM   14  C15 UNK     1      20.248  -5.556  35.758  1.00  0.00     0.304 A 
HETATM   15  O5  UNK     1      20.287  -4.929  34.705  1.00  0.00    -0.259 OA
BRANCH  12  16
HETATM   16  O2  UNK     1      21.150  -9.601  35.781  1.00  0.00    -0.349 OA
BRANCH  16  17
HETATM   17  C19 UNK     1      21.427 -11.000  35.821  1.00  0.00     0.171 C 
HETATM   18  C21 UNK     1      22.910 -11.216  35.610  1.00  0.00     0.034 C 
ENDBRANCH  16  17
ENDBRANCH  12  16
ENDBRANCH   3   5
BRANCH   2  19
HETATM   19  C1  UNK     1      17.727  -1.865  36.651  1.00  0.00     0.114 C 
HETATM   20  C3  UNK     1      18.137  -1.094  37.901  1.00  0.00     0.037 C 
BRANCH  19  21
HETATM   21  C2  UNK     1      18.128  -1.161  35.372  1.00  0.00    -0.036 A 
HETATM   22  C7  UNK     1      17.791   0.170  35.199  1.00  0.00     0.012 A 
HETATM   23  C11 UNK     1      18.161   0.817  34.020  1.00  0.00     0.037 A 
HETATM   24  C13 UNK     1      18.862   0.123  33.033  1.00  0.00     0.068 A 
HETATM   25  C12 UNK     1      19.193  -1.218  33.225  1.00  0.00     0.037 A 
HETATM   26  C8  UNK     1      18.823  -1.865  34.404  1.00  0.00     0.012 A 
BRANCH  24  27
HETATM   27  O3  UNK     1      19.222   0.755  31.883  1.00  0.00    -0.352 OA
BRANCH  27  28
HETATM   28  C20 UNK     1      19.951  -0.008  30.922  1.00  0.00     0.171 C 
HETATM   29  C22 UNK     1      19.633   0.511  29.537  1.00  0.00     0.034 C 
ENDBRANCH  27  28
ENDBRANCH  24  27
ENDBRANCH  19  21
ENDBRANCH   2  19
TORSDOF 7
ENDMDL
