MODEL 1
REMARK VINA RESULT:      -9.4      0.000      0.000
REMARK  4 active torsions:
REMARK  status: ('A' for Active; 'I' for Inactive)
REMARK    1  A    between atoms: C5_13  and  N1_6 
REMARK       I    between atoms: C6_14  and  N2_7 
REMARK    2  A    between atoms: C5_13  and  N3_8 
REMARK    3  A    between atoms: C8_16  and  N3_8 
REMARK    4  A    between atoms: C6_14  and  C7_15 
ROOT
HETATM    1  S1  UNK     1       9.837   6.224   5.991  1.00  0.00    -0.041 SA
HETATM    2  C5  UNK     1       9.952   6.501   7.641  1.00  0.00     0.174 C 
ENDROOT
BRANCH   2   3
HETATM    3  N1  UNK     1      11.130   6.302   8.282  1.00  0.00    -0.355 N 
HETATM    4  C1  UNK     1      12.100   7.379   8.456  1.00  0.00     0.145 C 
HETATM    5  C3  UNK     1      13.498   6.907   8.073  1.00  0.00     0.146 C 
HETATM    6  N2  UNK     1      13.823   5.650   8.768  1.00  0.00    -0.343 N 
HETATM    7  C4  UNK     1      12.858   4.571   8.538  1.00  0.00     0.146 C 
HETATM    8  C6  UNK     1      14.986   5.404   9.520  1.00  0.00     0.277 C 
HETATM    9  C2  UNK     1      11.450   5.027   8.915  1.00  0.00     0.145 C 
HETATM   10  O1  UNK     1      15.482   4.281   9.622  1.00  0.00    -0.265 OA
BRANCH   8  11
HETATM   11  C7  UNK     1      15.602   6.542  10.192  1.00  0.00     0.142 A 
HETATM   12  C14 UNK     1      16.789   7.186   9.971  1.00  0.00     0.045 A 
HETATM   13  C16 UNK     1      16.852   8.219  10.937  1.00  0.00     0.027 A 
HETATM   14  C18 UNK     1      15.695   8.124  11.674  1.00  0.00     0.143 A 
HETATM   15  O2  UNK     1      14.925   7.100  11.223  1.00  0.00    -0.317 OA
ENDBRANCH   8  11
ENDBRANCH   2   3
BRANCH   2  16
HETATM   16  N3  UNK     1       8.868   6.990   8.351  1.00  0.00    -0.333 N 
HETATM   17  H9  UNK     1       8.699   7.985   8.221  1.00  0.00     0.168 HD
BRANCH  16  18
HETATM   18  C8  UNK     1       7.952   6.366   9.198  1.00  0.00     0.036 A 
HETATM   19  C10 UNK     1       7.598   5.038   8.986  1.00  0.00     0.067 A 
HETATM   20  C11 UNK     1       6.680   4.432   9.846  1.00  0.00     0.092 A 
HETATM   21  O3  UNK     1       6.361   3.085   9.580  1.00  0.00    -0.275 OA
HETATM   22  C9  UNK     1       6.103   5.112  10.919  1.00  0.00     0.004 A 
HETATM   23  C20 UNK     1       5.463   2.384  10.370  1.00  0.00     0.288 A 
HETATM   24  C17 UNK     1       4.861   3.115  11.497  1.00  0.00     0.090 A 
HETATM   25  O4  UNK     1       5.177   1.212  10.147  1.00  0.00    -0.260 OA
HETATM   26  C15 UNK     1       5.147   4.396  11.773  1.00  0.00    -0.043 A 
HETATM   27  C19 UNK     1       4.507   5.100  12.935  1.00  0.00     0.049 C 
HETATM   28  C13 UNK     1       6.473   6.449  11.116  1.00  0.00     0.017 A 
HETATM   29  C12 UNK     1       7.391   7.070  10.262  1.00  0.00     0.030 A 
ENDBRANCH  16  18
ENDBRANCH   2  16
TORSDOF 4
ENDMDL
MODEL 2
REMARK VINA RESULT:      -9.0     23.137     25.113
REMARK  4 active torsions:
REMARK  status: ('A' for Active; 'I' for Inactive)
REMARK    1  A    between atoms: C5_13  and  N1_6 
REMARK       I    between atoms: C6_14  and  N2_7 
REMARK    2  A    between atoms: C5_13  and  N3_8 
REMARK    3  A    between atoms: C8_16  and  N3_8 
REMARK    4  A    between atoms: C6_14  and  C7_15 
ROOT
HETATM    1  S1  UNK     1      20.047   5.976  31.586  1.00  0.00    -0.041 SA
HETATM    2  C5  UNK     1      18.427   5.783  31.974  1.00  0.00     0.174 C 
ENDROOT
BRANCH   2   3
HETATM    3  N1  UNK     1      17.713   6.833  32.448  1.00  0.00    -0.355 N 
HETATM    4  C1  UNK     1      18.338   7.895  33.230  1.00  0.00     0.145 C 
HETATM    5  C3  UNK     1      17.515   8.197  34.477  1.00  0.00     0.146 C 
HETATM    6  N2  UNK     1      16.106   8.427  34.119  1.00  0.00    -0.343 N 
HETATM    7  C4  UNK     1      15.489   7.324  33.375  1.00  0.00     0.146 C 
HETATM    8  C6  UNK     1      15.331   9.535  34.505  1.00  0.00     0.277 C 
HETATM    9  C2  UNK     1      16.300   7.007  32.122  1.00  0.00     0.145 C 
HETATM   10  O1  UNK     1      14.111   9.464  34.668  1.00  0.00    -0.265 OA
BRANCH   8  11
HETATM   11  C7  UNK     1      16.026  10.800  34.711  1.00  0.00     0.142 A 
HETATM   12  C14 UNK     1      17.102  11.351  34.071  1.00  0.00     0.045 A 
HETATM   13  C16 UNK     1      17.329  12.597  34.704  1.00  0.00     0.027 A 
HETATM   14  C18 UNK     1      16.371  12.708  35.684  1.00  0.00     0.143 A 
HETATM   15  O2  UNK     1      15.568  11.611  35.693  1.00  0.00    -0.317 OA
ENDBRANCH   8  11
ENDBRANCH   2   3
BRANCH   2  16
HETATM   16  N3  UNK     1      17.790   4.572  31.760  1.00  0.00    -0.333 N 
HETATM   17  H9  UNK     1      16.787   4.593  31.929  1.00  0.00     0.168 HD
BRANCH  16  18
HETATM   18  C8  UNK     1      18.267   3.331  31.337  1.00  0.00     0.036 A 
HETATM   19  C10 UNK     1      18.480   2.313  32.260  1.00  0.00     0.067 A 
HETATM   20  C11 UNK     1      18.957   1.078  31.815  1.00  0.00     0.092 A 
HETATM   21  O3  UNK     1      19.152   0.087  32.797  1.00  0.00    -0.275 OA
HETATM   22  C9  UNK     1      19.228   0.825  30.470  1.00  0.00     0.004 A 
HETATM   23  C20 UNK     1      19.621  -1.176  32.469  1.00  0.00     0.288 A 
HETATM   24  C17 UNK     1      19.905  -1.427  31.046  1.00  0.00     0.090 A 
HETATM   25  O4  UNK     1      19.796  -2.046  33.315  1.00  0.00    -0.260 OA
HETATM   26  C15 UNK     1      19.728  -0.503  30.091  1.00  0.00    -0.043 A 
HETATM   27  C19 UNK     1      20.030  -0.806  28.652  1.00  0.00     0.049 C 
HETATM   28  C13 UNK     1      19.007   1.864  29.556  1.00  0.00     0.017 A 
HETATM   29  C12 UNK     1      18.530   3.107  29.986  1.00  0.00     0.030 A 
ENDBRANCH  16  18
ENDBRANCH   2  16
TORSDOF 4
ENDMDL
MODEL 3
REMARK VINA RESULT:      -9.0     26.951     28.939
REMARK  4 active torsions:
REMARK  status: ('A' for Active; 'I' for Inactive)
REMARK    1  A    between atoms: C5_13  and  N1_6 
REMARK       I    between atoms: C6_14  and  N2_7 
REMARK    2  A    between atoms: C5_13  and  N3_8 
REMARK    3  A    between atoms: C8_16  and  N3_8 
REMARK    4  A    between atoms: C6_14  and  C7_15 
ROOT
HETATM    1  S1  UNK     1      18.570  -1.413  37.693  1.00  0.00    -0.041 SA
HETATM    2  C5  UNK     1      18.766  -2.399  36.350  1.00  0.00     0.174 C 
ENDROOT
BRANCH   2   3
HETATM    3  N1  UNK     1      19.132  -1.860  35.161  1.00  0.00    -0.355 N 
HETATM    4  C1  UNK     1      18.274  -0.917  34.450  1.00  0.00     0.145 C 
HETATM    5  C3  UNK     1      18.155  -1.304  32.981  1.00  0.00     0.146 C 
HETATM    6  N2  UNK     1      19.490  -1.505  32.393  1.00  0.00    -0.343 N 
HETATM    7  C4  UNK     1      20.313  -2.492  33.099  1.00  0.00     0.146 C 
HETATM    8  C6  UNK     1      19.964  -0.912  31.209  1.00  0.00     0.277 C 
HETATM    9  C2  UNK     1      20.442  -2.121  34.574  1.00  0.00     0.145 C 
HETATM   10  O1  UNK     1      20.793  -1.461  30.481  1.00  0.00    -0.265 OA
BRANCH   8  11
HETATM   11  C7  UNK     1      19.437   0.402  30.861  1.00  0.00     0.142 A 
HETATM   12  C14 UNK     1      19.143   0.962  29.647  1.00  0.00     0.045 A 
HETATM   13  C16 UNK     1      18.661   2.263  29.930  1.00  0.00     0.027 A 
HETATM   14  C18 UNK     1      18.699   2.394  31.299  1.00  0.00     0.143 A 
HETATM   15  O2  UNK     1      19.172   1.258  31.875  1.00  0.00    -0.317 OA
ENDBRANCH   8  11
ENDBRANCH   2   3
BRANCH   2  16
HETATM   16  N3  UNK     1      18.616  -3.771  36.455  1.00  0.00    -0.333 N 
HETATM   17  H9  UNK     1      17.664  -4.099  36.304  1.00  0.00     0.168 HD
BRANCH  16  18
HETATM   18  C8  UNK     1      19.533  -4.791  36.710  1.00  0.00     0.036 A 
HETATM   19  C10 UNK     1      19.636  -5.871  35.840  1.00  0.00     0.067 A 
HETATM   20  C11 UNK     1      20.561  -6.881  36.113  1.00  0.00     0.092 A 
HETATM   21  O3  UNK     1      20.619  -7.948  35.196  1.00  0.00    -0.275 OA
HETATM   22  C9  UNK     1      21.394  -6.845  37.233  1.00  0.00     0.004 A 
HETATM   23  C20 UNK     1      21.501  -9.004  35.367  1.00  0.00     0.288 A 
HETATM   24  C17 UNK     1      22.371  -8.953  36.553  1.00  0.00     0.090 A 
HETATM   25  O4  UNK     1      21.559  -9.939  34.576  1.00  0.00    -0.260 OA
HETATM   26  C15 UNK     1      22.339  -7.950  37.442  1.00  0.00    -0.043 A 
HETATM   27  C19 UNK     1      23.247  -7.942  38.637  1.00  0.00     0.049 C 
HETATM   28  C13 UNK     1      21.276  -5.748  38.096  1.00  0.00     0.017 A 
HETATM   29  C12 UNK     1      20.352  -4.729  37.836  1.00  0.00     0.030 A 
ENDBRANCH  16  18
ENDBRANCH   2  16
TORSDOF 4
ENDMDL
MODEL 4
REMARK VINA RESULT:      -9.0     27.368     29.265
REMARK  4 active torsions:
REMARK  status: ('A' for Active; 'I' for Inactive)
REMARK    1  A    between atoms: C5_13  and  N1_6 
REMARK       I    between atoms: C6_14  and  N2_7 
REMARK    2  A    between atoms: C5_13  and  N3_8 
REMARK    3  A    between atoms: C8_16  and  N3_8 
REMARK    4  A    between atoms: C6_14  and  C7_15 
ROOT
HETATM    1  S1  UNK     1      17.987  -1.738  36.882  1.00  0.00    -0.041 SA
HETATM    2  C5  UNK     1      19.348  -2.250  36.045  1.00  0.00     0.174 C 
ENDROOT
BRANCH   2   3
HETATM    3  N1  UNK     1      19.595  -1.779  34.798  1.00  0.00    -0.355 N 
HETATM    4  C1  UNK     1      18.679  -0.859  34.130  1.00  0.00     0.145 C 
HETATM    5  C3  UNK     1      18.403  -1.318  32.703  1.00  0.00     0.146 C 
HETATM    6  N2  UNK     1      19.667  -1.573  31.993  1.00  0.00    -0.343 N 
HETATM    7  C4  UNK     1      20.548  -2.536  32.661  1.00  0.00     0.146 C 
HETATM    8  C6  UNK     1      20.023  -1.049  30.737  1.00  0.00     0.277 C 
HETATM    9  C2  UNK     1      20.834  -2.093  34.093  1.00  0.00     0.145 C 
HETATM   10  O1  UNK     1      20.765  -1.649  29.957  1.00  0.00    -0.265 OA
BRANCH   8  11
HETATM   11  C7  UNK     1      19.479   0.254  30.376  1.00  0.00     0.142 A 
HETATM   12  C14 UNK     1      19.128   0.780  29.162  1.00  0.00     0.045 A 
HETATM   13  C16 UNK     1      18.659   2.088  29.430  1.00  0.00     0.027 A 
HETATM   14  C18 UNK     1      18.759   2.258  30.791  1.00  0.00     0.143 A 
HETATM   15  O2  UNK     1      19.260   1.139  31.376  1.00  0.00    -0.317 OA
ENDBRANCH   8  11
ENDBRANCH   2   3
BRANCH   2  16
HETATM   16  N3  UNK     1      20.260  -3.107  36.638  1.00  0.00    -0.333 N 
HETATM   17  H9  UNK     1      21.155  -2.676  36.860  1.00  0.00     0.168 HD
BRANCH  16  18
HETATM   18  C8  UNK     1      20.172  -4.450  37.006  1.00  0.00     0.036 A 
HETATM   19  C10 UNK     1      21.067  -4.981  37.929  1.00  0.00     0.067 A 
HETATM   20  C11 UNK     1      20.960  -6.327  38.284  1.00  0.00     0.092 A 
HETATM   21  O3  UNK     1      21.894  -6.807  39.223  1.00  0.00    -0.275 OA
HETATM   22  C9  UNK     1      19.982  -7.165  37.746  1.00  0.00     0.004 A 
HETATM   23  C20 UNK     1      21.881  -8.127  39.650  1.00  0.00     0.288 A 
HETATM   24  C17 UNK     1      20.844  -8.998  39.072  1.00  0.00     0.090 A 
HETATM   25  O4  UNK     1      22.689  -8.556  40.466  1.00  0.00    -0.260 OA
HETATM   26  C15 UNK     1      19.943  -8.568  38.177  1.00  0.00    -0.043 A 
HETATM   27  C19 UNK     1      18.903  -9.495  37.616  1.00  0.00     0.049 C 
HETATM   28  C13 UNK     1      19.090  -6.610  36.819  1.00  0.00     0.017 A 
HETATM   29  C12 UNK     1      19.184  -5.263  36.452  1.00  0.00     0.030 A 
ENDBRANCH  16  18
ENDBRANCH   2  16
TORSDOF 4
ENDMDL
MODEL 5
REMARK VINA RESULT:      -8.9     22.967     24.832
REMARK  4 active torsions:
REMARK  status: ('A' for Active; 'I' for Inactive)
REMARK    1  A    between atoms: C5_13  and  N1_6 
REMARK       I    between atoms: C6_14  and  N2_7 
REMARK    2  A    between atoms: C5_13  and  N3_8 
REMARK    3  A    between atoms: C8_16  and  N3_8 
REMARK    4  A    between atoms: C6_14  and  C7_15 
ROOT
HETATM    1  S1  UNK     1      20.134   5.990  31.918  1.00  0.00    -0.041 SA
HETATM    2  C5  UNK     1      18.464   5.970  32.082  1.00  0.00     0.174 C 
ENDROOT
BRANCH   2   3
HETATM    3  N1  UNK     1      17.793   7.120  32.335  1.00  0.00    -0.355 N 
HETATM    4  C1  UNK     1      18.108   7.953  33.492  1.00  0.00     0.145 C 
HETATM    5  C3  UNK     1      16.834   8.348  34.231  1.00  0.00     0.146 C 
HETATM    6  N2  UNK     1      15.854   8.920  33.292  1.00  0.00    -0.343 N 
HETATM    7  C4  UNK     1      15.520   8.043  32.165  1.00  0.00     0.146 C 
HETATM    8  C6  UNK     1      15.184  10.146  33.451  1.00  0.00     0.277 C 
HETATM    9  C2  UNK     1      16.785   7.636  31.415  1.00  0.00     0.145 C 
HETATM   10  O1  UNK     1      14.055  10.346  32.999  1.00  0.00    -0.265 OA
BRANCH   8  11
HETATM   11  C7  UNK     1      15.880  11.200  34.178  1.00  0.00     0.142 A 
HETATM   12  C14 UNK     1      15.510  11.937  35.271  1.00  0.00     0.045 A 
HETATM   13  C16 UNK     1      16.593  12.811  35.530  1.00  0.00     0.027 A 
HETATM   14  C18 UNK     1      17.542  12.538  34.573  1.00  0.00     0.143 A 
HETATM   15  O2  UNK     1      17.113  11.552  33.743  1.00  0.00    -0.317 OA
ENDBRANCH   8  11
ENDBRANCH   2   3
BRANCH   2  16
HETATM   16  N3  UNK     1      17.752   4.796  31.904  1.00  0.00    -0.333 N 
HETATM   17  H9  UNK     1      16.752   4.930  31.777  1.00  0.00     0.168 HD
BRANCH  16  18
HETATM   18  C8  UNK     1      18.156   3.462  31.848  1.00  0.00     0.036 A 
HETATM   19  C10 UNK     1      18.631   2.925  30.657  1.00  0.00     0.067 A 
HETATM   20  C11 UNK     1      19.032   1.588  30.623  1.00  0.00     0.092 A 
HETATM   21  O3  UNK     1      19.504   1.103  29.388  1.00  0.00    -0.275 OA
HETATM   22  C9  UNK     1      18.974   0.764  31.748  1.00  0.00     0.004 A 
HETATM   23  C20 UNK     1      19.929  -0.209  29.239  1.00  0.00     0.288 A 
HETATM   24  C17 UNK     1      19.861  -1.066  30.434  1.00  0.00     0.090 A 
HETATM   25  O4  UNK     1      20.341  -0.642  28.168  1.00  0.00    -0.260 OA
HETATM   26  C15 UNK     1      19.416  -0.630  31.621  1.00  0.00    -0.043 A 
HETATM   27  C19 UNK     1      19.366  -1.543  32.813  1.00  0.00     0.049 C 
HETATM   28  C13 UNK     1      18.493   1.324  32.939  1.00  0.00     0.017 A 
HETATM   29  C12 UNK     1      18.087   2.662  32.989  1.00  0.00     0.030 A 
ENDBRANCH  16  18
ENDBRANCH   2  16
TORSDOF 4
ENDMDL
MODEL 6
REMARK VINA RESULT:      -8.7      4.768     11.010
REMARK  4 active torsions:
REMARK  status: ('A' for Active; 'I' for Inactive)
REMARK    1  A    between atoms: C5_13  and  N1_6 
REMARK       I    between atoms: C6_14  and  N2_7 
REMARK    2  A    between atoms: C5_13  and  N3_8 
REMARK    3  A    between atoms: C8_16  and  N3_8 
REMARK    4  A    between atoms: C6_14  and  C7_15 
ROOT
HETATM    1  S1  UNK     1      17.132   7.472  10.558  1.00  0.00    -0.041 SA
HETATM    2  C5  UNK     1      15.846   8.218   9.782  1.00  0.00     0.174 C 
ENDROOT
BRANCH   2   3
HETATM    3  N1  UNK     1      14.826   7.473   9.291  1.00  0.00    -0.355 N 
HETATM    4  C1  UNK     1      13.661   8.088   8.662  1.00  0.00     0.145 C 
HETATM    5  C3  UNK     1      12.373   7.482   9.209  1.00  0.00     0.146 C 
HETATM    6  N2  UNK     1      12.426   6.012   9.135  1.00  0.00    -0.343 N 
HETATM    7  C4  UNK     1      13.581   5.418   9.815  1.00  0.00     0.146 C 
HETATM    8  C6  UNK     1      11.444   5.183   8.564  1.00  0.00     0.277 C 
HETATM    9  C2  UNK     1      14.880   6.015   9.280  1.00  0.00     0.145 C 
HETATM   10  O1  UNK     1      11.233   4.036   8.963  1.00  0.00    -0.265 OA
BRANCH   8  11
HETATM   11  C7  UNK     1      10.664   5.731   7.460  1.00  0.00     0.142 A 
HETATM   12  C14 UNK     1      11.046   6.198   6.232  1.00  0.00     0.045 A 
HETATM   13  C16 UNK     1       9.853   6.602   5.586  1.00  0.00     0.027 A 
HETATM   14  C18 UNK     1       8.833   6.347   6.473  1.00  0.00     0.143 A 
HETATM   15  O2  UNK     1       9.323   5.813   7.622  1.00  0.00    -0.317 OA
ENDBRANCH   8  11
ENDBRANCH   2   3
BRANCH   2  16
HETATM   16  N3  UNK     1      15.783   9.598   9.688  1.00  0.00    -0.333 N 
HETATM   17  H9  UNK     1      15.094  10.027  10.302  1.00  0.00     0.168 HD
BRANCH  16  18
HETATM   18  C8  UNK     1      16.504  10.512   8.920  1.00  0.00     0.036 A 
HETATM   19  C10 UNK     1      17.882  10.619   9.071  1.00  0.00     0.067 A 
HETATM   20  C11 UNK     1      18.585  11.539   8.291  1.00  0.00     0.092 A 
HETATM   21  O3  UNK     1      19.978  11.600   8.490  1.00  0.00    -0.275 OA
HETATM   22  C9  UNK     1      17.952  12.361   7.358  1.00  0.00     0.004 A 
HETATM   23  C20 UNK     1      20.776  12.476   7.770  1.00  0.00     0.288 A 
HETATM   24  C17 UNK     1      20.093  13.338   6.790  1.00  0.00     0.090 A 
HETATM   25  O4  UNK     1      21.989  12.539   7.935  1.00  0.00    -0.260 OA
HETATM   26  C15 UNK     1      18.770  13.301   6.580  1.00  0.00    -0.043 A 
HETATM   27  C19 UNK     1      18.119  14.200   5.569  1.00  0.00     0.049 C 
HETATM   28  C13 UNK     1      16.563  12.239   7.220  1.00  0.00     0.017 A 
HETATM   29  C12 UNK     1      15.845  11.321   7.995  1.00  0.00     0.030 A 
ENDBRANCH  16  18
ENDBRANCH   2  16
TORSDOF 4
ENDMDL
MODEL 7
REMARK VINA RESULT:      -8.6     25.502     27.737
REMARK  4 active torsions:
REMARK  status: ('A' for Active; 'I' for Inactive)
REMARK    1  A    between atoms: C5_13  and  N1_6 
REMARK       I    between atoms: C6_14  and  N2_7 
REMARK    2  A    between atoms: C5_13  and  N3_8 
REMARK    3  A    between atoms: C8_16  and  N3_8 
REMARK    4  A    between atoms: C6_14  and  C7_15 
ROOT
HETATM    1  S1  UNK     1      15.835   0.107  35.471  1.00  0.00    -0.041 SA
HETATM    2  C5  UNK     1      17.511   0.105  35.560  1.00  0.00     0.174 C 
ENDROOT
BRANCH   2   3
HETATM    3  N1  UNK     1      18.176  -1.053  35.797  1.00  0.00    -0.355 N 
HETATM    4  C1  UNK     1      17.622  -2.093  36.658  1.00  0.00     0.145 C 
HETATM    5  C3  UNK     1      18.669  -2.579  37.653  1.00  0.00     0.146 C 
HETATM    6  N2  UNK     1      19.914  -2.939  36.953  1.00  0.00    -0.343 N 
HETATM    7  C4  UNK     1      20.474  -1.861  36.132  1.00  0.00     0.146 C 
HETATM    8  C6  UNK     1      20.610  -4.154  37.088  1.00  0.00     0.277 C 
HETATM    9  C2  UNK     1      19.437  -1.360  35.130  1.00  0.00     0.145 C 
HETATM   10  O1  UNK     1      21.832  -4.234  36.952  1.00  0.00    -0.265 OA
BRANCH   8  11
HETATM   11  C7  UNK     1      19.826  -5.344  37.398  1.00  0.00     0.142 A 
HETATM   12  C14 UNK     1      19.918  -6.240  38.429  1.00  0.00     0.045 A 
HETATM   13  C16 UNK     1      18.891  -7.188  38.206  1.00  0.00     0.027 A 
HETATM   14  C18 UNK     1      18.251  -6.795  37.054  1.00  0.00     0.143 A 
HETATM   15  O2  UNK     1      18.818  -5.666  36.555  1.00  0.00    -0.317 OA
ENDBRANCH   8  11
ENDBRANCH   2   3
BRANCH   2  16
HETATM   16  N3  UNK     1      18.231   1.266  35.334  1.00  0.00    -0.333 N 
HETATM   17  H9  UNK     1      18.818   1.550  36.115  1.00  0.00     0.168 HD
BRANCH  16  18
HETATM   18  C8  UNK     1      18.315   2.108  34.225  1.00  0.00     0.036 A 
HETATM   19  C10 UNK     1      18.241   1.580  32.940  1.00  0.00     0.067 A 
HETATM   20  C11 UNK     1      18.326   2.441  31.844  1.00  0.00     0.092 A 
HETATM   21  O3  UNK     1      18.244   1.848  30.569  1.00  0.00    -0.275 OA
HETATM   22  C9  UNK     1      18.482   3.820  31.990  1.00  0.00     0.004 A 
HETATM   23  C20 UNK     1      18.316   2.607  29.411  1.00  0.00     0.288 A 
HETATM   24  C17 UNK     1      18.482   4.060  29.581  1.00  0.00     0.090 A 
HETATM   25  O4  UNK     1      18.247   2.101  28.295  1.00  0.00    -0.260 OA
HETATM   26  C15 UNK     1      18.562   4.651  30.781  1.00  0.00    -0.043 A 
HETATM   27  C19 UNK     1      18.732   6.138  30.905  1.00  0.00     0.049 C 
HETATM   28  C13 UNK     1      18.554   4.332  33.293  1.00  0.00     0.017 A 
HETATM   29  C12 UNK     1      18.471   3.482  34.401  1.00  0.00     0.030 A 
ENDBRANCH  16  18
ENDBRANCH   2  16
TORSDOF 4
ENDMDL
MODEL 8
REMARK VINA RESULT:      -8.6     32.970     35.949
REMARK  4 active torsions:
REMARK  status: ('A' for Active; 'I' for Inactive)
REMARK    1  A    between atoms: C5_13  and  N1_6 
REMARK       I    between atoms: C6_14  and  N2_7 
REMARK    2  A    between atoms: C5_13  and  N3_8 
REMARK    3  A    between atoms: C8_16  and  N3_8 
REMARK    4  A    between atoms: C6_14  and  C7_15 
ROOT
HETATM    1  S1  UNK     1      35.154  -6.078  36.434  1.00  0.00    -0.041 SA
HETATM    2  C5  UNK     1      34.193  -7.124  35.542  1.00  0.00     0.174 C 
ENDROOT
BRANCH   2   3
HETATM    3  N1  UNK     1      34.132  -7.005  34.193  1.00  0.00    -0.355 N 
HETATM    4  C1  UNK     1      33.217  -7.814  33.393  1.00  0.00     0.145 C 
HETATM    5  C3  UNK     1      33.944  -8.421  32.198  1.00  0.00     0.146 C 
HETATM    6  N2  UNK     1      34.673  -7.378  31.458  1.00  0.00    -0.343 N 
HETATM    7  C4  UNK     1      35.619  -6.612  32.275  1.00  0.00     0.146 C 
HETATM    8  C6  UNK     1      34.592  -7.144  30.073  1.00  0.00     0.277 C 
HETATM    9  C2  UNK     1      34.909  -5.998  33.478  1.00  0.00     0.145 C 
HETATM   10  O1  UNK     1      35.534  -6.687  29.423  1.00  0.00    -0.265 OA
BRANCH   8  11
HETATM   11  C7  UNK     1      33.332  -7.464  29.413  1.00  0.00     0.142 A 
HETATM   12  C14 UNK     1      32.150  -6.778  29.345  1.00  0.00     0.045 A 
HETATM   13  C16 UNK     1      31.283  -7.580  28.565  1.00  0.00     0.027 A 
HETATM   14  C18 UNK     1      32.007  -8.696  28.216  1.00  0.00     0.143 A 
HETATM   15  O2  UNK     1      33.262  -8.631  28.731  1.00  0.00    -0.317 OA
ENDBRANCH   8  11
ENDBRANCH   2   3
BRANCH   2  16
HETATM   16  N3  UNK     1      33.502  -8.150  36.164  1.00  0.00    -0.333 N 
HETATM   17  H9  UNK     1      33.971  -9.053  36.124  1.00  0.00     0.168 HD
BRANCH  16  18
HETATM   18  C8  UNK     1      32.290  -8.173  36.853  1.00  0.00     0.036 A 
HETATM   19  C10 UNK     1      31.636  -6.983  37.155  1.00  0.00     0.067 A 
HETATM   20  C11 UNK     1      30.422  -7.028  37.844  1.00  0.00     0.092 A 
HETATM   21  O3  UNK     1      29.808  -5.790  38.120  1.00  0.00    -0.275 OA
HETATM   22  C9  UNK     1      29.836  -8.230  38.244  1.00  0.00     0.004 A 
HETATM   23  C20 UNK     1      28.601  -5.715  38.797  1.00  0.00     0.288 A 
HETATM   24  C17 UNK     1      27.996  -6.992  39.214  1.00  0.00     0.090 A 
HETATM   25  O4  UNK     1      28.057  -4.644  39.044  1.00  0.00    -0.260 OA
HETATM   26  C15 UNK     1      28.558  -8.183  38.965  1.00  0.00    -0.043 A 
HETATM   27  C19 UNK     1      27.902  -9.459  39.409  1.00  0.00     0.049 C 
HETATM   28  C13 UNK     1      30.511  -9.417  37.930  1.00  0.00     0.017 A 
HETATM   29  C12 UNK     1      31.728  -9.389  37.240  1.00  0.00     0.030 A 
ENDBRANCH  16  18
ENDBRANCH   2  16
TORSDOF 4
ENDMDL
MODEL 9
REMARK VINA RESULT:      -8.6      5.037     10.427
REMARK  4 active torsions:
REMARK  status: ('A' for Active; 'I' for Inactive)
REMARK    1  A    between atoms: C5_13  and  N1_6 
REMARK       I    between atoms: C6_14  and  N2_7 
REMARK    2  A    between atoms: C5_13  and  N3_8 
REMARK    3  A    between atoms: C8_16  and  N3_8 
REMARK    4  A    between atoms: C6_14  and  C7_15 
ROOT
HETATM    1  S1  UNK     1      14.708   9.770  11.689  1.00  0.00    -0.041 SA
HETATM    2  C5  UNK     1      15.238   9.165  10.218  1.00  0.00     0.174 C 
ENDROOT
BRANCH   2   3
HETATM    3  N1  UNK     1      14.489   8.255   9.549  1.00  0.00    -0.355 N 
HETATM    4  C1  UNK     1      13.167   8.585   9.026  1.00  0.00     0.145 C 
HETATM    5  C3  UNK     1      12.159   7.502   9.393  1.00  0.00     0.146 C 
HETATM    6  N2  UNK     1      12.672   6.175   9.014  1.00  0.00    -0.343 N 
HETATM    7  C4  UNK     1      13.980   5.849   9.590  1.00  0.00     0.146 C 
HETATM    8  C6  UNK     1      11.982   5.215   8.251  1.00  0.00     0.277 C 
HETATM    9  C2  UNK     1      15.002   6.925   9.234  1.00  0.00     0.145 C 
HETATM   10  O1  UNK     1      12.161   4.004   8.393  1.00  0.00    -0.265 OA
BRANCH   8  11
HETATM   11  C7  UNK     1      11.029   5.705   7.262  1.00  0.00     0.142 A 
HETATM   12  C14 UNK     1      11.217   6.245   6.018  1.00  0.00     0.045 A 
HETATM   13  C16 UNK     1       9.922   6.533   5.525  1.00  0.00     0.027 A 
HETATM   14  C18 UNK     1       9.043   6.146   6.508  1.00  0.00     0.143 A 
HETATM   15  O2  UNK     1       9.714   5.637   7.575  1.00  0.00    -0.317 OA
ENDBRANCH   8  11
ENDBRANCH   2   3
BRANCH   2  16
HETATM   16  N3  UNK     1      16.411   9.630   9.645  1.00  0.00    -0.333 N 
HETATM   17  H9  UNK     1      17.231   9.067   9.861  1.00  0.00     0.168 HD
BRANCH  16  18
HETATM   18  C8  UNK     1      16.672  10.716   8.811  1.00  0.00     0.036 A 
HETATM   19  C10 UNK     1      15.639  11.562   8.421  1.00  0.00     0.067 A 
HETATM   20  C11 UNK     1      15.923  12.645   7.586  1.00  0.00     0.092 A 
HETATM   21  O3  UNK     1      14.836  13.465   7.227  1.00  0.00    -0.275 OA
HETATM   22  C9  UNK     1      17.213  12.913   7.126  1.00  0.00     0.004 A 
HETATM   23  C20 UNK     1      15.001  14.569   6.404  1.00  0.00     0.288 A 
HETATM   24  C17 UNK     1      16.367  14.837   5.925  1.00  0.00     0.090 A 
HETATM   25  O4  UNK     1      14.062  15.289   6.083  1.00  0.00    -0.260 OA
HETATM   26  C15 UNK     1      17.420  14.074   6.251  1.00  0.00    -0.043 A 
HETATM   27  C19 UNK     1      18.796  14.389   5.738  1.00  0.00     0.049 C 
HETATM   28  C13 UNK     1      18.240  12.049   7.530  1.00  0.00     0.017 A 
HETATM   29  C12 UNK     1      17.971  10.960   8.366  1.00  0.00     0.030 A 
ENDBRANCH  16  18
ENDBRANCH   2  16
TORSDOF 4
ENDMDL
MODEL 10
REMARK VINA RESULT:      -8.5     31.396     34.314
REMARK  4 active torsions:
REMARK  status: ('A' for Active; 'I' for Inactive)
REMARK    1  A    between atoms: C5_13  and  N1_6 
REMARK       I    between atoms: C6_14  and  N2_7 
REMARK    2  A    between atoms: C5_13  and  N3_8 
REMARK    3  A    between atoms: C8_16  and  N3_8 
REMARK    4  A    between atoms: C6_14  and  C7_15 
ROOT
HETATM    1  S1  UNK     1      33.827  -7.021  35.226  1.00  0.00    -0.041 SA
HETATM    2  C5  UNK     1      32.252  -6.553  34.885  1.00  0.00     0.174 C 
ENDROOT
BRANCH   2   3
HETATM    3  N1  UNK     1      31.328  -6.508  35.875  1.00  0.00    -0.355 N 
HETATM    4  C1  UNK     1      30.185  -7.415  35.899  1.00  0.00     0.145 C 
HETATM    5  C3  UNK     1      28.897  -6.648  36.172  1.00  0.00     0.146 C 
HETATM    6  N2  UNK     1      29.049  -5.797  37.365  1.00  0.00    -0.343 N 
HETATM    7  C4  UNK     1      30.177  -4.862  37.295  1.00  0.00     0.146 C 
HETATM    8  C6  UNK     1      28.175  -5.762  38.466  1.00  0.00     0.277 C 
HETATM    9  C2  UNK     1      31.476  -5.614  37.020  1.00  0.00     0.145 C 
HETATM   10  O1  UNK     1      28.005  -4.746  39.143  1.00  0.00    -0.265 OA
BRANCH   8  11
HETATM   11  C7  UNK     1      27.460  -6.990  38.793  1.00  0.00     0.142 A 
HETATM   12  C14 UNK     1      27.853  -8.106  39.481  1.00  0.00     0.045 A 
HETATM   13  C16 UNK     1      26.734  -8.972  39.481  1.00  0.00     0.027 A 
HETATM   14  C18 UNK     1      25.742  -8.314  38.792  1.00  0.00     0.143 A 
HETATM   15  O2  UNK     1      26.180  -7.100  38.368  1.00  0.00    -0.317 OA
ENDBRANCH   8  11
ENDBRANCH   2   3
BRANCH   2  16
HETATM   16  N3  UNK     1      31.896  -6.153  33.607  1.00  0.00    -0.333 N 
HETATM   17  H9  UNK     1      32.547  -5.497  33.180  1.00  0.00     0.168 HD
BRANCH  16  18
HETATM   18  C8  UNK     1      30.820  -6.498  32.790  1.00  0.00     0.036 A 
HETATM   19  C10 UNK     1      30.889  -7.630  31.985  1.00  0.00     0.067 A 
HETATM   20  C11 UNK     1      29.799  -7.958  31.176  1.00  0.00     0.092 A 
HETATM   21  O3  UNK     1      29.929  -9.115  30.383  1.00  0.00    -0.275 OA
HETATM   22  C9  UNK     1      28.635  -7.189  31.146  1.00  0.00     0.004 A 
HETATM   23  C20 UNK     1      28.910  -9.536  29.543  1.00  0.00     0.288 A 
HETATM   24  C17 UNK     1      27.688  -8.713  29.521  1.00  0.00     0.090 A 
HETATM   25  O4  UNK     1      29.012 -10.541  28.847  1.00  0.00    -0.260 OA
HETATM   26  C15 UNK     1      27.538  -7.608  30.264  1.00  0.00    -0.043 A 
HETATM   27  C19 UNK     1      26.272  -6.801  30.208  1.00  0.00     0.049 C 
HETATM   28  C13 UNK     1      28.585  -6.053  31.965  1.00  0.00     0.017 A 
HETATM   29  C12 UNK     1      29.669  -5.711  32.781  1.00  0.00     0.030 A 
ENDBRANCH  16  18
ENDBRANCH   2  16
TORSDOF 4
ENDMDL
