MODEL 1
REMARK VINA RESULT:      -7.3      0.000      0.000
REMARK  3 active torsions:
REMARK  status: ('A' for Active; 'I' for Inactive)
REMARK    1  A    between atoms: C10_14  and  O2_2 
REMARK    2  A    between atoms: C13_17  and  O2_2 
REMARK    3  A    between atoms: C2_6  and  C5_9 
ROOT
HETATM    1  O1  UNK     1      18.590   0.726  32.736  1.00  0.00    -0.274 OA
HETATM    2  O3  UNK     1      17.766   2.632  31.818  1.00  0.00    -0.259 OA
HETATM    3  C1  UNK     1      19.817   0.130  30.255  1.00  0.00    -0.037 A 
HETATM    4  C2  UNK     1      19.068   1.246  30.382  1.00  0.00     0.024 A 
HETATM    5  C3  UNK     1      19.953  -0.788  31.405  1.00  0.00     0.005 A 
HETATM    6  C4  UNK     1      19.335  -0.456  32.607  1.00  0.00     0.093 A 
HETATM    7  C6  UNK     1      18.419   1.602  31.677  1.00  0.00     0.295 A 
HETATM    8  C7  UNK     1      20.666  -1.996  31.365  1.00  0.00     0.017 A 
HETATM    9  C8  UNK     1      20.553  -0.245  28.993  1.00  0.00     0.050 C 
HETATM   10  C9  UNK     1      19.414  -1.266  33.743  1.00  0.00     0.075 A 
HETATM   11  C10 UNK     1      20.130  -2.456  33.682  1.00  0.00     0.081 A 
HETATM   12  C12 UNK     1      20.755  -2.821  32.492  1.00  0.00     0.038 A 
ENDROOT
BRANCH  11  13
HETATM   13  O2  UNK     1      20.219  -3.259  34.775  1.00  0.00    -0.279 OA
BRANCH  13  14
HETATM   14  C13 UNK     1      20.831  -2.654  35.886  1.00  0.00     0.260 C 
HETATM   15  O4  UNK     1      21.791  -1.897  35.848  1.00  0.00    -0.265 OA
HETATM   16  C14 UNK     1      20.136  -3.071  37.148  1.00  0.00     0.126 C 
ENDBRANCH  13  14
ENDBRANCH  11  13
BRANCH   4  17
HETATM   17  C5  UNK     1      18.795   2.231  29.274  1.00  0.00     0.041 C 
HETATM   18  C11 UNK     1      17.671   1.756  28.378  1.00  0.00     0.010 C 
ENDBRANCH   4  17
TORSDOF 3
ENDMDL
MODEL 2
REMARK VINA RESULT:      -7.2      2.433      3.322
REMARK  3 active torsions:
REMARK  status: ('A' for Active; 'I' for Inactive)
REMARK    1  A    between atoms: C10_14  and  O2_2 
REMARK    2  A    between atoms: C13_17  and  O2_2 
REMARK    3  A    between atoms: C2_6  and  C5_9 
ROOT
HETATM    1  O1  UNK     1      18.506   1.776  31.614  1.00  0.00    -0.274 OA
HETATM    2  O3  UNK     1      19.084   2.259  29.473  1.00  0.00    -0.259 OA
HETATM    3  C1  UNK     1      19.732  -0.758  31.312  1.00  0.00    -0.037 A 
HETATM    4  C2  UNK     1      19.706   0.103  30.273  1.00  0.00     0.024 A 
HETATM    5  C3  UNK     1      19.083  -0.380  32.584  1.00  0.00     0.005 A 
HETATM    6  C4  UNK     1      18.494   0.876  32.691  1.00  0.00     0.093 A 
HETATM    7  C6  UNK     1      19.083   1.453  30.398  1.00  0.00     0.295 A 
HETATM    8  C7  UNK     1      19.011  -1.218  33.709  1.00  0.00     0.017 A 
HETATM    9  C8  UNK     1      20.407  -2.106  31.265  1.00  0.00     0.050 C 
HETATM   10  C9  UNK     1      17.861   1.314  33.858  1.00  0.00     0.075 A 
HETATM   11  C10 UNK     1      17.806   0.469  34.961  1.00  0.00     0.081 A 
HETATM   12  C12 UNK     1      18.381  -0.797  34.885  1.00  0.00     0.038 A 
ENDROOT
BRANCH  11  13
HETATM   13  O2  UNK     1      17.195   0.875  36.105  1.00  0.00    -0.279 OA
BRANCH  13  14
HETATM   14  C13 UNK     1      18.062   1.457  37.046  1.00  0.00     0.260 C 
HETATM   15  O4  UNK     1      19.052   2.126  36.787  1.00  0.00    -0.265 OA
HETATM   16  C14 UNK     1      17.602   1.135  38.437  1.00  0.00     0.126 C 
ENDBRANCH  13  14
ENDBRANCH  11  13
BRANCH   4  17
HETATM   17  C5  UNK     1      20.270  -0.182  28.904  1.00  0.00     0.041 C 
HETATM   18  C11 UNK     1      19.197  -0.668  27.954  1.00  0.00     0.010 C 
ENDBRANCH   4  17
TORSDOF 3
ENDMDL
MODEL 3
REMARK VINA RESULT:      -7.1     23.508     26.116
REMARK  3 active torsions:
REMARK  status: ('A' for Active; 'I' for Inactive)
REMARK    1  A    between atoms: C10_14  and  O2_2 
REMARK    2  A    between atoms: C13_17  and  O2_2 
REMARK    3  A    between atoms: C2_6  and  C5_9 
ROOT
HETATM    1  O1  UNK     1      14.025   4.920   8.976  1.00  0.00    -0.274 OA
HETATM    2  O3  UNK     1      16.199   4.593   9.541  1.00  0.00    -0.259 OA
HETATM    3  C1  UNK     1      14.198   7.532  10.053  1.00  0.00    -0.037 A 
HETATM    4  C2  UNK     1      15.269   6.713  10.104  1.00  0.00     0.024 A 
HETATM    5  C3  UNK     1      12.934   7.038   9.469  1.00  0.00     0.005 A 
HETATM    6  C4  UNK     1      12.892   5.748   8.949  1.00  0.00     0.093 A 
HETATM    7  C6  UNK     1      15.221   5.336   9.533  1.00  0.00     0.295 A 
HETATM    8  C7  UNK     1      11.749   7.790   9.409  1.00  0.00     0.017 A 
HETATM    9  C8  UNK     1      14.208   8.957  10.550  1.00  0.00     0.050 C 
HETATM   10  C9  UNK     1      11.739   5.204   8.378  1.00  0.00     0.075 A 
HETATM   11  C10 UNK     1      10.579   5.968   8.325  1.00  0.00     0.081 A 
HETATM   12  C12 UNK     1      10.585   7.261   8.842  1.00  0.00     0.038 A 
ENDROOT
BRANCH  11  13
HETATM   13  O2  UNK     1       9.446   5.457   7.774  1.00  0.00    -0.279 OA
BRANCH  13  14
HETATM   14  C13 UNK     1       8.780   6.338   6.905  1.00  0.00     0.260 C 
HETATM   15  O4  UNK     1       7.727   6.914   7.142  1.00  0.00    -0.265 OA
HETATM   16  C14 UNK     1       9.546   6.476   5.624  1.00  0.00     0.126 C 
ENDBRANCH  13  14
ENDBRANCH  11  13
BRANCH   4  17
HETATM   17  C5  UNK     1      16.595   7.067  10.729  1.00  0.00     0.041 C 
HETATM   18  C11 UNK     1      17.416   7.954   9.817  1.00  0.00     0.010 C 
ENDBRANCH   4  17
TORSDOF 3
ENDMDL
MODEL 4
REMARK VINA RESULT:      -7.1      2.589      5.595
REMARK  3 active torsions:
REMARK  status: ('A' for Active; 'I' for Inactive)
REMARK    1  A    between atoms: C10_14  and  O2_2 
REMARK    2  A    between atoms: C13_17  and  O2_2 
REMARK    3  A    between atoms: C2_6  and  C5_9 
ROOT
HETATM    1  O1  UNK     1      17.230  -0.263  33.827  1.00  0.00    -0.274 OA
HETATM    2  O3  UNK     1      15.766   0.623  35.318  1.00  0.00    -0.259 OA
HETATM    3  C1  UNK     1      18.640  -1.425  35.990  1.00  0.00    -0.037 A 
HETATM    4  C2  UNK     1      17.554  -0.660  36.230  1.00  0.00     0.024 A 
HETATM    5  C3  UNK     1      19.102  -1.612  34.599  1.00  0.00     0.005 A 
HETATM    6  C4  UNK     1      18.379  -1.025  33.565  1.00  0.00     0.093 A 
HETATM    7  C6  UNK     1      16.776  -0.045  35.116  1.00  0.00     0.295 A 
HETATM    8  C7  UNK     1      20.245  -2.347  34.243  1.00  0.00     0.017 A 
HETATM    9  C8  UNK     1      19.424  -2.129  37.069  1.00  0.00     0.050 C 
HETATM   10  C9  UNK     1      18.746  -1.154  32.223  1.00  0.00     0.075 A 
HETATM   11  C10 UNK     1      19.878  -1.890  31.893  1.00  0.00     0.081 A 
HETATM   12  C12 UNK     1      20.628  -2.485  32.905  1.00  0.00     0.038 A 
ENDROOT
BRANCH  11  13
HETATM   13  O2  UNK     1      20.252  -2.027  30.593  1.00  0.00    -0.279 OA
BRANCH  13  14
HETATM   14  C13 UNK     1      20.518  -0.811  29.940  1.00  0.00     0.260 C 
HETATM   15  O4  UNK     1      21.131   0.135  30.415  1.00  0.00    -0.265 OA
HETATM   16  C14 UNK     1      19.935  -0.831  28.559  1.00  0.00     0.126 C 
ENDBRANCH  13  14
ENDBRANCH  11  13
BRANCH   4  17
HETATM   17  C5  UNK     1      17.016  -0.335  37.600  1.00  0.00     0.041 C 
HETATM   18  C11 UNK     1      17.636   0.931  38.151  1.00  0.00     0.010 C 
ENDBRANCH   4  17
TORSDOF 3
ENDMDL
MODEL 5
REMARK VINA RESULT:      -7.1      3.239      5.211
REMARK  3 active torsions:
REMARK  status: ('A' for Active; 'I' for Inactive)
REMARK    1  A    between atoms: C10_14  and  O2_2 
REMARK    2  A    between atoms: C13_17  and  O2_2 
REMARK    3  A    between atoms: C2_6  and  C5_9 
ROOT
HETATM    1  O1  UNK     1      17.984   3.892  33.293  1.00  0.00    -0.274 OA
HETATM    2  O3  UNK     1      17.503   5.851  34.334  1.00  0.00    -0.259 OA
HETATM    3  C1  UNK     1      18.496   5.345  30.919  1.00  0.00    -0.037 A 
HETATM    4  C2  UNK     1      18.096   5.997  32.031  1.00  0.00     0.024 A 
HETATM    5  C3  UNK     1      18.623   3.873  30.946  1.00  0.00     0.005 A 
HETATM    6  C4  UNK     1      18.364   3.198  32.134  1.00  0.00     0.093 A 
HETATM    7  C6  UNK     1      17.832   5.268  33.305  1.00  0.00     0.295 A 
HETATM    8  C7  UNK     1      18.984   3.096  29.834  1.00  0.00     0.017 A 
HETATM    9  C8  UNK     1      18.843   6.036  29.623  1.00  0.00     0.050 C 
HETATM   10  C9  UNK     1      18.462   1.808  32.247  1.00  0.00     0.075 A 
HETATM   11  C10 UNK     1      18.826   1.059  31.134  1.00  0.00     0.081 A 
HETATM   12  C12 UNK     1      19.086   1.703  29.928  1.00  0.00     0.038 A 
ENDROOT
BRANCH  11  13
HETATM   13  O2  UNK     1      18.926  -0.294  31.223  1.00  0.00    -0.279 OA
BRANCH  13  14
HETATM   14  C13 UNK     1      20.205  -0.797  30.928  1.00  0.00     0.260 C 
HETATM   15  O4  UNK     1      21.249  -0.451  31.463  1.00  0.00    -0.265 OA
HETATM   16  C14 UNK     1      20.115  -1.832  29.847  1.00  0.00     0.126 C 
ENDBRANCH  13  14
ENDBRANCH  11  13
BRANCH   4  17
HETATM   17  C5  UNK     1      17.864   7.484  32.122  1.00  0.00     0.041 C 
HETATM   18  C11 UNK     1      16.457   7.850  31.698  1.00  0.00     0.010 C 
ENDBRANCH   4  17
TORSDOF 3
ENDMDL
MODEL 6
REMARK VINA RESULT:      -7.0      2.599      3.728
REMARK  3 active torsions:
REMARK  status: ('A' for Active; 'I' for Inactive)
REMARK    1  A    between atoms: C10_14  and  O2_2 
REMARK    2  A    between atoms: C13_17  and  O2_2 
REMARK    3  A    between atoms: C2_6  and  C5_9 
ROOT
HETATM    1  O1  UNK     1      19.311  -1.795  32.676  1.00  0.00    -0.274 OA
HETATM    2  O3  UNK     1      20.474  -2.619  30.909  1.00  0.00    -0.259 OA
HETATM    3  C1  UNK     1      19.219   0.715  31.371  1.00  0.00    -0.037 A 
HETATM    4  C2  UNK     1      19.865  -0.319  30.791  1.00  0.00     0.024 A 
HETATM    5  C3  UNK     1      18.602   0.532  32.701  1.00  0.00     0.005 A 
HETATM    6  C4  UNK     1      18.669  -0.719  33.307  1.00  0.00     0.093 A 
HETATM    7  C6  UNK     1      19.921  -1.661  31.441  1.00  0.00     0.295 A 
HETATM    8  C7  UNK     1      17.950   1.553  33.411  1.00  0.00     0.017 A 
HETATM    9  C8  UNK     1      19.070   2.073  30.731  1.00  0.00     0.050 C 
HETATM   10  C9  UNK     1      18.111  -0.978  34.561  1.00  0.00     0.075 A 
HETATM   11  C10 UNK     1      17.465   0.047  35.245  1.00  0.00     0.081 A 
HETATM   12  C12 UNK     1      17.386   1.312  34.669  1.00  0.00     0.038 A 
ENDROOT
BRANCH  11  13
HETATM   13  O2  UNK     1      16.916  -0.185  36.467  1.00  0.00    -0.279 OA
BRANCH  13  14
HETATM   14  C13 UNK     1      17.783   0.065  37.544  1.00  0.00     0.260 C 
HETATM   15  O4  UNK     1      18.097   1.170  37.966  1.00  0.00    -0.265 OA
HETATM   16  C14 UNK     1      18.283  -1.229  38.114  1.00  0.00     0.126 C 
ENDBRANCH  13  14
ENDBRANCH  11  13
BRANCH   4  17
HETATM   17  C5  UNK     1      20.591  -0.251  29.472  1.00  0.00     0.041 C 
HETATM   18  C11 UNK     1      19.678  -0.612  28.320  1.00  0.00     0.010 C 
ENDBRANCH   4  17
TORSDOF 3
ENDMDL
MODEL 7
REMARK VINA RESULT:      -7.0     23.482     25.675
REMARK  3 active torsions:
REMARK  status: ('A' for Active; 'I' for Inactive)
REMARK    1  A    between atoms: C10_14  and  O2_2 
REMARK    2  A    between atoms: C13_17  and  O2_2 
REMARK    3  A    between atoms: C2_6  and  C5_9 
ROOT
HETATM    1  O1  UNK     1      11.282   5.195  10.044  1.00  0.00    -0.274 OA
HETATM    2  O3  UNK     1       9.029   4.943  10.153  1.00  0.00    -0.259 OA
HETATM    3  C1  UNK     1      10.980   6.256   7.437  1.00  0.00    -0.037 A 
HETATM    4  C2  UNK     1       9.894   5.841   8.123  1.00  0.00     0.024 A 
HETATM    5  C3  UNK     1      12.319   6.114   8.044  1.00  0.00     0.005 A 
HETATM    6  C4  UNK     1      12.423   5.589   9.329  1.00  0.00     0.093 A 
HETATM    7  C6  UNK     1      10.011   5.291   9.504  1.00  0.00     0.295 A 
HETATM    8  C7  UNK     1      13.515   6.468   7.399  1.00  0.00     0.017 A 
HETATM    9  C8  UNK     1      10.916   6.883   6.066  1.00  0.00     0.050 C 
HETATM   10  C9  UNK     1      13.650   5.422   9.976  1.00  0.00     0.075 A 
HETATM   11  C10 UNK     1      14.822   5.785   9.321  1.00  0.00     0.081 A 
HETATM   12  C12 UNK     1      14.753   6.307   8.032  1.00  0.00     0.038 A 
ENDROOT
BRANCH  11  13
HETATM   13  O2  UNK     1      16.025   5.630   9.934  1.00  0.00    -0.279 OA
BRANCH  13  14
HETATM   14  C13 UNK     1      16.733   6.829  10.124  1.00  0.00     0.260 C 
HETATM   15  O4  UNK     1      17.802   7.118   9.604  1.00  0.00    -0.265 OA
HETATM   16  C14 UNK     1      15.988   7.721  11.072  1.00  0.00     0.126 C 
ENDBRANCH  13  14
ENDBRANCH  11  13
BRANCH   4  17
HETATM   17  C5  UNK     1       8.481   5.868   7.597  1.00  0.00     0.041 C 
HETATM   18  C11 UNK     1       7.806   7.190   7.896  1.00  0.00     0.010 C 
ENDBRANCH   4  17
TORSDOF 3
ENDMDL
MODEL 8
REMARK VINA RESULT:      -6.9     23.534     25.897
REMARK  3 active torsions:
REMARK  status: ('A' for Active; 'I' for Inactive)
REMARK    1  A    between atoms: C10_14  and  O2_2 
REMARK    2  A    between atoms: C13_17  and  O2_2 
REMARK    3  A    between atoms: C2_6  and  C5_9 
ROOT
HETATM    1  O1  UNK     1      12.583   8.171  10.368  1.00  0.00    -0.274 OA
HETATM    2  O3  UNK     1      13.819   9.560  11.671  1.00  0.00    -0.259 OA
HETATM    3  C1  UNK     1      14.930   6.686   9.824  1.00  0.00    -0.037 A 
HETATM    4  C2  UNK     1      14.997   7.782  10.608  1.00  0.00     0.024 A 
HETATM    5  C3  UNK     1      13.636   6.299   9.226  1.00  0.00     0.005 A 
HETATM    6  C4  UNK     1      12.506   7.055   9.521  1.00  0.00     0.093 A 
HETATM    7  C6  UNK     1      13.780   8.581  10.930  1.00  0.00     0.295 A 
HETATM    8  C7  UNK     1      13.466   5.207   8.360  1.00  0.00     0.017 A 
HETATM    9  C8  UNK     1      16.114   5.800   9.520  1.00  0.00     0.050 C 
HETATM   10  C9  UNK     1      11.244   6.758   9.000  1.00  0.00     0.075 A 
HETATM   11  C10 UNK     1      11.099   5.668   8.147  1.00  0.00     0.081 A 
HETATM   12  C12 UNK     1      12.211   4.895   7.827  1.00  0.00     0.038 A 
ENDROOT
BRANCH  11  13
HETATM   13  O2  UNK     1       9.879   5.363   7.629  1.00  0.00    -0.279 OA
BRANCH  13  14
HETATM   14  C13 UNK     1       9.412   6.282   6.675  1.00  0.00     0.260 C 
HETATM   15  O4  UNK     1       9.997   6.607   5.651  1.00  0.00    -0.265 OA
HETATM   16  C14 UNK     1       8.077   6.824   7.092  1.00  0.00     0.126 C 
ENDBRANCH  13  14
ENDBRANCH  11  13
BRANCH   4  17
HETATM   17  C5  UNK     1      16.261   8.324  11.226  1.00  0.00     0.041 C 
HETATM   18  C11 UNK     1      16.999   9.233  10.267  1.00  0.00     0.010 C 
ENDBRANCH   4  17
TORSDOF 3
ENDMDL
MODEL 9
REMARK VINA RESULT:      -6.9      2.614      3.898
REMARK  3 active torsions:
REMARK  status: ('A' for Active; 'I' for Inactive)
REMARK    1  A    between atoms: C10_14  and  O2_2 
REMARK    2  A    between atoms: C13_17  and  O2_2 
REMARK    3  A    between atoms: C2_6  and  C5_9 
ROOT
HETATM    1  O1  UNK     1      18.421   1.706  31.354  1.00  0.00    -0.274 OA
HETATM    2  O3  UNK     1      18.553   3.004  29.496  1.00  0.00    -0.259 OA
HETATM    3  C1  UNK     1      18.359   4.061  32.924  1.00  0.00    -0.037 A 
HETATM    4  C2  UNK     1      18.469   4.152  31.582  1.00  0.00     0.024 A 
HETATM    5  C3  UNK     1      18.311   2.728  33.559  1.00  0.00     0.005 A 
HETATM    6  C4  UNK     1      18.343   1.596  32.751  1.00  0.00     0.093 A 
HETATM    7  C6  UNK     1      18.489   2.935  30.720  1.00  0.00     0.295 A 
HETATM    8  C7  UNK     1      18.246   2.521  34.947  1.00  0.00     0.017 A 
HETATM    9  C8  UNK     1      18.263   5.256  33.840  1.00  0.00     0.050 C 
HETATM   10  C9  UNK     1      18.301   0.299  33.270  1.00  0.00     0.075 A 
HETATM   11  C10 UNK     1      18.231   0.118  34.646  1.00  0.00     0.081 A 
HETATM   12  C12 UNK     1      18.204   1.229  35.484  1.00  0.00     0.038 A 
ENDROOT
BRANCH  11  13
HETATM   13  O2  UNK     1      18.190  -1.136  35.171  1.00  0.00    -0.279 OA
BRANCH  13  14
HETATM   14  C13 UNK     1      19.332  -1.488  35.910  1.00  0.00     0.260 C 
HETATM   15  O4  UNK     1      20.489  -1.386  35.528  1.00  0.00    -0.265 OA
HETATM   16  C14 UNK     1      18.932  -2.019  37.254  1.00  0.00     0.126 C 
ENDBRANCH  13  14
ENDBRANCH  11  13
BRANCH   4  17
HETATM   17  C5  UNK     1      18.591   5.443  30.814  1.00  0.00     0.041 C 
HETATM   18  C11 UNK     1      20.041   5.827  30.605  1.00  0.00     0.010 C 
ENDBRANCH   4  17
TORSDOF 3
ENDMDL
MODEL 10
REMARK VINA RESULT:      -6.9      4.946      8.034
REMARK  3 active torsions:
REMARK  status: ('A' for Active; 'I' for Inactive)
REMARK    1  A    between atoms: C10_14  and  O2_2 
REMARK    2  A    between atoms: C13_17  and  O2_2 
REMARK    3  A    between atoms: C2_6  and  C5_9 
ROOT
HETATM    1  O1  UNK     1      17.780   3.715  33.182  1.00  0.00    -0.274 OA
HETATM    2  O3  UNK     1      18.099   1.636  32.328  1.00  0.00    -0.259 OA
HETATM    3  C1  UNK     1      18.721   4.799  30.743  1.00  0.00    -0.037 A 
HETATM    4  C2  UNK     1      18.680   3.460  30.910  1.00  0.00     0.024 A 
HETATM    5  C3  UNK     1      18.310   5.682  31.853  1.00  0.00     0.005 A 
HETATM    6  C4  UNK     1      17.852   5.108  33.035  1.00  0.00     0.093 A 
HETATM    7  C6  UNK     1      18.175   2.851  32.175  1.00  0.00     0.295 A 
HETATM    8  C7  UNK     1      18.360   7.085  31.801  1.00  0.00     0.017 A 
HETATM    9  C8  UNK     1      19.155   5.469  29.463  1.00  0.00     0.050 C 
HETATM   10  C9  UNK     1      17.444   5.870  34.133  1.00  0.00     0.075 A 
HETATM   11  C10 UNK     1      17.496   7.258  34.057  1.00  0.00     0.081 A 
HETATM   12  C12 UNK     1      17.956   7.863  32.891  1.00  0.00     0.038 A 
ENDROOT
BRANCH  11  13
HETATM   13  O2  UNK     1      17.104   8.017  35.114  1.00  0.00    -0.279 OA
BRANCH  13  14
HETATM   14  C13 UNK     1      16.154   9.002  34.794  1.00  0.00     0.260 C 
HETATM   15  O4  UNK     1      16.303  10.208  34.932  1.00  0.00    -0.265 OA
HETATM   16  C14 UNK     1      14.910   8.362  34.255  1.00  0.00     0.126 C 
ENDBRANCH  13  14
ENDBRANCH  11  13
BRANCH   4  17
HETATM   17  C5  UNK     1      19.129   2.450  29.886  1.00  0.00     0.041 C 
HETATM   18  C11 UNK     1      18.006   2.088  28.937  1.00  0.00     0.010 C 
ENDBRANCH   4  17
TORSDOF 3
ENDMDL
