MODEL 1
REMARK VINA RESULT:      -9.9      0.000      0.000
REMARK  6 active torsions:
REMARK  status: ('A' for Active; 'I' for Inactive)
REMARK       I    between atoms: C10_14  and  N1_4 
REMARK    1  A    between atoms: C5_9  and  N1_4 
REMARK    2  A    between atoms: C1_5  and  C2_6 
REMARK    3  A    between atoms: C1_5  and  C3_7 
REMARK    4  A    between atoms: C1_5  and  C4_8 
REMARK    5  A    between atoms: C2_6  and  C5_9 
REMARK    6  A    between atoms: C10_14  and  C15_19 
ROOT
HETATM    1  O2  UNK     1      17.331  -1.094  35.881  1.00  0.00    -0.267 OA
HETATM    2  N1  UNK     1      19.455  -2.052  35.828  1.00  0.00    -0.357 N 
HETATM    3  C10 UNK     1      18.404  -1.310  35.322  1.00  0.00     0.257 C 
HETATM    4  H10 UNK     1      20.314  -2.153  35.296  1.00  0.00     0.162 HD
ENDROOT
BRANCH   2   5
HETATM    5  C5  UNK     1      19.418  -2.687  37.125  1.00  0.00     0.124 C 
BRANCH   5   6
HETATM    6  C2  UNK     1      20.489  -3.770  37.280  1.00  0.00     0.034 C 
BRANCH   6   7
HETATM    7  C1  UNK     1      19.956  -5.119  37.835  1.00  0.00     0.053 C 
BRANCH   7   8
HETATM    8  C3  UNK     1      21.037  -5.961  38.508  1.00  0.00    -0.050 A 
HETATM    9  C6  UNK     1      20.672  -7.137  39.125  1.00  0.00     0.008 A 
HETATM   10  C11 UNK     1      21.659  -7.906  39.740  1.00  0.00     0.001 A 
HETATM   11  C16 UNK     1      22.988  -7.480  39.722  1.00  0.00     0.000 A 
HETATM   12  C13 UNK     1      23.328  -6.285  39.090  1.00  0.00     0.001 A 
HETATM   13  C8  UNK     1      22.340  -5.515  38.475  1.00  0.00     0.008 A 
ENDBRANCH   7   8
BRANCH   7  14
HETATM   14  C4  UNK     1      19.181  -5.935  36.808  1.00  0.00    -0.050 A 
HETATM   15  C7  UNK     1      19.867  -6.509  35.758  1.00  0.00     0.008 A 
HETATM   16  C12 UNK     1      19.157  -7.255  34.817  1.00  0.00     0.001 A 
HETATM   17  C17 UNK     1      17.777  -7.411  34.950  1.00  0.00     0.000 A 
HETATM   18  C14 UNK     1      17.107  -6.821  36.021  1.00  0.00     0.001 A 
HETATM   19  C9  UNK     1      17.818  -6.074  36.962  1.00  0.00     0.008 A 
ENDBRANCH   7  14
ENDBRANCH   6   7
ENDBRANCH   5   6
ENDBRANCH   2   5
BRANCH   3  20
HETATM   20  C15 UNK     1      18.681  -0.764  33.988  1.00  0.00     0.108 A 
HETATM   21  C18 UNK     1      19.266  -1.597  33.118  1.00  0.00     0.037 A 
HETATM   22  C19 UNK     1      19.580  -1.148  31.771  1.00  0.00    -0.001 A 
HETATM   23  C20 UNK     1      19.264   0.157  31.406  1.00  0.00     0.089 A 
HETATM   24  C22 UNK     1      20.189  -1.982  30.830  1.00  0.00     0.014 A 
HETATM   25  O1  UNK     1      18.650   1.029  32.325  1.00  0.00    -0.274 OA
HETATM   26  C23 UNK     1      19.539   0.650  30.131  1.00  0.00     0.038 A 
HETATM   27  C21 UNK     1      18.336   0.627  33.621  1.00  0.00     0.304 A 
HETATM   28  O3  UNK     1      17.802   1.394  34.415  1.00  0.00    -0.259 OA
HETATM   29  C25 UNK     1      20.147  -0.189  29.200  1.00  0.00     0.003 A 
HETATM   30  C24 UNK     1      20.471  -1.503  29.548  1.00  0.00     0.001 A 
ENDBRANCH   3  20
TORSDOF 6
ENDMDL
MODEL 2
REMARK VINA RESULT:      -9.6      2.868      8.920
REMARK  6 active torsions:
REMARK  status: ('A' for Active; 'I' for Inactive)
REMARK       I    between atoms: C10_14  and  N1_4 
REMARK    1  A    between atoms: C5_9  and  N1_4 
REMARK    2  A    between atoms: C1_5  and  C2_6 
REMARK    3  A    between atoms: C1_5  and  C3_7 
REMARK    4  A    between atoms: C1_5  and  C4_8 
REMARK    5  A    between atoms: C2_6  and  C5_9 
REMARK    6  A    between atoms: C10_14  and  C15_19 
ROOT
HETATM    1  O2  UNK     1      21.485  -4.332  37.484  1.00  0.00    -0.267 OA
HETATM    2  N1  UNK     1      19.775  -4.160  35.908  1.00  0.00    -0.357 N 
HETATM    3  C10 UNK     1      20.630  -4.837  36.759  1.00  0.00     0.257 C 
HETATM    4  H10 UNK     1      19.084  -4.669  35.366  1.00  0.00     0.162 HD
ENDROOT
BRANCH   2   5
HETATM    5  C5  UNK     1      19.784  -2.722  35.763  1.00  0.00     0.124 C 
BRANCH   5   6
HETATM    6  C2  UNK     1      20.122  -2.277  34.338  1.00  0.00     0.034 C 
BRANCH   6   7
HETATM    7  C1  UNK     1      18.936  -1.627  33.576  1.00  0.00     0.053 C 
BRANCH   7   8
HETATM    8  C3  UNK     1      19.349  -0.995  32.248  1.00  0.00    -0.050 A 
HETATM    9  C6  UNK     1      20.114  -1.734  31.373  1.00  0.00     0.008 A 
HETATM   10  C11 UNK     1      20.491  -1.158  30.160  1.00  0.00     0.001 A 
HETATM   11  C16 UNK     1      20.093   0.144  29.853  1.00  0.00     0.000 A 
HETATM   12  C13 UNK     1      19.319   0.869  30.759  1.00  0.00     0.001 A 
HETATM   13  C8  UNK     1      18.942   0.291  31.972  1.00  0.00     0.008 A 
ENDBRANCH   7   8
BRANCH   7  14
HETATM   14  C4  UNK     1      18.130  -0.651  34.424  1.00  0.00    -0.050 A 
HETATM   15  C7  UNK     1      16.767  -0.837  34.538  1.00  0.00     0.008 A 
HETATM   16  C12 UNK     1      16.029   0.057  35.314  1.00  0.00     0.001 A 
HETATM   17  C17 UNK     1      16.670   1.115  35.959  1.00  0.00     0.000 A 
HETATM   18  C14 UNK     1      18.049   1.280  35.827  1.00  0.00     0.001 A 
HETATM   19  C9  UNK     1      18.787   0.386  35.051  1.00  0.00     0.008 A 
ENDBRANCH   7  14
ENDBRANCH   6   7
ENDBRANCH   5   6
ENDBRANCH   2   5
BRANCH   3  20
HETATM   20  C15 UNK     1      20.428  -6.291  36.733  1.00  0.00     0.108 A 
HETATM   21  C18 UNK     1      20.209  -6.879  37.915  1.00  0.00     0.037 A 
HETATM   22  C19 UNK     1      19.998  -8.315  37.992  1.00  0.00    -0.001 A 
HETATM   23  C20 UNK     1      20.027  -9.063  36.819  1.00  0.00     0.089 A 
HETATM   24  C22 UNK     1      19.766  -8.971  39.203  1.00  0.00     0.014 A 
HETATM   25  O1  UNK     1      20.257  -8.440  35.578  1.00  0.00    -0.274 OA
HETATM   26  C23 UNK     1      19.832 -10.444  36.824  1.00  0.00     0.038 A 
HETATM   27  C21 UNK     1      20.463  -7.066  35.473  1.00  0.00     0.304 A 
HETATM   28  O3  UNK     1      20.664  -6.532  34.388  1.00  0.00    -0.259 OA
HETATM   29  C25 UNK     1      19.602 -11.089  38.037  1.00  0.00     0.003 A 
HETATM   30  C24 UNK     1      19.568 -10.355  39.224  1.00  0.00     0.001 A 
ENDBRANCH   3  20
TORSDOF 6
ENDMDL
MODEL 3
REMARK VINA RESULT:      -9.3      6.052      9.751
REMARK  6 active torsions:
REMARK  status: ('A' for Active; 'I' for Inactive)
REMARK       I    between atoms: C10_14  and  N1_4 
REMARK    1  A    between atoms: C5_9  and  N1_4 
REMARK    2  A    between atoms: C1_5  and  C2_6 
REMARK    3  A    between atoms: C1_5  and  C3_7 
REMARK    4  A    between atoms: C1_5  and  C4_8 
REMARK    5  A    between atoms: C2_6  and  C5_9 
REMARK    6  A    between atoms: C10_14  and  C15_19 
ROOT
HETATM    1  O2  UNK     1      26.995  -8.964  39.765  1.00  0.00    -0.267 OA
HETATM    2  N1  UNK     1      25.533  -7.499  38.694  1.00  0.00    -0.357 N 
HETATM    3  C10 UNK     1      26.764  -7.919  39.162  1.00  0.00     0.257 C 
HETATM    4  H10 UNK     1      25.449  -6.626  38.183  1.00  0.00     0.162 HD
ENDROOT
BRANCH   2   5
HETATM    5  C5  UNK     1      24.321  -8.269  38.864  1.00  0.00     0.124 C 
BRANCH   5   6
HETATM    6  C2  UNK     1      23.064  -7.396  38.865  1.00  0.00     0.034 C 
BRANCH   6   7
HETATM    7  C1  UNK     1      22.075  -7.701  37.709  1.00  0.00     0.053 C 
BRANCH   7   8
HETATM    8  C3  UNK     1      21.283  -6.477  37.256  1.00  0.00    -0.050 A 
HETATM    9  C6  UNK     1      21.438  -5.295  37.946  1.00  0.00     0.008 A 
HETATM   10  C11 UNK     1      20.715  -4.177  37.532  1.00  0.00     0.001 A 
HETATM   11  C16 UNK     1      19.854  -4.269  36.438  1.00  0.00     0.000 A 
HETATM   12  C13 UNK     1      19.716  -5.479  35.759  1.00  0.00     0.001 A 
HETATM   13  C8  UNK     1      20.440  -6.598  36.173  1.00  0.00     0.008 A 
ENDBRANCH   7   8
BRANCH   7  14
HETATM   14  C4  UNK     1      21.154  -8.881  37.992  1.00  0.00    -0.050 A 
HETATM   15  C7  UNK     1      20.342  -8.840  39.107  1.00  0.00     0.008 A 
HETATM   16  C12 UNK     1      19.499  -9.920  39.367  1.00  0.00     0.001 A 
HETATM   17  C17 UNK     1      19.486 -11.017  38.505  1.00  0.00     0.000 A 
HETATM   18  C14 UNK     1      20.316 -11.034  37.384  1.00  0.00     0.001 A 
HETATM   19  C9  UNK     1      21.159  -9.953  37.124  1.00  0.00     0.008 A 
ENDBRANCH   7  14
ENDBRANCH   6   7
ENDBRANCH   5   6
ENDBRANCH   2   5
BRANCH   3  20
HETATM   20  C15 UNK     1      27.841  -6.966  38.865  1.00  0.00     0.108 A 
HETATM   21  C18 UNK     1      29.063  -7.488  38.700  1.00  0.00     0.037 A 
HETATM   22  C19 UNK     1      30.195  -6.625  38.404  1.00  0.00    -0.001 A 
HETATM   23  C20 UNK     1      29.985  -5.254  38.294  1.00  0.00     0.089 A 
HETATM   24  C22 UNK     1      31.487  -7.125  38.223  1.00  0.00     0.014 A 
HETATM   25  O1  UNK     1      28.698  -4.711  38.469  1.00  0.00    -0.274 OA
HETATM   26  C23 UNK     1      31.027  -4.372  38.012  1.00  0.00     0.038 A 
HETATM   27  C21 UNK     1      27.595  -5.512  38.754  1.00  0.00     0.304 A 
HETATM   28  O3  UNK     1      26.478  -5.029  38.905  1.00  0.00    -0.259 OA
HETATM   29  C25 UNK     1      32.312  -4.880  37.835  1.00  0.00     0.003 A 
HETATM   30  C24 UNK     1      32.542  -6.253  37.939  1.00  0.00     0.001 A 
ENDBRANCH   3  20
TORSDOF 6
ENDMDL
MODEL 4
REMARK VINA RESULT:      -9.2      6.382     11.688
REMARK  6 active torsions:
REMARK  status: ('A' for Active; 'I' for Inactive)
REMARK       I    between atoms: C10_14  and  N1_4 
REMARK    1  A    between atoms: C5_9  and  N1_4 
REMARK    2  A    between atoms: C1_5  and  C2_6 
REMARK    3  A    between atoms: C1_5  and  C3_7 
REMARK    4  A    between atoms: C1_5  and  C4_8 
REMARK    5  A    between atoms: C2_6  and  C5_9 
REMARK    6  A    between atoms: C10_14  and  C15_19 
ROOT
HETATM    1  O2  UNK     1      17.381   3.523  32.280  1.00  0.00    -0.267 OA
HETATM    2  N1  UNK     1      19.050   4.717  31.174  1.00  0.00    -0.357 N 
HETATM    3  C10 UNK     1      18.305   3.591  31.472  1.00  0.00     0.257 C 
HETATM    4  H10 UNK     1      19.780   4.677  30.470  1.00  0.00     0.162 HD
ENDROOT
BRANCH   2   5
HETATM    5  C5  UNK     1      18.822   6.000  31.799  1.00  0.00     0.124 C 
BRANCH   5   6
HETATM    6  C2  UNK     1      18.891   5.931  33.327  1.00  0.00     0.034 C 
BRANCH   6   7
HETATM    7  C1  UNK     1      18.014   6.986  34.053  1.00  0.00     0.053 C 
BRANCH   7   8
HETATM    8  C3  UNK     1      16.596   7.074  33.496  1.00  0.00    -0.050 A 
HETATM    9  C6  UNK     1      16.401   6.888  32.145  1.00  0.00     0.008 A 
HETATM   10  C11 UNK     1      15.105   6.968  31.637  1.00  0.00     0.001 A 
HETATM   11  C16 UNK     1      14.035   7.232  32.493  1.00  0.00     0.000 A 
HETATM   12  C13 UNK     1      14.262   7.415  33.857  1.00  0.00     0.001 A 
HETATM   13  C8  UNK     1      15.559   7.336  34.365  1.00  0.00     0.008 A 
ENDBRANCH   7   8
BRANCH   7  14
HETATM   14  C4  UNK     1      18.662   8.363  34.134  1.00  0.00    -0.050 A 
HETATM   15  C7  UNK     1      20.012   8.449  34.407  1.00  0.00     0.008 A 
HETATM   16  C12 UNK     1      20.605   9.709  34.482  1.00  0.00     0.001 A 
HETATM   17  C17 UNK     1      19.834  10.854  34.282  1.00  0.00     0.000 A 
HETATM   18  C14 UNK     1      18.471  10.740  34.008  1.00  0.00     0.001 A 
HETATM   19  C9  UNK     1      17.878   9.479  33.933  1.00  0.00     0.008 A 
ENDBRANCH   7  14
ENDBRANCH   6   7
ENDBRANCH   5   6
ENDBRANCH   2   5
BRANCH   3  20
HETATM   20  C15 UNK     1      18.724   2.411  30.706  1.00  0.00     0.108 A 
HETATM   21  C18 UNK     1      19.159   1.366  31.420  1.00  0.00     0.037 A 
HETATM   22  C19 UNK     1      19.596   0.151  30.750  1.00  0.00    -0.001 A 
HETATM   23  C20 UNK     1      19.553   0.096  29.361  1.00  0.00     0.089 A 
HETATM   24  C22 UNK     1      20.056  -0.964  31.454  1.00  0.00     0.014 A 
HETATM   25  O1  UNK     1      19.095   1.199  28.615  1.00  0.00    -0.274 OA
HETATM   26  C23 UNK     1      19.957  -1.038  28.657  1.00  0.00     0.038 A 
HETATM   27  C21 UNK     1      18.670   2.375  29.228  1.00  0.00     0.304 A 
HETATM   28  O3  UNK     1      18.274   3.331  28.569  1.00  0.00    -0.259 OA
HETATM   29  C25 UNK     1      20.416  -2.144  29.368  1.00  0.00     0.003 A 
HETATM   30  C24 UNK     1      20.464  -2.109  30.764  1.00  0.00     0.001 A 
ENDBRANCH   3  20
TORSDOF 6
ENDMDL
MODEL 5
REMARK VINA RESULT:      -9.2      5.617      9.294
REMARK  6 active torsions:
REMARK  status: ('A' for Active; 'I' for Inactive)
REMARK       I    between atoms: C10_14  and  N1_4 
REMARK    1  A    between atoms: C5_9  and  N1_4 
REMARK    2  A    between atoms: C1_5  and  C2_6 
REMARK    3  A    between atoms: C1_5  and  C3_7 
REMARK    4  A    between atoms: C1_5  and  C4_8 
REMARK    5  A    between atoms: C2_6  and  C5_9 
REMARK    6  A    between atoms: C10_14  and  C15_19 
ROOT
HETATM    1  O2  UNK     1      25.842  -8.768  37.466  1.00  0.00    -0.267 OA
HETATM    2  N1  UNK     1      24.842  -7.483  39.133  1.00  0.00    -0.357 N 
HETATM    3  C10 UNK     1      25.861  -7.838  38.269  1.00  0.00     0.257 C 
HETATM    4  H10 UNK     1      24.945  -6.679  39.745  1.00  0.00     0.162 HD
ENDROOT
BRANCH   2   5
HETATM    5  C5  UNK     1      23.582  -8.188  39.198  1.00  0.00     0.124 C 
BRANCH   5   6
HETATM    6  C2  UNK     1      22.406  -7.263  39.522  1.00  0.00     0.034 C 
BRANCH   6   7
HETATM    7  C1  UNK     1      21.125  -7.547  38.693  1.00  0.00     0.053 C 
BRANCH   7   8
HETATM    8  C3  UNK     1      21.270  -8.738  37.751  1.00  0.00    -0.050 A 
HETATM    9  C6  UNK     1      20.659  -9.927  38.086  1.00  0.00     0.008 A 
HETATM   10  C11 UNK     1      20.792 -11.016  37.224  1.00  0.00     0.001 A 
HETATM   11  C16 UNK     1      21.533 -10.889  36.049  1.00  0.00     0.000 A 
HETATM   12  C13 UNK     1      22.141  -9.673  35.735  1.00  0.00     0.001 A 
HETATM   13  C8  UNK     1      22.008  -8.584  36.597  1.00  0.00     0.008 A 
ENDBRANCH   7   8
BRANCH   7  14
HETATM   14  C4  UNK     1      20.592  -6.323  37.958  1.00  0.00    -0.050 A 
HETATM   15  C7  UNK     1      19.395  -6.422  37.280  1.00  0.00     0.008 A 
HETATM   16  C12 UNK     1      18.907  -5.303  36.606  1.00  0.00     0.001 A 
HETATM   17  C17 UNK     1      19.629  -4.109  36.627  1.00  0.00     0.000 A 
HETATM   18  C14 UNK     1      20.836  -4.034  37.320  1.00  0.00     0.001 A 
HETATM   19  C9  UNK     1      21.324  -5.155  37.994  1.00  0.00     0.008 A 
ENDBRANCH   7  14
ENDBRANCH   6   7
ENDBRANCH   5   6
ENDBRANCH   2   5
BRANCH   3  20
HETATM   20  C15 UNK     1      27.038  -6.969  38.388  1.00  0.00     0.108 A 
HETATM   21  C18 UNK     1      28.229  -7.564  38.244  1.00  0.00     0.037 A 
HETATM   22  C19 UNK     1      29.454  -6.787  38.345  1.00  0.00    -0.001 A 
HETATM   23  C20 UNK     1      29.365  -5.421  38.593  1.00  0.00     0.089 A 
HETATM   24  C22 UNK     1      30.718  -7.365  38.201  1.00  0.00     0.014 A 
HETATM   25  O1  UNK     1      28.110  -4.801  38.744  1.00  0.00    -0.274 OA
HETATM   26  C23 UNK     1      30.501  -4.619  38.702  1.00  0.00     0.038 A 
HETATM   27  C21 UNK     1      26.920  -5.518  38.652  1.00  0.00     0.304 A 
HETATM   28  O3  UNK     1      25.832  -4.969  38.786  1.00  0.00    -0.259 OA
HETATM   29  C25 UNK     1      31.756  -5.204  38.557  1.00  0.00     0.003 A 
HETATM   30  C24 UNK     1      31.865  -6.574  38.306  1.00  0.00     0.001 A 
ENDBRANCH   3  20
TORSDOF 6
ENDMDL
MODEL 6
REMARK VINA RESULT:      -9.1      3.143      8.378
REMARK  6 active torsions:
REMARK  status: ('A' for Active; 'I' for Inactive)
REMARK       I    between atoms: C10_14  and  N1_4 
REMARK    1  A    between atoms: C5_9  and  N1_4 
REMARK    2  A    between atoms: C1_5  and  C2_6 
REMARK    3  A    between atoms: C1_5  and  C3_7 
REMARK    4  A    between atoms: C1_5  and  C4_8 
REMARK    5  A    between atoms: C2_6  and  C5_9 
REMARK    6  A    between atoms: C10_14  and  C15_19 
ROOT
HETATM    1  O2  UNK     1      18.280  -5.150  36.573  1.00  0.00    -0.267 OA
HETATM    2  N1  UNK     1      20.264  -4.405  37.542  1.00  0.00    -0.357 N 
HETATM    3  C10 UNK     1      19.394  -5.359  37.047  1.00  0.00     0.257 C 
HETATM    4  H10 UNK     1      21.178  -4.677  37.892  1.00  0.00     0.162 HD
ENDROOT
BRANCH   2   5
HETATM    5  C5  UNK     1      19.957  -2.993  37.562  1.00  0.00     0.124 C 
BRANCH   5   6
HETATM    6  C2  UNK     1      20.347  -2.287  36.261  1.00  0.00     0.034 C 
BRANCH   6   7
HETATM    7  C1  UNK     1      19.141  -1.844  35.389  1.00  0.00     0.053 C 
BRANCH   7   8
HETATM    8  C3  UNK     1      19.481  -1.733  33.905  1.00  0.00    -0.050 A 
HETATM    9  C6  UNK     1      18.692  -0.939  33.103  1.00  0.00     0.008 A 
HETATM   10  C11 UNK     1      19.002  -0.837  31.747  1.00  0.00     0.001 A 
HETATM   11  C16 UNK     1      20.095  -1.531  31.227  1.00  0.00     0.000 A 
HETATM   12  C13 UNK     1      20.877  -2.328  32.064  1.00  0.00     0.001 A 
HETATM   13  C8  UNK     1      20.565  -2.430  33.420  1.00  0.00     0.008 A 
ENDBRANCH   7   8
BRANCH   7  14
HETATM   14  C4  UNK     1      18.457  -0.580  35.895  1.00  0.00    -0.050 A 
HETATM   15  C7  UNK     1      17.168  -0.669  36.378  1.00  0.00     0.008 A 
HETATM   16  C12 UNK     1      16.541   0.488  36.841  1.00  0.00     0.001 A 
HETATM   17  C17 UNK     1      17.218   1.707  36.811  1.00  0.00     0.000 A 
HETATM   18  C14 UNK     1      18.522   1.769  36.319  1.00  0.00     0.001 A 
HETATM   19  C9  UNK     1      19.149   0.612  35.856  1.00  0.00     0.008 A 
ENDBRANCH   7  14
ENDBRANCH   6   7
ENDBRANCH   5   6
ENDBRANCH   2   5
BRANCH   3  20
HETATM   20  C15 UNK     1      19.933  -6.722  37.133  1.00  0.00     0.108 A 
HETATM   21  C18 UNK     1      20.382  -7.253  35.989  1.00  0.00     0.037 A 
HETATM   22  C19 UNK     1      20.934  -8.599  35.973  1.00  0.00    -0.001 A 
HETATM   23  C20 UNK     1      20.986  -9.318  37.162  1.00  0.00     0.089 A 
HETATM   24  C22 UNK     1      21.415  -9.193  34.804  1.00  0.00     0.014 A 
HETATM   25  O1  UNK     1      20.512  -8.755  38.362  1.00  0.00    -0.274 OA
HETATM   26  C23 UNK     1      21.503 -10.613  37.215  1.00  0.00     0.038 A 
HETATM   27  C21 UNK     1      19.979  -7.469  38.409  1.00  0.00     0.304 A 
HETATM   28  O3  UNK     1      19.567  -6.987  39.459  1.00  0.00    -0.259 OA
HETATM   29  C25 UNK     1      21.979 -11.197  36.044  1.00  0.00     0.003 A 
HETATM   30  C24 UNK     1      21.937 -10.489  34.841  1.00  0.00     0.001 A 
ENDBRANCH   3  20
TORSDOF 6
ENDMDL
MODEL 7
REMARK VINA RESULT:      -9.0      5.835     10.961
REMARK  6 active torsions:
REMARK  status: ('A' for Active; 'I' for Inactive)
REMARK       I    between atoms: C10_14  and  N1_4 
REMARK    1  A    between atoms: C5_9  and  N1_4 
REMARK    2  A    between atoms: C1_5  and  C2_6 
REMARK    3  A    between atoms: C1_5  and  C3_7 
REMARK    4  A    between atoms: C1_5  and  C4_8 
REMARK    5  A    between atoms: C2_6  and  C5_9 
REMARK    6  A    between atoms: C10_14  and  C15_19 
ROOT
HETATM    1  O2  UNK     1      17.184   1.625  34.192  1.00  0.00    -0.267 OA
HETATM    2  N1  UNK     1      18.359   3.518  33.508  1.00  0.00    -0.357 N 
HETATM    3  C10 UNK     1      17.948   2.201  33.420  1.00  0.00     0.257 C 
HETATM    4  H10 UNK     1      18.976   3.911  32.803  1.00  0.00     0.162 HD
ENDROOT
BRANCH   2   5
HETATM    5  C5  UNK     1      17.925   4.411  34.558  1.00  0.00     0.124 C 
BRANCH   5   6
HETATM    6  C2  UNK     1      17.534   5.794  34.031  1.00  0.00     0.034 C 
BRANCH   6   7
HETATM    7  C1  UNK     1      18.737   6.734  33.754  1.00  0.00     0.053 C 
BRANCH   7   8
HETATM    8  C3  UNK     1      18.387   8.214  33.889  1.00  0.00    -0.050 A 
HETATM    9  C6  UNK     1      19.405   9.120  34.088  1.00  0.00     0.008 A 
HETATM   10  C11 UNK     1      19.085  10.472  34.211  1.00  0.00     0.001 A 
HETATM   11  C16 UNK     1      17.754  10.884  34.130  1.00  0.00     0.000 A 
HETATM   12  C13 UNK     1      16.744   9.944  33.927  1.00  0.00     0.001 A 
HETATM   13  C8  UNK     1      17.065   8.592  33.805  1.00  0.00     0.008 A 
ENDBRANCH   7   8
BRANCH   7  14
HETATM   14  C4  UNK     1      19.440   6.451  32.432  1.00  0.00    -0.050 A 
HETATM   15  C7  UNK     1      18.695   6.443  31.271  1.00  0.00     0.008 A 
HETATM   16  C12 UNK     1      19.338   6.183  30.060  1.00  0.00     0.001 A 
HETATM   17  C17 UNK     1      20.711   5.939  30.039  1.00  0.00     0.000 A 
HETATM   18  C14 UNK     1      21.441   5.953  31.227  1.00  0.00     0.001 A 
HETATM   19  C9  UNK     1      20.798   6.213  32.438  1.00  0.00     0.008 A 
ENDBRANCH   7  14
ENDBRANCH   6   7
ENDBRANCH   5   6
ENDBRANCH   2   5
BRANCH   3  20
HETATM   20  C15 UNK     1      18.523   1.500  32.265  1.00  0.00     0.108 A 
HETATM   21  C18 UNK     1      18.975   0.261  32.491  1.00  0.00     0.037 A 
HETATM   22  C19 UNK     1      19.562  -0.514  31.410  1.00  0.00    -0.001 A 
HETATM   23  C20 UNK     1      19.644   0.054  30.143  1.00  0.00     0.089 A 
HETATM   24  C22 UNK     1      20.045  -1.811  31.600  1.00  0.00     0.014 A 
HETATM   25  O1  UNK     1      19.168   1.358  29.911  1.00  0.00    -0.274 OA
HETATM   26  C23 UNK     1      20.196  -0.635  29.064  1.00  0.00     0.038 A 
HETATM   27  C21 UNK     1      18.600   2.125  30.926  1.00  0.00     0.304 A 
HETATM   28  O3  UNK     1      18.189   3.260  30.714  1.00  0.00    -0.259 OA
HETATM   29  C25 UNK     1      20.677  -1.927  29.263  1.00  0.00     0.003 A 
HETATM   30  C24 UNK     1      20.601  -2.515  30.527  1.00  0.00     0.001 A 
ENDBRANCH   3  20
TORSDOF 6
ENDMDL
MODEL 8
REMARK VINA RESULT:      -9.0      5.222     10.148
REMARK  6 active torsions:
REMARK  status: ('A' for Active; 'I' for Inactive)
REMARK       I    between atoms: C10_14  and  N1_4 
REMARK    1  A    between atoms: C5_9  and  N1_4 
REMARK    2  A    between atoms: C1_5  and  C2_6 
REMARK    3  A    between atoms: C1_5  and  C3_7 
REMARK    4  A    between atoms: C1_5  and  C4_8 
REMARK    5  A    between atoms: C2_6  and  C5_9 
REMARK    6  A    between atoms: C10_14  and  C15_19 
ROOT
HETATM    1  O2  UNK     1      16.837   1.329  34.322  1.00  0.00    -0.267 OA
HETATM    2  N1  UNK     1      18.883   2.446  34.312  1.00  0.00    -0.357 N 
HETATM    3  C10 UNK     1      18.018   1.417  33.991  1.00  0.00     0.257 C 
HETATM    4  H10 UNK     1      19.838   2.439  33.969  1.00  0.00     0.162 HD
ENDROOT
BRANCH   2   5
HETATM    5  C5  UNK     1      18.489   3.588  35.107  1.00  0.00     0.124 C 
BRANCH   5   6
HETATM    6  C2  UNK     1      17.876   4.708  34.262  1.00  0.00     0.034 C 
BRANCH   6   7
HETATM    7  C1  UNK     1      18.917   5.579  33.508  1.00  0.00     0.053 C 
BRANCH   7   8
HETATM    8  C3  UNK     1      18.723   7.076  33.732  1.00  0.00    -0.050 A 
HETATM    9  C6  UNK     1      17.494   7.634  33.458  1.00  0.00     0.008 A 
HETATM   10  C11 UNK     1      17.316   9.002  33.663  1.00  0.00     0.001 A 
HETATM   11  C16 UNK     1      18.374   9.779  34.138  1.00  0.00     0.000 A 
HETATM   12  C13 UNK     1      19.608   9.187  34.407  1.00  0.00     0.001 A 
HETATM   13  C8  UNK     1      19.784   7.818  34.201  1.00  0.00     0.008 A 
ENDBRANCH   7   8
BRANCH   7  14
HETATM   14  C4  UNK     1      19.021   5.252  32.023  1.00  0.00    -0.050 A 
HETATM   15  C7  UNK     1      18.331   4.163  31.531  1.00  0.00     0.008 A 
HETATM   16  C12 UNK     1      18.427   3.863  30.172  1.00  0.00     0.001 A 
HETATM   17  C17 UNK     1      19.210   4.660  29.337  1.00  0.00     0.000 A 
HETATM   18  C14 UNK     1      19.897   5.755  29.859  1.00  0.00     0.001 A 
HETATM   19  C9  UNK     1      19.801   6.055  31.219  1.00  0.00     0.008 A 
ENDBRANCH   7  14
ENDBRANCH   6   7
ENDBRANCH   5   6
ENDBRANCH   2   5
BRANCH   3  20
HETATM   20  C15 UNK     1      18.650   0.374  33.174  1.00  0.00     0.108 A 
HETATM   21  C18 UNK     1      18.976   0.719  31.923  1.00  0.00     0.037 A 
HETATM   22  C19 UNK     1      19.607  -0.245  31.036  1.00  0.00    -0.001 A 
HETATM   23  C20 UNK     1      19.864  -1.527  31.511  1.00  0.00     0.089 A 
HETATM   24  C22 UNK     1      19.965   0.071  29.724  1.00  0.00     0.014 A 
HETATM   25  O1  UNK     1      19.519  -1.886  32.828  1.00  0.00    -0.274 OA
HETATM   26  C23 UNK     1      20.466  -2.499  30.713  1.00  0.00     0.038 A 
HETATM   27  C21 UNK     1      18.914  -0.984  33.700  1.00  0.00     0.304 A 
HETATM   28  O3  UNK     1      18.616  -1.305  34.845  1.00  0.00    -0.259 OA
HETATM   29  C25 UNK     1      20.819  -2.174  29.405  1.00  0.00     0.003 A 
HETATM   30  C24 UNK     1      20.570  -0.892  28.911  1.00  0.00     0.001 A 
ENDBRANCH   3  20
TORSDOF 6
ENDMDL
MODEL 9
REMARK VINA RESULT:      -8.9      6.064     10.126
REMARK  6 active torsions:
REMARK  status: ('A' for Active; 'I' for Inactive)
REMARK       I    between atoms: C10_14  and  N1_4 
REMARK    1  A    between atoms: C5_9  and  N1_4 
REMARK    2  A    between atoms: C1_5  and  C2_6 
REMARK    3  A    between atoms: C1_5  and  C3_7 
REMARK    4  A    between atoms: C1_5  and  C4_8 
REMARK    5  A    between atoms: C2_6  and  C5_9 
REMARK    6  A    between atoms: C10_14  and  C15_19 
ROOT
HETATM    1  O2  UNK     1      19.342   5.479  33.617  1.00  0.00    -0.267 OA
HETATM    2  N1  UNK     1      18.481   5.667  31.459  1.00  0.00    -0.357 N 
HETATM    3  C10 UNK     1      18.675   6.067  32.768  1.00  0.00     0.257 C 
HETATM    4  H10 UNK     1      17.930   6.237  30.825  1.00  0.00     0.162 HD
ENDROOT
BRANCH   2   5
HETATM    5  C5  UNK     1      19.062   4.463  30.909  1.00  0.00     0.124 C 
BRANCH   5   6
HETATM    6  C2  UNK     1      18.236   3.213  31.226  1.00  0.00     0.034 C 
BRANCH   6   7
HETATM    7  C1  UNK     1      19.083   1.971  31.611  1.00  0.00     0.053 C 
BRANCH   7   8
HETATM    8  C3  UNK     1      19.334   1.028  30.438  1.00  0.00    -0.050 A 
HETATM    9  C6  UNK     1      18.495   1.089  29.347  1.00  0.00     0.008 A 
HETATM   10  C11 UNK     1      18.725   0.228  28.274  1.00  0.00     0.001 A 
HETATM   11  C16 UNK     1      19.789  -0.673  28.319  1.00  0.00     0.000 A 
HETATM   12  C13 UNK     1      20.622  -0.714  29.437  1.00  0.00     0.001 A 
HETATM   13  C8  UNK     1      20.392   0.148  30.510  1.00  0.00     0.008 A 
ENDBRANCH   7   8
BRANCH   7  14
HETATM   14  C4  UNK     1      18.542   1.216  32.819  1.00  0.00    -0.050 A 
HETATM   15  C7  UNK     1      18.615  -0.162  32.831  1.00  0.00     0.008 A 
HETATM   16  C12 UNK     1      18.119  -0.853  33.937  1.00  0.00     0.001 A 
HETATM   17  C17 UNK     1      17.562  -0.150  35.005  1.00  0.00     0.000 A 
HETATM   18  C14 UNK     1      17.500   1.243  34.969  1.00  0.00     0.001 A 
HETATM   19  C9  UNK     1      17.997   1.934  33.863  1.00  0.00     0.008 A 
ENDBRANCH   7  14
ENDBRANCH   6   7
ENDBRANCH   5   6
ENDBRANCH   2   5
BRANCH   3  20
HETATM   20  C15 UNK     1      17.985   7.323  33.089  1.00  0.00     0.108 A 
HETATM   21  C18 UNK     1      18.764   8.349  33.454  1.00  0.00     0.037 A 
HETATM   22  C19 UNK     1      18.173   9.634  33.791  1.00  0.00    -0.001 A 
HETATM   23  C20 UNK     1      16.791   9.776  33.727  1.00  0.00     0.089 A 
HETATM   24  C22 UNK     1      18.946  10.732  34.177  1.00  0.00     0.014 A 
HETATM   25  O1  UNK     1      15.977   8.694  33.342  1.00  0.00    -0.274 OA
HETATM   26  C23 UNK     1      16.161  10.981  34.037  1.00  0.00     0.038 A 
HETATM   27  C21 UNK     1      16.513   7.452  33.013  1.00  0.00     0.304 A 
HETATM   28  O3  UNK     1      15.796   6.515  32.680  1.00  0.00    -0.259 OA
HETATM   29  C25 UNK     1      16.941  12.070  34.422  1.00  0.00     0.003 A 
HETATM   30  C24 UNK     1      18.330  11.946  34.491  1.00  0.00     0.001 A 
ENDBRANCH   3  20
TORSDOF 6
ENDMDL
MODEL 10
REMARK VINA RESULT:      -8.9     11.211     13.520
REMARK  6 active torsions:
REMARK  status: ('A' for Active; 'I' for Inactive)
REMARK       I    between atoms: C10_14  and  N1_4 
REMARK    1  A    between atoms: C5_9  and  N1_4 
REMARK    2  A    between atoms: C1_5  and  C2_6 
REMARK    3  A    between atoms: C1_5  and  C3_7 
REMARK    4  A    between atoms: C1_5  and  C4_8 
REMARK    5  A    between atoms: C2_6  and  C5_9 
REMARK    6  A    between atoms: C10_14  and  C15_19 
ROOT
HETATM    1  O2  UNK     1      33.876  -7.239  32.067  1.00  0.00    -0.267 OA
HETATM    2  N1  UNK     1      32.518  -8.430  33.541  1.00  0.00    -0.357 N 
HETATM    3  C10 UNK     1      32.959  -8.026  32.294  1.00  0.00     0.257 C 
HETATM    4  H10 UNK     1      31.765  -9.106  33.624  1.00  0.00     0.162 HD
ENDROOT
BRANCH   2   5
HETATM    5  C5  UNK     1      33.105  -7.959  34.775  1.00  0.00     0.124 C 
BRANCH   5   6
HETATM    6  C2  UNK     1      32.470  -6.656  35.268  1.00  0.00     0.034 C 
BRANCH   6   7
HETATM    7  C1  UNK     1      30.931  -6.729  35.458  1.00  0.00     0.053 C 
BRANCH   7   8
HETATM    8  C3  UNK     1      30.152  -6.264  34.230  1.00  0.00    -0.050 A 
HETATM    9  C6  UNK     1      30.774  -5.431  33.327  1.00  0.00     0.008 A 
HETATM   10  C11 UNK     1      30.063  -5.006  32.205  1.00  0.00     0.001 A 
HETATM   11  C16 UNK     1      28.746  -5.426  32.014  1.00  0.00     0.000 A 
HETATM   12  C13 UNK     1      28.141  -6.270  32.946  1.00  0.00     0.001 A 
HETATM   13  C8  UNK     1      28.854  -6.694  34.068  1.00  0.00     0.008 A 
ENDBRANCH   7   8
BRANCH   7  14
HETATM   14  C4  UNK     1      30.440  -6.033  36.720  1.00  0.00    -0.050 A 
HETATM   15  C7  UNK     1      29.773  -6.775  37.674  1.00  0.00     0.008 A 
HETATM   16  C12 UNK     1      29.322  -6.137  38.829  1.00  0.00     0.001 A 
HETATM   17  C17 UNK     1      29.550  -4.772  39.005  1.00  0.00     0.000 A 
HETATM   18  C14 UNK     1      30.227  -4.045  38.027  1.00  0.00     0.001 A 
HETATM   19  C9  UNK     1      30.677  -4.683  36.870  1.00  0.00     0.008 A 
ENDBRANCH   7  14
ENDBRANCH   6   7
ENDBRANCH   5   6
ENDBRANCH   2   5
BRANCH   3  20
HETATM   20  C15 UNK     1      32.207  -8.644  31.195  1.00  0.00     0.108 A 
HETATM   21  C18 UNK     1      30.883  -8.445  31.199  1.00  0.00     0.037 A 
HETATM   22  C19 UNK     1      30.052  -9.017  30.152  1.00  0.00    -0.001 A 
HETATM   23  C20 UNK     1      30.656  -9.772  29.151  1.00  0.00     0.089 A 
HETATM   24  C22 UNK     1      28.668  -8.835  30.115  1.00  0.00     0.014 A 
HETATM   25  O1  UNK     1      32.049  -9.978  29.152  1.00  0.00    -0.274 OA
HETATM   26  C23 UNK     1      29.917 -10.349  28.119  1.00  0.00     0.038 A 
HETATM   27  C21 UNK     1      32.870  -9.443  30.142  1.00  0.00     0.304 A 
HETATM   28  O3  UNK     1      34.082  -9.629  30.134  1.00  0.00    -0.259 OA
HETATM   29  C25 UNK     1      28.537 -10.162  28.092  1.00  0.00     0.003 A 
HETATM   30  C24 UNK     1      27.913  -9.406  29.087  1.00  0.00     0.001 A 
ENDBRANCH   3  20
TORSDOF 6
ENDMDL
