MODEL 1
REMARK VINA RESULT:      -8.2      0.000      0.000
REMARK  5 active torsions:
REMARK  status: ('A' for Active; 'I' for Inactive)
REMARK    1  A    between atoms: C4_12  and  O1_3 
REMARK    2  A    between atoms: C6_14  and  O2_4 
REMARK    3  A    between atoms: C2_10  and  N1_7 
REMARK    4  A    between atoms: C1_9  and  C5_13 
REMARK    5  A    between atoms: C8_16  and  C9_17 
ROOT
HETATM    1  N2  UNK     1      20.083   5.801  30.094  1.00  0.00    -0.191 NA
HETATM    2  C5  UNK     1      18.237   5.173  31.797  1.00  0.00     0.058 C 
HETATM    3  C8  UNK     1      17.824   3.885  31.880  1.00  0.00     0.036 C 
HETATM    4  C15 UNK     1      19.257   5.519  30.857  1.00  0.00     0.100 C 
ENDROOT
BRANCH   2   5
HETATM    5  C1  UNK     1      17.671   6.247  32.638  1.00  0.00     0.021 A 
HETATM    6  C2  UNK     1      18.437   6.880  33.603  1.00  0.00     0.117 A 
HETATM    7  C7  UNK     1      17.865   7.890  34.376  1.00  0.00     0.076 A 
HETATM    8  C6  UNK     1      16.534   8.254  34.175  1.00  0.00     0.103 A 
HETATM    9  C4  UNK     1      15.775   7.609  33.198  1.00  0.00     0.102 A 
HETATM   10  C3  UNK     1      16.347   6.599  32.425  1.00  0.00     0.055 A 
BRANCH   6  11
HETATM   11  N1  UNK     1      19.798   6.532  33.836  1.00  0.00    -0.115 N 
HETATM   12  O3  UNK     1      20.699   7.276  33.380  1.00  0.00    -0.532 OA
HETATM   13  O4  UNK     1      20.053   5.494  34.489  1.00  0.00    -0.532 OA
ENDBRANCH   6  11
BRANCH   8  14
HETATM   14  O2  UNK     1      15.986   9.242  34.936  1.00  0.00    -0.353 OA
HETATM   15  C17 UNK     1      16.243  10.586  34.537  1.00  0.00     0.210 C 
ENDBRANCH   8  14
BRANCH   9  16
HETATM   16  O1  UNK     1      14.474   7.956  32.991  1.00  0.00    -0.353 OA
HETATM   17  C16 UNK     1      13.740   7.182  32.045  1.00  0.00     0.210 C 
ENDBRANCH   9  16
ENDBRANCH   2   5
BRANCH   3  18
HETATM   18  C9  UNK     1      18.314   2.759  31.093  1.00  0.00    -0.013 A 
HETATM   19  C10 UNK     1      18.711   1.559  31.681  1.00  0.00     0.045 A 
HETATM   20 Cl1  UNK     1      18.652   1.317  33.393  1.00  0.00    -0.083 Cl
HETATM   21  C12 UNK     1      19.171   0.510  30.885  1.00  0.00     0.048 A 
HETATM   22  C14 UNK     1      19.235   0.663  29.500  1.00  0.00     0.035 A 
HETATM   23  C13 UNK     1      18.838   1.864  28.911  1.00  0.00     0.024 A 
HETATM   24 Cl2  UNK     1      19.805  -0.628  28.516  1.00  0.00    -0.084 Cl
HETATM   25  C11 UNK     1      18.377   2.912  29.708  1.00  0.00     0.015 A 
ENDBRANCH   3  18
TORSDOF 5
ENDMDL
MODEL 2
REMARK VINA RESULT:      -7.8      3.535      7.363
REMARK  5 active torsions:
REMARK  status: ('A' for Active; 'I' for Inactive)
REMARK    1  A    between atoms: C4_12  and  O1_3 
REMARK    2  A    between atoms: C6_14  and  O2_4 
REMARK    3  A    between atoms: C2_10  and  N1_7 
REMARK    4  A    between atoms: C1_9  and  C5_13 
REMARK    5  A    between atoms: C8_16  and  C9_17 
ROOT
HETATM    1  N2  UNK     1      20.287   7.294  33.781  1.00  0.00    -0.191 NA
HETATM    2  C5  UNK     1      18.191   6.174  32.754  1.00  0.00     0.058 C 
HETATM    3  C8  UNK     1      17.001   6.817  32.814  1.00  0.00     0.036 C 
HETATM    4  C15 UNK     1      19.348   6.793  33.321  1.00  0.00     0.100 C 
ENDROOT
BRANCH   2   5
HETATM    5  C1  UNK     1      18.348   4.844  32.129  1.00  0.00     0.021 A 
HETATM    6  C2  UNK     1      18.742   4.716  30.808  1.00  0.00     0.117 A 
HETATM    7  C7  UNK     1      18.878   3.442  30.256  1.00  0.00     0.076 A 
HETATM    8  C6  UNK     1      18.618   2.313  31.032  1.00  0.00     0.103 A 
HETATM    9  C4  UNK     1      18.222   2.458  32.362  1.00  0.00     0.102 A 
HETATM   10  C3  UNK     1      18.086   3.732  32.914  1.00  0.00     0.055 A 
BRANCH   6  11
HETATM   11  N1  UNK     1      19.014   5.846  29.987  1.00  0.00    -0.115 N 
HETATM   12  O3  UNK     1      18.051   6.501  29.521  1.00  0.00    -0.532 OA
HETATM   13  O4  UNK     1      20.207   6.151  29.754  1.00  0.00    -0.532 OA
ENDBRANCH   6  11
BRANCH   8  14
HETATM   14  O2  UNK     1      18.754   1.075  30.482  1.00  0.00    -0.353 OA
HETATM   15  C17 UNK     1      19.004   1.012  29.080  1.00  0.00     0.210 C 
ENDBRANCH   8  14
BRANCH   9  16
HETATM   16  O1  UNK     1      17.966   1.363  33.131  1.00  0.00    -0.353 OA
HETATM   17  C16 UNK     1      18.029   1.536  34.545  1.00  0.00     0.210 C 
ENDBRANCH   9  16
ENDBRANCH   2   5
BRANCH   3  18
HETATM   18  C9  UNK     1      16.743   8.123  33.411  1.00  0.00    -0.013 A 
HETATM   19  C10 UNK     1      15.517   8.446  33.991  1.00  0.00     0.045 A 
HETATM   20 Cl1  UNK     1      14.207   7.318  34.045  1.00  0.00    -0.083 Cl
HETATM   21  C12 UNK     1      15.320   9.708  34.551  1.00  0.00     0.048 A 
HETATM   22  C14 UNK     1      16.351  10.648  34.529  1.00  0.00     0.035 A 
HETATM   23  C13 UNK     1      17.578  10.326  33.948  1.00  0.00     0.024 A 
HETATM   24 Cl2  UNK     1      16.110  12.207  35.216  1.00  0.00    -0.084 Cl
HETATM   25  C11 UNK     1      17.774   9.062  33.389  1.00  0.00     0.015 A 
ENDBRANCH   3  18
TORSDOF 5
ENDMDL
MODEL 3
REMARK VINA RESULT:      -7.7     10.191     13.920
REMARK  5 active torsions:
REMARK  status: ('A' for Active; 'I' for Inactive)
REMARK    1  A    between atoms: C4_12  and  O1_3 
REMARK    2  A    between atoms: C6_14  and  O2_4 
REMARK    3  A    between atoms: C2_10  and  N1_7 
REMARK    4  A    between atoms: C1_9  and  C5_13 
REMARK    5  A    between atoms: C8_16  and  C9_17 
ROOT
HETATM    1  N2  UNK     1      17.340  -5.772  36.813  1.00  0.00    -0.191 NA
HETATM    2  C5  UNK     1      19.906  -5.463  36.650  1.00  0.00     0.058 C 
HETATM    3  C8  UNK     1      20.418  -4.211  36.583  1.00  0.00     0.036 C 
HETATM    4  C15 UNK     1      18.489  -5.632  36.741  1.00  0.00     0.100 C 
ENDROOT
BRANCH   2   5
HETATM    5  C1  UNK     1      20.752  -6.673  36.627  1.00  0.00     0.021 A 
HETATM    6  C2  UNK     1      20.866  -7.446  35.483  1.00  0.00     0.117 A 
HETATM    7  C7  UNK     1      21.676  -8.581  35.502  1.00  0.00     0.076 A 
HETATM    8  C6  UNK     1      22.361  -8.930  36.665  1.00  0.00     0.103 A 
HETATM    9  C4  UNK     1      22.238  -8.142  37.810  1.00  0.00     0.102 A 
HETATM   10  C3  UNK     1      21.428  -7.006  37.790  1.00  0.00     0.055 A 
BRANCH   6  11
HETATM   11  N1  UNK     1      20.179  -7.120  34.279  1.00  0.00    -0.115 N 
HETATM   12  O3  UNK     1      20.810  -6.548  33.359  1.00  0.00    -0.532 OA
HETATM   13  O4  UNK     1      18.966  -7.414  34.178  1.00  0.00    -0.532 OA
ENDBRANCH   6  11
BRANCH   8  14
HETATM   14  O2  UNK     1      23.149 -10.041  36.673  1.00  0.00    -0.353 OA
HETATM   15  C17 UNK     1      22.806 -11.085  35.764  1.00  0.00     0.210 C 
ENDBRANCH   8  14
BRANCH   9  16
HETATM   16  O1  UNK     1      22.903  -8.471  38.952  1.00  0.00    -0.353 OA
HETATM   17  C16 UNK     1      22.484  -7.828  40.154  1.00  0.00     0.210 C 
ENDBRANCH   9  16
ENDBRANCH   2   5
BRANCH   3  18
HETATM   18  C9  UNK     1      19.670  -2.959  36.593  1.00  0.00    -0.013 A 
HETATM   19  C10 UNK     1      19.555  -2.153  35.461  1.00  0.00     0.045 A 
HETATM   20 Cl1  UNK     1      20.296  -2.579  33.958  1.00  0.00    -0.083 Cl
HETATM   21  C12 UNK     1      18.827  -0.965  35.521  1.00  0.00     0.048 A 
HETATM   22  C14 UNK     1      18.213  -0.584  36.715  1.00  0.00     0.035 A 
HETATM   23  C13 UNK     1      18.328  -1.389  37.847  1.00  0.00     0.024 A 
HETATM   24 Cl2  UNK     1      17.316   0.883  36.792  1.00  0.00    -0.084 Cl
HETATM   25  C11 UNK     1      19.056  -2.578  37.786  1.00  0.00     0.015 A 
ENDBRANCH   3  18
TORSDOF 5
ENDMDL
MODEL 4
REMARK VINA RESULT:      -7.7     22.372     24.218
REMARK  5 active torsions:
REMARK  status: ('A' for Active; 'I' for Inactive)
REMARK    1  A    between atoms: C4_12  and  O1_3 
REMARK    2  A    between atoms: C6_14  and  O2_4 
REMARK    3  A    between atoms: C2_10  and  N1_7 
REMARK    4  A    between atoms: C1_9  and  C5_13 
REMARK    5  A    between atoms: C8_16  and  C9_17 
ROOT
HETATM    1  N2  UNK     1      13.971   9.546  11.955  1.00  0.00    -0.191 NA
HETATM    2  C5  UNK     1      13.648   8.621   9.558  1.00  0.00     0.058 C 
HETATM    3  C8  UNK     1      14.474   9.042   8.570  1.00  0.00     0.036 C 
HETATM    4  C15 UNK     1      13.828   9.132  10.881  1.00  0.00     0.100 C 
ENDROOT
BRANCH   2   5
HETATM    5  C1  UNK     1      12.556   7.655   9.326  1.00  0.00     0.021 A 
HETATM    6  C2  UNK     1      12.804   6.292   9.278  1.00  0.00     0.117 A 
HETATM    7  C7  UNK     1      11.744   5.412   9.057  1.00  0.00     0.076 A 
HETATM    8  C6  UNK     1      10.451   5.906   8.886  1.00  0.00     0.103 A 
HETATM    9  C4  UNK     1      10.217   7.280   8.937  1.00  0.00     0.102 A 
HETATM   10  C3  UNK     1      11.276   8.160   9.159  1.00  0.00     0.055 A 
BRANCH   6  11
HETATM   11  N1  UNK     1      14.111   5.755   9.447  1.00  0.00    -0.115 N 
HETATM   12  O3  UNK     1      14.785   5.474   8.428  1.00  0.00    -0.532 OA
HETATM   13  O4  UNK     1      14.546   5.579  10.609  1.00  0.00    -0.532 OA
ENDBRANCH   6  11
BRANCH   8  14
HETATM   14  O2  UNK     1       9.425   5.037   8.670  1.00  0.00    -0.353 OA
HETATM   15  C17 UNK     1       8.735   4.550   9.819  1.00  0.00     0.210 C 
ENDBRANCH   8  14
BRANCH   9  16
HETATM   16  O1  UNK     1       8.958   7.775   8.772  1.00  0.00    -0.353 OA
HETATM   17  C16 UNK     1       8.355   8.402   9.901  1.00  0.00     0.210 C 
ENDBRANCH   9  16
ENDBRANCH   2   5
BRANCH   3  18
HETATM   18  C9  UNK     1      15.572   9.994   8.696  1.00  0.00    -0.013 A 
HETATM   19  C10 UNK     1      16.787   9.653   9.291  1.00  0.00     0.045 A 
HETATM   20 Cl1  UNK     1      17.080   8.071   9.924  1.00  0.00    -0.083 Cl
HETATM   21  C12 UNK     1      17.806  10.599   9.387  1.00  0.00     0.048 A 
HETATM   22  C14 UNK     1      17.611  11.888   8.888  1.00  0.00     0.035 A 
HETATM   23  C13 UNK     1      16.397  12.229   8.294  1.00  0.00     0.024 A 
HETATM   24 Cl2  UNK     1      18.868  13.057   9.008  1.00  0.00    -0.084 Cl
HETATM   25  C11 UNK     1      15.376  11.282   8.198  1.00  0.00     0.015 A 
ENDBRANCH   3  18
TORSDOF 5
ENDMDL
MODEL 5
REMARK VINA RESULT:      -7.5     22.491     24.125
REMARK  5 active torsions:
REMARK  status: ('A' for Active; 'I' for Inactive)
REMARK    1  A    between atoms: C4_12  and  O1_3 
REMARK    2  A    between atoms: C6_14  and  O2_4 
REMARK    3  A    between atoms: C2_10  and  N1_7 
REMARK    4  A    between atoms: C1_9  and  C5_13 
REMARK    5  A    between atoms: C8_16  and  C9_17 
ROOT
HETATM    1  N2  UNK     1      12.153   9.248  11.232  1.00  0.00    -0.191 NA
HETATM    2  C5  UNK     1      13.695   8.641   9.242  1.00  0.00     0.058 C 
HETATM    3  C8  UNK     1      13.250   7.774   8.301  1.00  0.00     0.036 C 
HETATM    4  C15 UNK     1      12.842   8.976  10.340  1.00  0.00     0.100 C 
ENDROOT
BRANCH   2   5
HETATM    5  C1  UNK     1      15.036   9.256   9.188  1.00  0.00     0.021 A 
HETATM    6  C2  UNK     1      16.091   8.740   9.923  1.00  0.00     0.117 A 
HETATM    7  C7  UNK     1      17.342   9.351   9.845  1.00  0.00     0.076 A 
HETATM    8  C6  UNK     1      17.523  10.469   9.032  1.00  0.00     0.103 A 
HETATM    9  C4  UNK     1      16.453  10.977   8.296  1.00  0.00     0.102 A 
HETATM   10  C3  UNK     1      15.201  10.366   8.375  1.00  0.00     0.055 A 
BRANCH   6  11
HETATM   11  N1  UNK     1      15.940   7.602  10.764  1.00  0.00    -0.115 N 
HETATM   12  O3  UNK     1      15.597   7.773  11.958  1.00  0.00    -0.532 OA
HETATM   13  O4  UNK     1      16.156   6.464  10.285  1.00  0.00    -0.532 OA
ENDBRANCH   6  11
BRANCH   8  14
HETATM   14  O2  UNK     1      18.750  11.057   8.963  1.00  0.00    -0.353 OA
HETATM   15  C17 UNK     1      19.130  11.894  10.053  1.00  0.00     0.210 C 
ENDBRANCH   8  14
BRANCH   9  16
HETATM   16  O1  UNK     1      16.616  12.069   7.497  1.00  0.00    -0.353 OA
HETATM   17  C16 UNK     1      15.473  12.894   7.284  1.00  0.00     0.210 C 
ENDBRANCH   9  16
ENDBRANCH   2   5
BRANCH   3  18
HETATM   18  C9  UNK     1      11.950   7.112   8.269  1.00  0.00    -0.013 A 
HETATM   19  C10 UNK     1      11.674   5.979   9.035  1.00  0.00     0.045 A 
HETATM   20 Cl1  UNK     1      12.856   5.275  10.082  1.00  0.00    -0.083 Cl
HETATM   21  C12 UNK     1      10.415   5.383   8.969  1.00  0.00     0.048 A 
HETATM   22  C14 UNK     1       9.432   5.919   8.137  1.00  0.00     0.035 A 
HETATM   23  C13 UNK     1       9.708   7.051   7.370  1.00  0.00     0.024 A 
HETATM   24 Cl2  UNK     1       7.879   5.183   8.053  1.00  0.00    -0.084 Cl
HETATM   25  C11 UNK     1      10.968   7.648   7.436  1.00  0.00     0.015 A 
ENDBRANCH   3  18
TORSDOF 5
ENDMDL
MODEL 6
REMARK VINA RESULT:      -7.4      1.724      2.362
REMARK  5 active torsions:
REMARK  status: ('A' for Active; 'I' for Inactive)
REMARK    1  A    between atoms: C4_12  and  O1_3 
REMARK    2  A    between atoms: C6_14  and  O2_4 
REMARK    3  A    between atoms: C2_10  and  N1_7 
REMARK    4  A    between atoms: C1_9  and  C5_13 
REMARK    5  A    between atoms: C8_16  and  C9_17 
ROOT
HETATM    1  N2  UNK     1      17.889   2.332  33.794  1.00  0.00    -0.191 NA
HETATM    2  C5  UNK     1      18.186   4.031  31.863  1.00  0.00     0.058 C 
HETATM    3  C8  UNK     1      18.662   3.600  30.670  1.00  0.00     0.036 C 
HETATM    4  C15 UNK     1      18.022   3.092  32.929  1.00  0.00     0.100 C 
ENDROOT
BRANCH   2   5
HETATM    5  C1  UNK     1      17.833   5.442  32.117  1.00  0.00     0.021 A 
HETATM    6  C2  UNK     1      18.725   6.305  32.733  1.00  0.00     0.117 A 
HETATM    7  C7  UNK     1      18.352   7.630  32.955  1.00  0.00     0.076 A 
HETATM    8  C6  UNK     1      17.092   8.077  32.558  1.00  0.00     0.103 A 
HETATM    9  C4  UNK     1      16.204   7.197  31.938  1.00  0.00     0.102 A 
HETATM   10  C3  UNK     1      16.577   5.872  31.716  1.00  0.00     0.055 A 
BRANCH   6  11
HETATM   11  N1  UNK     1      20.018   5.882  33.152  1.00  0.00    -0.115 N 
HETATM   12  O3  UNK     1      20.152   5.396  34.300  1.00  0.00    -0.532 OA
HETATM   13  O4  UNK     1      20.981   6.009  32.361  1.00  0.00    -0.532 OA
ENDBRANCH   6  11
BRANCH   8  14
HETATM   14  O2  UNK     1      16.739   9.373  32.780  1.00  0.00    -0.353 OA
HETATM   15  C17 UNK     1      16.963   9.891  34.089  1.00  0.00     0.210 C 
ENDBRANCH   8  14
BRANCH   9  16
HETATM   16  O1  UNK     1      14.970   7.621  31.545  1.00  0.00    -0.353 OA
HETATM   17  C16 UNK     1      13.872   7.295  32.393  1.00  0.00     0.210 C 
ENDBRANCH   9  16
ENDBRANCH   2   5
BRANCH   3  18
HETATM   18  C9  UNK     1      19.044   2.235  30.324  1.00  0.00    -0.013 A 
HETATM   19  C10 UNK     1      18.622   1.622  29.144  1.00  0.00     0.045 A 
HETATM   20 Cl1  UNK     1      17.612   2.438  28.002  1.00  0.00    -0.083 Cl
HETATM   21  C12 UNK     1      19.015   0.315  28.859  1.00  0.00     0.048 A 
HETATM   22  C14 UNK     1      19.830  -0.379  29.754  1.00  0.00     0.035 A 
HETATM   23  C13 UNK     1      20.251   0.233  30.934  1.00  0.00     0.024 A 
HETATM   24 Cl2  UNK     1      20.314  -1.993  29.404  1.00  0.00    -0.084 Cl
HETATM   25  C11 UNK     1      19.858   1.542  31.219  1.00  0.00     0.015 A 
ENDBRANCH   3  18
TORSDOF 5
ENDMDL
MODEL 7
REMARK VINA RESULT:      -7.4     16.520     17.292
REMARK  5 active torsions:
REMARK  status: ('A' for Active; 'I' for Inactive)
REMARK    1  A    between atoms: C4_12  and  O1_3 
REMARK    2  A    between atoms: C6_14  and  O2_4 
REMARK    3  A    between atoms: C2_10  and  N1_7 
REMARK    4  A    between atoms: C1_9  and  C5_13 
REMARK    5  A    between atoms: C8_16  and  C9_17 
ROOT
HETATM    1  N2  UNK     1      29.890 -10.314  34.447  1.00  0.00    -0.191 NA
HETATM    2  C5  UNK     1      29.172  -7.828  34.354  1.00  0.00     0.058 C 
HETATM    3  C8  UNK     1      28.922  -7.256  33.152  1.00  0.00     0.036 C 
HETATM    4  C15 UNK     1      29.568  -9.201  34.404  1.00  0.00     0.100 C 
ENDROOT
BRANCH   2   5
HETATM    5  C1  UNK     1      29.060  -7.088  35.627  1.00  0.00     0.021 A 
HETATM    6  C2  UNK     1      30.111  -6.321  36.105  1.00  0.00     0.117 A 
HETATM    7  C7  UNK     1      29.965  -5.638  37.312  1.00  0.00     0.076 A 
HETATM    8  C6  UNK     1      28.771  -5.730  38.026  1.00  0.00     0.103 A 
HETATM    9  C4  UNK     1      27.721  -6.505  37.533  1.00  0.00     0.102 A 
HETATM   10  C3  UNK     1      27.867  -7.188  36.325  1.00  0.00     0.055 A 
BRANCH   6  11
HETATM   11  N1  UNK     1      31.344  -6.207  35.403  1.00  0.00    -0.115 N 
HETATM   12  O3  UNK     1      32.236  -7.064  35.605  1.00  0.00    -0.532 OA
HETATM   13  O4  UNK     1      31.499  -5.254  34.605  1.00  0.00    -0.532 OA
ENDBRANCH   6  11
BRANCH   8  14
HETATM   14  O2  UNK     1      28.640  -5.059  39.204  1.00  0.00    -0.353 OA
HETATM   15  C17 UNK     1      29.513  -3.952  39.420  1.00  0.00     0.210 C 
ENDBRANCH   8  14
BRANCH   9  16
HETATM   16  O1  UNK     1      26.549  -6.602  38.220  1.00  0.00    -0.353 OA
HETATM   17  C16 UNK     1      26.152  -7.904  38.645  1.00  0.00     0.210 C 
ENDBRANCH   9  16
ENDBRANCH   2   5
BRANCH   3  18
HETATM   18  C9  UNK     1      29.010  -7.897  31.845  1.00  0.00    -0.013 A 
HETATM   19  C10 UNK     1      30.227  -8.087  31.191  1.00  0.00     0.045 A 
HETATM   20 Cl1  UNK     1      31.726  -7.574  31.884  1.00  0.00    -0.083 Cl
HETATM   21  C12 UNK     1      30.259  -8.706  29.942  1.00  0.00     0.048 A 
HETATM   22  C14 UNK     1      29.072  -9.135  29.346  1.00  0.00     0.035 A 
HETATM   23  C13 UNK     1      27.854  -8.944  30.000  1.00  0.00     0.024 A 
HETATM   24 Cl2  UNK     1      29.108  -9.897  27.804  1.00  0.00    -0.084 Cl
HETATM   25  C11 UNK     1      27.824  -8.325  31.250  1.00  0.00     0.015 A 
ENDBRANCH   3  18
TORSDOF 5
ENDMDL
MODEL 8
REMARK VINA RESULT:      -7.3     17.437     20.560
REMARK  5 active torsions:
REMARK  status: ('A' for Active; 'I' for Inactive)
REMARK    1  A    between atoms: C4_12  and  O1_3 
REMARK    2  A    between atoms: C6_14  and  O2_4 
REMARK    3  A    between atoms: C2_10  and  N1_7 
REMARK    4  A    between atoms: C1_9  and  C5_13 
REMARK    5  A    between atoms: C8_16  and  C9_17 
ROOT
HETATM    1  N2  UNK     1      35.267  -6.433  29.399  1.00  0.00    -0.191 NA
HETATM    2  C5  UNK     1      33.487  -7.844  30.643  1.00  0.00     0.058 C 
HETATM    3  C8  UNK     1      33.890  -8.841  31.467  1.00  0.00     0.036 C 
HETATM    4  C15 UNK     1      34.470  -7.065  29.957  1.00  0.00     0.100 C 
ENDROOT
BRANCH   2   5
HETATM    5  C1  UNK     1      32.063  -7.527  30.413  1.00  0.00     0.021 A 
HETATM    6  C2  UNK     1      31.327  -8.194  29.447  1.00  0.00     0.117 A 
HETATM    7  C7  UNK     1      29.984  -7.864  29.262  1.00  0.00     0.076 A 
HETATM    8  C6  UNK     1      29.395  -6.871  30.044  1.00  0.00     0.103 A 
HETATM    9  C4  UNK     1      30.148  -6.209  31.014  1.00  0.00     0.102 A 
HETATM   10  C3  UNK     1      31.490  -6.539  31.199  1.00  0.00     0.055 A 
BRANCH   6  11
HETATM   11  N1  UNK     1      31.897  -9.210  28.630  1.00  0.00    -0.115 N 
HETATM   12  O3  UNK     1      31.820 -10.403  29.008  1.00  0.00    -0.532 OA
HETATM   13  O4  UNK     1      32.459  -8.881  27.560  1.00  0.00    -0.532 OA
ENDBRANCH   6  11
BRANCH   8  14
HETATM   14  O2  UNK     1      28.083  -6.558  29.854  1.00  0.00    -0.353 OA
HETATM   15  C17 UNK     1      27.117  -7.448  30.409  1.00  0.00     0.210 C 
ENDBRANCH   8  14
BRANCH   9  16
HETATM   16  O1  UNK     1      29.584  -5.238  31.785  1.00  0.00    -0.353 OA
HETATM   17  C16 UNK     1      29.936  -3.888  31.489  1.00  0.00     0.210 C 
ENDBRANCH   9  16
ENDBRANCH   2   5
BRANCH   3  18
HETATM   18  C9  UNK     1      35.265  -9.234  31.753  1.00  0.00    -0.013 A 
HETATM   19  C10 UNK     1      35.986  -8.694  32.818  1.00  0.00     0.045 A 
HETATM   20 Cl1  UNK     1      35.300  -7.514  33.880  1.00  0.00    -0.083 Cl
HETATM   21  C12 UNK     1      37.298  -9.104  33.051  1.00  0.00     0.048 A 
HETATM   22  C14 UNK     1      37.890 -10.054  32.217  1.00  0.00     0.035 A 
HETATM   23  C13 UNK     1      37.170 -10.594  31.152  1.00  0.00     0.024 A 
HETATM   24 Cl2  UNK     1      39.511 -10.559  32.502  1.00  0.00    -0.084 Cl
HETATM   25  C11 UNK     1      35.856 -10.184  30.920  1.00  0.00     0.015 A 
ENDBRANCH   3  18
TORSDOF 5
ENDMDL
MODEL 9
REMARK VINA RESULT:      -7.2     13.625     16.425
REMARK  5 active torsions:
REMARK  status: ('A' for Active; 'I' for Inactive)
REMARK    1  A    between atoms: C4_12  and  O1_3 
REMARK    2  A    between atoms: C6_14  and  O2_4 
REMARK    3  A    between atoms: C2_10  and  N1_7 
REMARK    4  A    between atoms: C1_9  and  C5_13 
REMARK    5  A    between atoms: C8_16  and  C9_17 
ROOT
HETATM    1  N2  UNK     1      21.033 -10.892  37.163  1.00  0.00    -0.191 NA
HETATM    2  C5  UNK     1      22.357  -8.667  37.229  1.00  0.00     0.058 C 
HETATM    3  C8  UNK     1      21.715  -7.507  36.951  1.00  0.00     0.036 C 
HETATM    4  C15 UNK     1      21.624  -9.895  37.193  1.00  0.00     0.100 C 
ENDROOT
BRANCH   2   5
HETATM    5  C1  UNK     1      23.794  -8.723  37.565  1.00  0.00     0.021 A 
HETATM    6  C2  UNK     1      24.304  -8.028  38.649  1.00  0.00     0.117 A 
HETATM    7  C7  UNK     1      25.667  -8.107  38.932  1.00  0.00     0.076 A 
HETATM    8  C6  UNK     1      26.503  -8.880  38.127  1.00  0.00     0.103 A 
HETATM    9  C4  UNK     1      25.976  -9.575  37.039  1.00  0.00     0.102 A 
HETATM   10  C3  UNK     1      24.613  -9.496  36.756  1.00  0.00     0.055 A 
BRANCH   6  11
HETATM   11  N1  UNK     1      23.479  -7.229  39.490  1.00  0.00    -0.115 N 
HETATM   12  O3  UNK     1      22.726  -7.798  40.316  1.00  0.00    -0.532 OA
HETATM   13  O4  UNK     1      23.531  -5.982  39.380  1.00  0.00    -0.532 OA
ENDBRANCH   6  11
BRANCH   8  14
HETATM   14  O2  UNK     1      27.833  -8.949  38.413  1.00  0.00    -0.353 OA
HETATM   15  C17 UNK     1      28.238  -9.908  39.388  1.00  0.00     0.210 C 
ENDBRANCH   8  14
BRANCH   9  16
HETATM   16  O1  UNK     1      26.782 -10.334  36.245  1.00  0.00    -0.353 OA
HETATM   17  C16 UNK     1      27.712  -9.642  35.415  1.00  0.00     0.210 C 
ENDBRANCH   9  16
ENDBRANCH   2   5
BRANCH   3  18
HETATM   18  C9  UNK     1      20.307  -7.349  36.604  1.00  0.00    -0.013 A 
HETATM   19  C10 UNK     1      19.337  -7.043  37.558  1.00  0.00     0.045 A 
HETATM   20 Cl1  UNK     1      19.733  -6.828  39.227  1.00  0.00    -0.083 Cl
HETATM   21  C12 UNK     1      18.004  -6.902  37.176  1.00  0.00     0.048 A 
HETATM   22  C14 UNK     1      17.640  -7.067  35.838  1.00  0.00     0.035 A 
HETATM   23  C13 UNK     1      18.610  -7.374  34.885  1.00  0.00     0.024 A 
HETATM   24 Cl2  UNK     1      15.995  -6.895  35.365  1.00  0.00    -0.084 Cl
HETATM   25  C11 UNK     1      19.945  -7.515  35.268  1.00  0.00     0.015 A 
ENDBRANCH   3  18
TORSDOF 5
ENDMDL
MODEL 10
REMARK VINA RESULT:      -7.1     19.167     22.305
REMARK  5 active torsions:
REMARK  status: ('A' for Active; 'I' for Inactive)
REMARK    1  A    between atoms: C4_12  and  O1_3 
REMARK    2  A    between atoms: C6_14  and  O2_4 
REMARK    3  A    between atoms: C2_10  and  N1_7 
REMARK    4  A    between atoms: C1_9  and  C5_13 
REMARK    5  A    between atoms: C8_16  and  C9_17 
ROOT
HETATM    1  N2  UNK     1      21.412  -5.025  15.035  1.00  0.00    -0.191 NA
HETATM    2  C5  UNK     1      19.731  -4.378  13.175  1.00  0.00     0.058 C 
HETATM    3  C8  UNK     1      18.406  -4.570  13.385  1.00  0.00     0.036 C 
HETATM    4  C15 UNK     1      20.658  -4.735  14.203  1.00  0.00     0.100 C 
ENDROOT
BRANCH   2   5
HETATM    5  C1  UNK     1      20.266  -3.818  11.917  1.00  0.00     0.021 A 
HETATM    6  C2  UNK     1      20.579  -2.473  11.808  1.00  0.00     0.117 A 
HETATM    7  C7  UNK     1      21.082  -1.984  10.603  1.00  0.00     0.076 A 
HETATM    8  C6  UNK     1      21.265  -2.846   9.522  1.00  0.00     0.103 A 
HETATM    9  C4  UNK     1      20.947  -4.198   9.647  1.00  0.00     0.102 A 
HETATM   10  C3  UNK     1      20.444  -4.688  10.852  1.00  0.00     0.055 A 
BRANCH   6  11
HETATM   11  N1  UNK     1      20.403  -1.566  12.891  1.00  0.00    -0.115 N 
HETATM   12  O3  UNK     1      19.272  -1.056  13.074  1.00  0.00    -0.532 OA
HETATM   13  O4  UNK     1      21.383  -1.304  13.626  1.00  0.00    -0.532 OA
ENDBRANCH   6  11
BRANCH   8  14
HETATM   14  O2  UNK     1      21.757  -2.357   8.350  1.00  0.00    -0.353 OA
HETATM   15  C17 UNK     1      23.171  -2.403   8.170  1.00  0.00     0.210 C 
ENDBRANCH   8  14
BRANCH   9  16
HETATM   16  O1  UNK     1      21.122  -5.051   8.599  1.00  0.00    -0.353 OA
HETATM   17  C16 UNK     1      19.959  -5.418   7.860  1.00  0.00     0.210 C 
ENDBRANCH   9  16
ENDBRANCH   2   5
BRANCH   3  18
HETATM   18  C9  UNK     1      17.783  -5.120  14.583  1.00  0.00    -0.013 A 
HETATM   19  C10 UNK     1      17.398  -4.316  15.656  1.00  0.00     0.045 A 
HETATM   20 Cl1  UNK     1      17.633  -2.602  15.643  1.00  0.00    -0.083 Cl
HETATM   21  C12 UNK     1      16.804  -4.889  16.780  1.00  0.00     0.048 A 
HETATM   22  C14 UNK     1      16.596  -6.268  16.831  1.00  0.00     0.035 A 
HETATM   23  C13 UNK     1      16.982  -7.072  15.759  1.00  0.00     0.024 A 
HETATM   24 Cl2  UNK     1      15.866  -6.978  18.218  1.00  0.00    -0.084 Cl
HETATM   25  C11 UNK     1      17.575  -6.498  14.634  1.00  0.00     0.015 A 
ENDBRANCH   3  18
TORSDOF 5
ENDMDL
