MODEL 1
REMARK VINA RESULT:      -9.5      0.000      0.000
REMARK  2 active torsions:
REMARK  status: ('A' for Active; 'I' for Inactive)
REMARK    1  A    between atoms: C5_12  and  N1_7 
REMARK       I    between atoms: C6_13  and  N1_7 
REMARK    2  A    between atoms: C2_9  and  C6_13 
ROOT
HETATM    1  O2  UNK     1      21.423  -4.793  36.955  1.00  0.00    -0.267 OA
HETATM    2  N1  UNK     1      19.163  -5.376  37.273  1.00  0.00    -0.319 N 
HETATM    3  C6  UNK     1      20.219  -4.539  36.940  1.00  0.00     0.262 C 
HETATM    4  H3  UNK     1      18.229  -5.082  36.995  1.00  0.00     0.169 HD
ENDROOT
BRANCH   3   5
HETATM    5  C2  UNK     1      19.761  -3.208  36.526  1.00  0.00     0.108 A 
HETATM    6  C4  UNK     1      19.088  -2.502  37.443  1.00  0.00     0.037 A 
HETATM    7  C1  UNK     1      18.594  -1.172  37.126  1.00  0.00    -0.001 A 
HETATM    8  C3  UNK     1      18.831  -0.648  35.859  1.00  0.00     0.089 A 
HETATM    9  C7  UNK     1      17.887  -0.400  38.052  1.00  0.00     0.014 A 
HETATM   10  O1  UNK     1      19.540  -1.396  34.898  1.00  0.00    -0.274 OA
HETATM   11  C9  UNK     1      18.384   0.619  35.492  1.00  0.00     0.038 A 
HETATM   12  C8  UNK     1      20.025  -2.672  35.171  1.00  0.00     0.304 A 
HETATM   13  O3  UNK     1      20.640  -3.316  34.329  1.00  0.00    -0.259 OA
HETATM   14  C13 UNK     1      17.680   1.381  36.421  1.00  0.00     0.003 A 
HETATM   15  C10 UNK     1      17.433   0.874  37.698  1.00  0.00     0.001 A 
ENDBRANCH   3   5
BRANCH   2  16
HETATM   16  C5  UNK     1      19.233  -6.721  37.712  1.00  0.00     0.091 A 
HETATM   17  C11 UNK     1      18.715  -7.748  36.938  1.00  0.00     0.043 A 
HETATM   18 Br1  UNK     1      17.885  -7.439  35.259  1.00  0.00    -0.049 Br
HETATM   19  C14 UNK     1      18.801  -9.062  37.400  1.00  0.00     0.064 A 
HETATM   20  C16 UNK     1      19.404  -9.332  38.628  1.00  0.00     0.120 A 
HETATM   21  C15 UNK     1      19.921  -8.288  39.395  1.00  0.00     0.087 A 
HETATM   22  F2  UNK     1      19.486 -10.593  39.071  1.00  0.00    -0.206 F 
HETATM   23  C12 UNK     1      19.835  -6.974  38.935  1.00  0.00     0.147 A 
HETATM   24  F1  UNK     1      20.336  -5.980  39.682  1.00  0.00    -0.204 F 
ENDBRANCH   2  16
TORSDOF 2
ENDMDL
MODEL 2
REMARK VINA RESULT:      -9.2      9.284     12.254
REMARK  2 active torsions:
REMARK  status: ('A' for Active; 'I' for Inactive)
REMARK    1  A    between atoms: C5_12  and  N1_7 
REMARK       I    between atoms: C6_13  and  N1_7 
REMARK    2  A    between atoms: C2_9  and  C6_13 
ROOT
HETATM    1  O2  UNK     1      17.704   3.305  33.083  1.00  0.00    -0.267 OA
HETATM    2  N1  UNK     1      18.618   4.868  31.577  1.00  0.00    -0.319 N 
HETATM    3  C6  UNK     1      18.276   3.604  32.035  1.00  0.00     0.262 C 
HETATM    4  H3  UNK     1      18.886   4.954  30.599  1.00  0.00     0.169 HD
ENDROOT
BRANCH   3   5
HETATM    5  C2  UNK     1      18.679   2.548  31.099  1.00  0.00     0.108 A 
HETATM    6  C4  UNK     1      19.073   1.391  31.645  1.00  0.00     0.037 A 
HETATM    7  C1  UNK     1      19.491   0.286  30.797  1.00  0.00    -0.001 A 
HETATM    8  C3  UNK     1      19.474   0.451  29.416  1.00  0.00     0.089 A 
HETATM    9  C7  UNK     1      19.909  -0.940  31.324  1.00  0.00     0.014 A 
HETATM   10  O1  UNK     1      19.059   1.671  28.847  1.00  0.00    -0.274 OA
HETATM   11  C9  UNK     1      19.863  -0.568  28.549  1.00  0.00     0.038 A 
HETATM   12  C8  UNK     1      18.654   2.748  29.632  1.00  0.00     0.304 A 
HETATM   13  O3  UNK     1      18.294   3.806  29.129  1.00  0.00    -0.259 OA
HETATM   14  C13 UNK     1      20.279  -1.785  29.082  1.00  0.00     0.003 A 
HETATM   15  C10 UNK     1      20.301  -1.971  30.466  1.00  0.00     0.001 A 
ENDBRANCH   3   5
BRANCH   2  16
HETATM   16  C5  UNK     1      18.384   6.111  32.216  1.00  0.00     0.091 A 
HETATM   17  C11 UNK     1      19.434   6.850  32.739  1.00  0.00     0.043 A 
HETATM   18 Br1  UNK     1      21.237   6.264  32.644  1.00  0.00    -0.049 Br
HETATM   19  C14 UNK     1      19.168   8.069  33.362  1.00  0.00     0.064 A 
HETATM   20  C16 UNK     1      17.856   8.535  33.452  1.00  0.00     0.120 A 
HETATM   21  C15 UNK     1      16.811   7.781  32.921  1.00  0.00     0.087 A 
HETATM   22  F2  UNK     1      17.601   9.706  34.050  1.00  0.00    -0.206 F 
HETATM   23  C12 UNK     1      17.076   6.561  32.299  1.00  0.00     0.147 A 
HETATM   24  F1  UNK     1      16.061   5.846  31.792  1.00  0.00    -0.204 F 
ENDBRANCH   2  16
TORSDOF 2
ENDMDL
MODEL 3
REMARK VINA RESULT:      -8.9      2.096      2.304
REMARK  2 active torsions:
REMARK  status: ('A' for Active; 'I' for Inactive)
REMARK    1  A    between atoms: C5_12  and  N1_7 
REMARK       I    between atoms: C6_13  and  N1_7 
REMARK    2  A    between atoms: C2_9  and  C6_13 
ROOT
HETATM    1  O2  UNK     1      21.645  -4.426  37.227  1.00  0.00    -0.267 OA
HETATM    2  N1  UNK     1      19.977  -5.571  36.021  1.00  0.00    -0.319 N 
HETATM    3  C6  UNK     1      20.629  -4.458  36.533  1.00  0.00     0.262 C 
HETATM    4  H3  UNK     1      19.286  -5.412  35.291  1.00  0.00     0.169 HD
ENDROOT
BRANCH   3   5
HETATM    5  C2  UNK     1      19.965  -3.205  36.155  1.00  0.00     0.108 A 
HETATM    6  C4  UNK     1      19.256  -2.598  37.115  1.00  0.00     0.037 A 
HETATM    7  C1  UNK     1      18.563  -1.350  36.835  1.00  0.00    -0.001 A 
HETATM    8  C3  UNK     1      18.649  -0.802  35.559  1.00  0.00     0.089 A 
HETATM    9  C7  UNK     1      17.811  -0.683  37.806  1.00  0.00     0.014 A 
HETATM   10  O1  UNK     1      19.397  -1.446  34.554  1.00  0.00    -0.274 OA
HETATM   11  C9  UNK     1      18.008   0.389  35.227  1.00  0.00     0.038 A 
HETATM   12  C8  UNK     1      20.071  -2.640  34.790  1.00  0.00     0.304 A 
HETATM   13  O3  UNK     1      20.720  -3.194  33.910  1.00  0.00    -0.259 OA
HETATM   14  C13 UNK     1      17.261   1.048  36.200  1.00  0.00     0.003 A 
HETATM   15  C10 UNK     1      17.163   0.514  37.487  1.00  0.00     0.001 A 
ENDBRANCH   3   5
BRANCH   2  16
HETATM   16  C5  UNK     1      20.335  -6.932  36.182  1.00  0.00     0.091 A 
HETATM   17  C11 UNK     1      20.297  -7.533  37.430  1.00  0.00     0.043 A 
HETATM   18 Br1  UNK     1      19.773  -6.597  38.996  1.00  0.00    -0.049 Br
HETATM   19  C14 UNK     1      20.656  -8.876  37.553  1.00  0.00     0.064 A 
HETATM   20  C16 UNK     1      21.046  -9.600  36.427  1.00  0.00     0.120 A 
HETATM   21  C15 UNK     1      21.079  -8.981  35.178  1.00  0.00     0.087 A 
HETATM   22  F2  UNK     1      21.391 -10.889  36.545  1.00  0.00    -0.206 F 
HETATM   23  C12 UNK     1      20.722  -7.639  35.054  1.00  0.00     0.147 A 
HETATM   24  F1  UNK     1      20.757  -7.056  33.847  1.00  0.00    -0.204 F 
ENDBRANCH   2  16
TORSDOF 2
ENDMDL
MODEL 4
REMARK VINA RESULT:      -8.8      2.863      7.337
REMARK  2 active torsions:
REMARK  status: ('A' for Active; 'I' for Inactive)
REMARK    1  A    between atoms: C5_12  and  N1_7 
REMARK       I    between atoms: C6_13  and  N1_7 
REMARK    2  A    between atoms: C2_9  and  C6_13 
ROOT
HETATM    1  O2  UNK     1      20.933  -3.164  37.729  1.00  0.00    -0.267 OA
HETATM    2  N1  UNK     1      18.999  -3.208  36.386  1.00  0.00    -0.319 N 
HETATM    3  C6  UNK     1      20.063  -3.754  37.090  1.00  0.00     0.262 C 
HETATM    4  H3  UNK     1      18.254  -3.840  36.102  1.00  0.00     0.169 HD
ENDROOT
BRANCH   3   5
HETATM    5  C2  UNK     1      20.082  -5.220  37.016  1.00  0.00     0.108 A 
HETATM    6  C4  UNK     1      20.012  -5.872  38.183  1.00  0.00     0.037 A 
HETATM    7  C1  UNK     1      20.024  -7.326  38.211  1.00  0.00    -0.001 A 
HETATM    8  C3  UNK     1      20.108  -8.023  37.010  1.00  0.00     0.089 A 
HETATM    9  C7  UNK     1      19.954  -8.048  39.406  1.00  0.00     0.014 A 
HETATM   10  O1  UNK     1      20.181  -7.331  35.785  1.00  0.00    -0.274 OA
HETATM   11  C9  UNK     1      20.124  -9.415  36.968  1.00  0.00     0.038 A 
HETATM   12  C8  UNK     1      20.172  -5.940  35.726  1.00  0.00     0.304 A 
HETATM   13  O3  UNK     1      20.236  -5.345  34.655  1.00  0.00    -0.259 OA
HETATM   14  C13 UNK     1      20.054 -10.127  38.163  1.00  0.00     0.003 A 
HETATM   15  C10 UNK     1      19.968  -9.445  39.379  1.00  0.00     0.001 A 
ENDBRANCH   3   5
BRANCH   2  16
HETATM   16  C5  UNK     1      18.672  -1.837  36.243  1.00  0.00     0.091 A 
HETATM   17  C11 UNK     1      18.962  -1.156  35.070  1.00  0.00     0.043 A 
HETATM   18 Br1  UNK     1      19.807  -1.992  33.591  1.00  0.00    -0.049 Br
HETATM   19  C14 UNK     1      18.625   0.193  34.963  1.00  0.00     0.064 A 
HETATM   20  C16 UNK     1      18.002   0.844  36.027  1.00  0.00     0.120 A 
HETATM   21  C15 UNK     1      17.717   0.146  37.200  1.00  0.00     0.087 A 
HETATM   22  F2  UNK     1      17.679   2.140  35.923  1.00  0.00    -0.206 F 
HETATM   23  C12 UNK     1      18.053  -1.203  37.309  1.00  0.00     0.147 A 
HETATM   24  F1  UNK     1      17.772  -1.862  38.442  1.00  0.00    -0.204 F 
ENDBRANCH   2  16
TORSDOF 2
ENDMDL
MODEL 5
REMARK VINA RESULT:      -8.8      8.928     12.470
REMARK  2 active torsions:
REMARK  status: ('A' for Active; 'I' for Inactive)
REMARK    1  A    between atoms: C5_12  and  N1_7 
REMARK       I    between atoms: C6_13  and  N1_7 
REMARK    2  A    between atoms: C2_9  and  C6_13 
ROOT
HETATM    1  O2  UNK     1      18.626   5.059  30.193  1.00  0.00    -0.267 OA
HETATM    2  N1  UNK     1      17.748   4.996  32.377  1.00  0.00    -0.319 N 
HETATM    3  C6  UNK     1      18.334   4.472  31.234  1.00  0.00     0.262 C 
HETATM    4  H3  UNK     1      17.778   4.427  33.220  1.00  0.00     0.169 HD
ENDROOT
BRANCH   3   5
HETATM    5  C2  UNK     1      18.611   3.036  31.363  1.00  0.00     0.108 A 
HETATM    6  C4  UNK     1      19.102   2.429  30.275  1.00  0.00     0.037 A 
HETATM    7  C1  UNK     1      19.408   1.007  30.306  1.00  0.00    -0.001 A 
HETATM    8  C3  UNK     1      19.183   0.294  31.480  1.00  0.00     0.089 A 
HETATM    9  C7  UNK     1      19.921   0.331  29.195  1.00  0.00     0.014 A 
HETATM   10  O1  UNK     1      18.667   0.940  32.620  1.00  0.00    -0.274 OA
HETATM   11  C9  UNK     1      19.454  -1.069  31.574  1.00  0.00     0.038 A 
HETATM   12  C8  UNK     1      18.363   2.298  32.622  1.00  0.00     0.304 A 
HETATM   13  O3  UNK     1      17.915   2.852  33.619  1.00  0.00    -0.259 OA
HETATM   14  C13 UNK     1      19.965  -1.734  30.463  1.00  0.00     0.003 A 
HETATM   15  C10 UNK     1      20.198  -1.036  29.276  1.00  0.00     0.001 A 
ENDBRANCH   3   5
BRANCH   2  16
HETATM   16  C5  UNK     1      17.348   6.336  32.606  1.00  0.00     0.091 A 
HETATM   17  C11 UNK     1      18.251   7.275  33.081  1.00  0.00     0.043 A 
HETATM   18 Br1  UNK     1      20.061   6.847  33.458  1.00  0.00    -0.049 Br
HETATM   19  C14 UNK     1      17.824   8.586  33.295  1.00  0.00     0.064 A 
HETATM   20  C16 UNK     1      16.502   8.941  33.029  1.00  0.00     0.120 A 
HETATM   21  C15 UNK     1      15.605   7.985  32.552  1.00  0.00     0.087 A 
HETATM   22  F2  UNK     1      16.092  10.200  33.235  1.00  0.00    -0.206 F 
HETATM   23  C12 UNK     1      16.031   6.675  32.338  1.00  0.00     0.147 A 
HETATM   24  F1  UNK     1      15.159   5.765  31.878  1.00  0.00    -0.204 F 
ENDBRANCH   2  16
TORSDOF 2
ENDMDL
MODEL 6
REMARK VINA RESULT:      -8.7      8.756     11.728
REMARK  2 active torsions:
REMARK  status: ('A' for Active; 'I' for Inactive)
REMARK    1  A    between atoms: C5_12  and  N1_7 
REMARK       I    between atoms: C6_13  and  N1_7 
REMARK    2  A    between atoms: C2_9  and  C6_13 
ROOT
HETATM    1  O2  UNK     1      16.783   2.918  30.769  1.00  0.00    -0.267 OA
HETATM    2  N1  UNK     1      18.918   3.713  31.366  1.00  0.00    -0.319 N 
HETATM    3  C6  UNK     1      18.003   2.797  30.865  1.00  0.00     0.262 C 
HETATM    4  H3  UNK     1      19.902   3.545  31.170  1.00  0.00     0.169 HD
ENDROOT
BRANCH   3   5
HETATM    5  C2  UNK     1      18.651   1.560  30.412  1.00  0.00     0.108 A 
HETATM    6  C4  UNK     1      19.095   0.739  31.371  1.00  0.00     0.037 A 
HETATM    7  C1  UNK     1      19.751  -0.511  31.020  1.00  0.00    -0.001 A 
HETATM    8  C3  UNK     1      19.907  -0.836  29.677  1.00  0.00     0.089 A 
HETATM    9  C7  UNK     1      20.230  -1.398  31.989  1.00  0.00     0.014 A 
HETATM   10  O1  UNK     1      19.437   0.032  28.672  1.00  0.00    -0.274 OA
HETATM   11  C9  UNK     1      20.526  -2.017  29.274  1.00  0.00     0.038 A 
HETATM   12  C8  UNK     1      18.807   1.235  28.976  1.00  0.00     0.304 A 
HETATM   13  O3  UNK     1      18.401   1.985  28.095  1.00  0.00    -0.259 OA
HETATM   14  C13 UNK     1      21.001  -2.895  30.245  1.00  0.00     0.003 A 
HETATM   15  C10 UNK     1      20.853  -2.587  31.599  1.00  0.00     0.001 A 
ENDBRANCH   3   5
BRANCH   2  16
HETATM   16  C5  UNK     1      18.651   5.003  31.886  1.00  0.00     0.091 A 
HETATM   17  C11 UNK     1      18.469   5.198  33.247  1.00  0.00     0.043 A 
HETATM   18 Br1  UNK     1      18.560   3.774  34.499  1.00  0.00    -0.049 Br
HETATM   19  C14 UNK     1      18.207   6.482  33.725  1.00  0.00     0.064 A 
HETATM   20  C16 UNK     1      18.133   7.555  32.837  1.00  0.00     0.120 A 
HETATM   21  C15 UNK     1      18.319   7.344  31.471  1.00  0.00     0.087 A 
HETATM   22  F2  UNK     1      17.882   8.788  33.296  1.00  0.00    -0.206 F 
HETATM   23  C12 UNK     1      18.579   6.061  30.992  1.00  0.00     0.147 A 
HETATM   24  F1  UNK     1      18.756   5.872  29.676  1.00  0.00    -0.204 F 
ENDBRANCH   2  16
TORSDOF 2
ENDMDL
MODEL 7
REMARK VINA RESULT:      -8.5      3.445      7.524
REMARK  2 active torsions:
REMARK  status: ('A' for Active; 'I' for Inactive)
REMARK    1  A    between atoms: C5_12  and  N1_7 
REMARK       I    between atoms: C6_13  and  N1_7 
REMARK    2  A    between atoms: C2_9  and  C6_13 
ROOT
HETATM    1  O2  UNK     1      21.314  -2.566  36.161  1.00  0.00    -0.267 OA
HETATM    2  N1  UNK     1      19.024  -2.698  35.625  1.00  0.00    -0.319 N 
HETATM    3  C6  UNK     1      20.256  -3.183  36.041  1.00  0.00     0.262 C 
HETATM    4  H3  UNK     1      18.210  -3.285  35.793  1.00  0.00     0.169 HD
ENDROOT
BRANCH   3   5
HETATM    5  C2  UNK     1      20.208  -4.615  36.360  1.00  0.00     0.108 A 
HETATM    6  C4  UNK     1      20.135  -4.929  37.660  1.00  0.00     0.037 A 
HETATM    7  C1  UNK     1      20.083  -6.322  38.075  1.00  0.00    -0.001 A 
HETATM    8  C3  UNK     1      20.109  -7.317  37.103  1.00  0.00     0.089 A 
HETATM    9  C7  UNK     1      20.007  -6.696  39.420  1.00  0.00     0.014 A 
HETATM   10  O1  UNK     1      20.185  -6.980  35.737  1.00  0.00    -0.274 OA
HETATM   11  C9  UNK     1      20.062  -8.669  37.434  1.00  0.00     0.038 A 
HETATM   12  C8  UNK     1      20.237  -5.657  35.309  1.00  0.00     0.304 A 
HETATM   13  O3  UNK     1      20.303  -5.372  34.118  1.00  0.00    -0.259 OA
HETATM   14  C13 UNK     1      19.987  -9.033  38.776  1.00  0.00     0.003 A 
HETATM   15  C10 UNK     1      19.959  -8.049  39.767  1.00  0.00     0.001 A 
ENDBRANCH   3   5
BRANCH   2  16
HETATM   16  C5  UNK     1      18.703  -1.373  35.240  1.00  0.00     0.091 A 
HETATM   17  C11 UNK     1      18.241  -0.456  36.171  1.00  0.00     0.043 A 
HETATM   18 Br1  UNK     1      18.003  -0.895  38.002  1.00  0.00    -0.049 Br
HETATM   19  C14 UNK     1      17.934   0.841  35.757  1.00  0.00     0.064 A 
HETATM   20  C16 UNK     1      18.096   1.204  34.421  1.00  0.00     0.120 A 
HETATM   21  C15 UNK     1      18.562   0.270  33.496  1.00  0.00     0.087 A 
HETATM   22  F2  UNK     1      17.802   2.450  34.024  1.00  0.00    -0.206 F 
HETATM   23  C12 UNK     1      18.868  -1.027  33.908  1.00  0.00     0.147 A 
HETATM   24  F1  UNK     1      19.317  -1.915  33.009  1.00  0.00    -0.204 F 
ENDBRANCH   2  16
TORSDOF 2
ENDMDL
MODEL 8
REMARK VINA RESULT:      -8.4      8.875     11.030
REMARK  2 active torsions:
REMARK  status: ('A' for Active; 'I' for Inactive)
REMARK    1  A    between atoms: C5_12  and  N1_7 
REMARK       I    between atoms: C6_13  and  N1_7 
REMARK    2  A    between atoms: C2_9  and  C6_13 
ROOT
HETATM    1  O2  UNK     1      19.835   5.376  31.677  1.00  0.00    -0.267 OA
HETATM    2  N1  UNK     1      18.011   3.921  31.994  1.00  0.00    -0.319 N 
HETATM    3  C6  UNK     1      18.707   5.117  32.094  1.00  0.00     0.262 C 
HETATM    4  H3  UNK     1      17.013   3.943  32.194  1.00  0.00     0.169 HD
ENDROOT
BRANCH   3   5
HETATM    5  C2  UNK     1      17.935   6.149  32.795  1.00  0.00     0.108 A 
HETATM    6  C4  UNK     1      16.715   6.409  32.307  1.00  0.00     0.037 A 
HETATM    7  C1  UNK     1      15.875   7.417  32.935  1.00  0.00    -0.001 A 
HETATM    8  C3  UNK     1      16.358   8.101  34.045  1.00  0.00     0.089 A 
HETATM    9  C7  UNK     1      14.596   7.721  32.459  1.00  0.00     0.014 A 
HETATM   10  O1  UNK     1      17.641   7.823  34.554  1.00  0.00    -0.274 OA
HETATM   11  C9  UNK     1      15.603   9.078  34.691  1.00  0.00     0.038 A 
HETATM   12  C8  UNK     1      18.470   6.866  33.975  1.00  0.00     0.304 A 
HETATM   13  O3  UNK     1      19.586   6.630  34.424  1.00  0.00    -0.259 OA
HETATM   14  C13 UNK     1      14.330   9.375  34.211  1.00  0.00     0.003 A 
HETATM   15  C10 UNK     1      13.827   8.698  33.098  1.00  0.00     0.001 A 
ENDBRANCH   3   5
BRANCH   2  16
HETATM   16  C5  UNK     1      18.445   2.718  31.384  1.00  0.00     0.091 A 
HETATM   17  C11 UNK     1      18.622   1.565  32.133  1.00  0.00     0.043 A 
HETATM   18 Br1  UNK     1      18.304   1.508  34.004  1.00  0.00    -0.049 Br
HETATM   19  C14 UNK     1      19.050   0.398  31.500  1.00  0.00     0.064 A 
HETATM   20  C16 UNK     1      19.294   0.397  30.127  1.00  0.00     0.120 A 
HETATM   21  C15 UNK     1      19.111   1.565  29.387  1.00  0.00     0.087 A 
HETATM   22  F2  UNK     1      19.705  -0.724  29.520  1.00  0.00    -0.206 F 
HETATM   23  C12 UNK     1      18.684   2.732  30.018  1.00  0.00     0.147 A 
HETATM   24  F1  UNK     1      18.511   3.848  29.294  1.00  0.00    -0.204 F 
ENDBRANCH   2  16
TORSDOF 2
ENDMDL
MODEL 9
REMARK VINA RESULT:      -8.3      6.895      8.810
REMARK  2 active torsions:
REMARK  status: ('A' for Active; 'I' for Inactive)
REMARK    1  A    between atoms: C5_12  and  N1_7 
REMARK       I    between atoms: C6_13  and  N1_7 
REMARK    2  A    between atoms: C2_9  and  C6_13 
ROOT
HETATM    1  O2  UNK     1      25.777  -9.192  39.453  1.00  0.00    -0.267 OA
HETATM    2  N1  UNK     1      24.637  -7.979  37.787  1.00  0.00    -0.319 N 
HETATM    3  C6  UNK     1      25.661  -8.235  38.689  1.00  0.00     0.262 C 
HETATM    4  H3  UNK     1      24.804  -7.265  37.082  1.00  0.00     0.169 HD
ENDROOT
BRANCH   3   5
HETATM    5  C2  UNK     1      26.691  -7.190  38.667  1.00  0.00     0.108 A 
HETATM    6  C4  UNK     1      27.957  -7.610  38.554  1.00  0.00     0.037 A 
HETATM    7  C1  UNK     1      29.048  -6.649  38.523  1.00  0.00    -0.001 A 
HETATM    8  C3  UNK     1      28.754  -5.292  38.613  1.00  0.00     0.089 A 
HETATM    9  C7  UNK     1      30.384  -7.042  38.406  1.00  0.00     0.014 A 
HETATM   10  O1  UNK     1      27.420  -4.856  38.732  1.00  0.00    -0.274 OA
HETATM   11  C9  UNK     1      29.753  -4.321  38.590  1.00  0.00     0.038 A 
HETATM   12  C8  UNK     1      26.355  -5.752  38.765  1.00  0.00     0.304 A 
HETATM   13  O3  UNK     1      25.196  -5.364  38.869  1.00  0.00    -0.259 OA
HETATM   14  C13 UNK     1      31.081  -4.722  38.473  1.00  0.00     0.003 A 
HETATM   15  C10 UNK     1      31.397  -6.079  38.381  1.00  0.00     0.001 A 
ENDBRANCH   3   5
BRANCH   2  16
HETATM   16  C5  UNK     1      23.487  -8.768  37.540  1.00  0.00     0.091 A 
HETATM   17  C11 UNK     1      22.274  -8.461  38.136  1.00  0.00     0.043 A 
HETATM   18 Br1  UNK     1      22.061  -6.985  39.310  1.00  0.00    -0.049 Br
HETATM   19  C14 UNK     1      21.161  -9.259  37.871  1.00  0.00     0.064 A 
HETATM   20  C16 UNK     1      21.274 -10.352  37.013  1.00  0.00     0.120 A 
HETATM   21  C15 UNK     1      22.502 -10.649  36.421  1.00  0.00     0.087 A 
HETATM   22  F2  UNK     1      20.205 -11.118  36.758  1.00  0.00    -0.206 F 
HETATM   23  C12 UNK     1      23.615  -9.852  36.686  1.00  0.00     0.147 A 
HETATM   24  F1  UNK     1      24.789 -10.148  36.109  1.00  0.00    -0.204 F 
ENDBRANCH   2  16
TORSDOF 2
ENDMDL
MODEL 10
REMARK VINA RESULT:      -8.3      4.550      6.708
REMARK  2 active torsions:
REMARK  status: ('A' for Active; 'I' for Inactive)
REMARK    1  A    between atoms: C5_12  and  N1_7 
REMARK       I    between atoms: C6_13  and  N1_7 
REMARK    2  A    between atoms: C2_9  and  C6_13 
ROOT
HETATM    1  O2  UNK     1      16.708   0.339  34.195  1.00  0.00    -0.267 OA
HETATM    2  N1  UNK     1      19.030   0.213  34.565  1.00  0.00    -0.319 N 
HETATM    3  C6  UNK     1      17.859   0.748  34.049  1.00  0.00     0.262 C 
HETATM    4  H3  UNK     1      19.864   0.795  34.532  1.00  0.00     0.169 HD
ENDROOT
BRANCH   3   5
HETATM    5  C2  UNK     1      18.107   1.950  33.243  1.00  0.00     0.108 A 
HETATM    6  C4  UNK     1      18.002   3.122  33.882  1.00  0.00     0.037 A 
HETATM    7  C1  UNK     1      18.230   4.368  33.167  1.00  0.00    -0.001 A 
HETATM    8  C3  UNK     1      18.558   4.320  31.816  1.00  0.00     0.089 A 
HETATM    9  C7  UNK     1      18.131   5.614  33.793  1.00  0.00     0.014 A 
HETATM   10  O1  UNK     1      18.668   3.084  31.150  1.00  0.00    -0.274 OA
HETATM   11  C9  UNK     1      18.789   5.477  31.075  1.00  0.00     0.038 A 
HETATM   12  C8  UNK     1      18.455   1.875  31.806  1.00  0.00     0.304 A 
HETATM   13  O3  UNK     1      18.552   0.803  31.219  1.00  0.00    -0.259 OA
HETATM   14  C13 UNK     1      18.687   6.715  31.706  1.00  0.00     0.003 A 
HETATM   15  C10 UNK     1      18.360   6.783  33.062  1.00  0.00     0.001 A 
ENDBRANCH   3   5
BRANCH   2  16
HETATM   16  C5  UNK     1      19.168  -0.936  35.382  1.00  0.00     0.091 A 
HETATM   17  C11 UNK     1      18.678  -0.948  36.679  1.00  0.00     0.043 A 
HETATM   18 Br1  UNK     1      17.801   0.549  37.450  1.00  0.00    -0.049 Br
HETATM   19  C14 UNK     1      18.831  -2.096  37.456  1.00  0.00     0.064 A 
HETATM   20  C16 UNK     1      19.468  -3.218  36.927  1.00  0.00     0.120 A 
HETATM   21  C15 UNK     1      19.956  -3.190  35.621  1.00  0.00     0.087 A 
HETATM   22  F2  UNK     1      19.615  -4.320  37.674  1.00  0.00    -0.206 F 
HETATM   23  C12 UNK     1      19.805  -2.043  34.843  1.00  0.00     0.147 A 
HETATM   24  F1  UNK     1      20.277  -2.031  33.588  1.00  0.00    -0.204 F 
ENDBRANCH   2  16
TORSDOF 2
ENDMDL
