MODEL 1
REMARK VINA RESULT:      -9.9      0.000      0.000
REMARK  7 active torsions:
REMARK  status: ('A' for Active; 'I' for Inactive)
REMARK    1  A    between atoms: C5_12  and  N1_5 
REMARK    2  A    between atoms: C6_13  and  N2_6 
REMARK    3  A    between atoms: C18_25  and  N3_7 
REMARK       I    between atoms: C9_16  and  N3_7 
REMARK    4  A    between atoms: C5_12  and  C7_14 
REMARK    5  A    between atoms: C6_13  and  C9_16 
REMARK    6  A    between atoms: C13_20  and  C17_24 
REMARK    7  A    between atoms: C24_31  and  C25_32 
ROOT
HETATM    1  N1  UNK     1      17.920   1.548  35.228  1.00  0.00     0.096 N 
HETATM    2  N2  UNK     1      18.245  -0.993  36.567  1.00  0.00     0.100 N 
HETATM    3  C1  UNK     1      17.606   1.392  36.653  1.00  0.00     0.303 C 
HETATM    4  C2  UNK     1      18.971   0.604  34.828  1.00  0.00     0.303 C 
HETATM    5  C3  UNK     1      17.193  -0.050  36.966  1.00  0.00     0.303 C 
HETATM    6  C4  UNK     1      18.558  -0.838  35.141  1.00  0.00     0.303 C 
ENDROOT
BRANCH   1   7
HETATM    7  C5  UNK     1      18.317   2.923  34.931  1.00  0.00     0.312 C 
BRANCH   7   8
HETATM    8  C7  UNK     1      18.317   3.205  33.468  1.00  0.00    -0.011 A 
HETATM    9  C10 UNK     1      18.288   2.209  32.572  1.00  0.00     0.092 A 
HETATM   10  C14 UNK     1      18.286   2.437  31.117  1.00  0.00     0.288 A 
HETATM   11  O1  UNK     1      18.317   3.758  30.694  1.00  0.00    -0.275 OA
HETATM   12  O3  UNK     1      18.256   1.501  30.327  1.00  0.00    -0.260 OA
HETATM   13  C11 UNK     1      18.349   4.826  31.614  1.00  0.00     0.090 A 
HETATM   14  C15 UNK     1      18.379   6.113  31.074  1.00  0.00     0.039 A 
HETATM   15  C8  UNK     1      18.350   4.593  32.989  1.00  0.00     0.007 A 
HETATM   16  C16 UNK     1      18.413   7.207  31.932  1.00  0.00     0.010 A 
HETATM   17  C13 UNK     1      18.415   7.006  33.311  1.00  0.00    -0.058 A 
HETATM   18  C12 UNK     1      18.384   5.709  33.837  1.00  0.00     0.022 A 
BRANCH  17  19
HETATM   19  C17 UNK     1      18.450   8.179  34.233  1.00  0.00     0.034 C 
HETATM   20  C19 UNK     1      19.871   8.670  34.491  1.00  0.00     0.010 C 
ENDBRANCH  17  19
ENDBRANCH   7   8
ENDBRANCH   1   7
BRANCH   2  21
HETATM   21  C6  UNK     1      17.850  -2.368  36.866  1.00  0.00     0.375 C 
BRANCH  21  22
HETATM   22  C9  UNK     1      19.076  -3.264  36.841  1.00  0.00     0.250 C 
HETATM   23  O2  UNK     1      20.207  -2.841  37.058  1.00  0.00    -0.271 OA
HETATM   24  N3  UNK     1      18.709  -4.576  36.551  1.00  0.00    -0.326 N 
HETATM   25  H15 UNK     1      17.722  -4.767  36.392  1.00  0.00     0.169 HD
BRANCH  24  26
HETATM   26  C18 UNK     1      19.555  -5.704  36.437  1.00  0.00     0.034 A 
HETATM   27  C20 UNK     1      20.212  -6.201  37.562  1.00  0.00     0.030 A 
HETATM   28  C22 UNK     1      21.047  -7.313  37.450  1.00  0.00     0.017 A 
HETATM   29  C24 UNK     1      21.226  -7.928  36.209  1.00  0.00     0.009 A 
HETATM   30  C23 UNK     1      20.570  -7.430  35.083  1.00  0.00     0.017 A 
HETATM   31  C21 UNK     1      19.735  -6.319  35.197  1.00  0.00     0.030 A 
BRANCH  29  32
HETATM   32  C25 UNK     1      22.097  -9.086  36.092  1.00  0.00     0.155 C 
HETATM   33  C26 UNK     1      21.765 -10.201  35.106  1.00  0.00     0.096 C 
HETATM   34  O4  UNK     1      23.127  -9.198  36.785  1.00  0.00    -0.293 OA
ENDBRANCH  29  32
ENDBRANCH  24  26
ENDBRANCH  21  22
ENDBRANCH   2  21
TORSDOF 7
ENDMDL
MODEL 2
REMARK VINA RESULT:      -9.7      4.978     12.152
REMARK  7 active torsions:
REMARK  status: ('A' for Active; 'I' for Inactive)
REMARK    1  A    between atoms: C5_12  and  N1_5 
REMARK    2  A    between atoms: C6_13  and  N2_6 
REMARK    3  A    between atoms: C18_25  and  N3_7 
REMARK       I    between atoms: C9_16  and  N3_7 
REMARK    4  A    between atoms: C5_12  and  C7_14 
REMARK    5  A    between atoms: C6_13  and  C9_16 
REMARK    6  A    between atoms: C13_20  and  C17_24 
REMARK    7  A    between atoms: C24_31  and  C25_32 
ROOT
HETATM    1  N1  UNK     1      18.895   3.656  31.346  1.00  0.00     0.096 N 
HETATM    2  N2  UNK     1      19.237   6.330  32.391  1.00  0.00     0.100 N 
HETATM    3  C1  UNK     1      18.031   4.173  32.414  1.00  0.00     0.303 C 
HETATM    4  C2  UNK     1      19.369   4.754  30.493  1.00  0.00     0.303 C 
HETATM    5  C3  UNK     1      18.764   5.232  33.244  1.00  0.00     0.303 C 
HETATM    6  C4  UNK     1      20.102   5.813  31.324  1.00  0.00     0.303 C 
ENDROOT
BRANCH   1   7
HETATM    7  C5  UNK     1      18.193   2.649  30.553  1.00  0.00     0.312 C 
BRANCH   7   8
HETATM    8  C7  UNK     1      18.922   1.350  30.522  1.00  0.00    -0.011 A 
HETATM    9  C10 UNK     1      19.592   0.960  29.428  1.00  0.00     0.092 A 
HETATM   10  C14 UNK     1      20.328  -0.314  29.349  1.00  0.00     0.288 A 
HETATM   11  O1  UNK     1      20.303  -1.118  30.478  1.00  0.00    -0.275 OA
HETATM   12  O3  UNK     1      20.932  -0.636  28.333  1.00  0.00    -0.260 OA
HETATM   13  C11 UNK     1      19.607  -0.734  31.642  1.00  0.00     0.090 A 
HETATM   14  C15 UNK     1      19.650  -1.624  32.717  1.00  0.00     0.039 A 
HETATM   15  C8  UNK     1      18.914   0.475  31.701  1.00  0.00     0.007 A 
HETATM   16  C16 UNK     1      18.981  -1.299  33.892  1.00  0.00     0.010 A 
HETATM   17  C13 UNK     1      18.280  -0.097  33.982  1.00  0.00    -0.058 A 
HETATM   18  C12 UNK     1      18.246   0.784  32.895  1.00  0.00     0.022 A 
BRANCH  17  19
HETATM   19  C17 UNK     1      17.562   0.252  35.242  1.00  0.00     0.034 C 
HETATM   20  C19 UNK     1      16.046   0.195  35.080  1.00  0.00     0.010 C 
ENDBRANCH  17  19
ENDBRANCH   7   8
ENDBRANCH   1   7
BRANCH   2  21
HETATM   21  C6  UNK     1      19.936   7.339  33.184  1.00  0.00     0.375 C 
BRANCH  21  22
HETATM   22  C9  UNK     1      18.955   8.009  34.130  1.00  0.00     0.250 C 
HETATM   23  O2  UNK     1      19.072   7.952  35.350  1.00  0.00    -0.271 OA
HETATM   24  N3  UNK     1      17.962   8.667  33.409  1.00  0.00    -0.326 N 
HETATM   25  H15 UNK     1      18.003   8.618  32.393  1.00  0.00     0.169 HD
BRANCH  24  26
HETATM   26  C18 UNK     1      16.869   9.406  33.920  1.00  0.00     0.034 A 
HETATM   27  C20 UNK     1      15.644   8.777  34.143  1.00  0.00     0.030 A 
HETATM   28  C22 UNK     1      14.566   9.506  34.646  1.00  0.00     0.017 A 
HETATM   29  C24 UNK     1      14.713  10.865  34.925  1.00  0.00     0.009 A 
HETATM   30  C23 UNK     1      15.938  11.495  34.700  1.00  0.00     0.017 A 
HETATM   31  C21 UNK     1      17.015  10.766  34.198  1.00  0.00     0.030 A 
BRANCH  29  32
HETATM   32  C25 UNK     1      13.589  11.625  35.449  1.00  0.00     0.155 C 
HETATM   33  C26 UNK     1      13.509  11.952  36.936  1.00  0.00     0.096 C 
HETATM   34  O4  UNK     1      12.672  12.025  34.705  1.00  0.00    -0.293 OA
ENDBRANCH  29  32
ENDBRANCH  24  26
ENDBRANCH  21  22
ENDBRANCH   2  21
TORSDOF 7
ENDMDL
MODEL 3
REMARK VINA RESULT:      -9.3      1.678      2.050
REMARK  7 active torsions:
REMARK  status: ('A' for Active; 'I' for Inactive)
REMARK    1  A    between atoms: C5_12  and  N1_5 
REMARK    2  A    between atoms: C6_13  and  N2_6 
REMARK    3  A    between atoms: C18_25  and  N3_7 
REMARK       I    between atoms: C9_16  and  N3_7 
REMARK    4  A    between atoms: C5_12  and  C7_14 
REMARK    5  A    between atoms: C6_13  and  C9_16 
REMARK    6  A    between atoms: C13_20  and  C17_24 
REMARK    7  A    between atoms: C24_31  and  C25_32 
ROOT
HETATM    1  N1  UNK     1      18.624   0.877  34.000  1.00  0.00     0.096 N 
HETATM    2  N2  UNK     1      19.414  -1.389  35.612  1.00  0.00     0.100 N 
HETATM    3  C1  UNK     1      18.385  -0.499  33.549  1.00  0.00     0.303 C 
HETATM    4  C2  UNK     1      18.617   0.945  35.467  1.00  0.00     0.303 C 
HETATM    5  C3  UNK     1      19.422  -1.456  34.145  1.00  0.00     0.303 C 
HETATM    6  C4  UNK     1      19.654  -0.012  36.063  1.00  0.00     0.303 C 
ENDROOT
BRANCH   1   7
HETATM    7  C5  UNK     1      17.632   1.789  33.434  1.00  0.00     0.312 C 
BRANCH   7   8
HETATM    8  C7  UNK     1      18.117   2.443  32.187  1.00  0.00    -0.011 A 
HETATM    9  C10 UNK     1      18.295   1.739  31.060  1.00  0.00     0.092 A 
HETATM   10  C14 UNK     1      18.772   2.341  29.803  1.00  0.00     0.288 A 
HETATM   11  O1  UNK     1      19.037   3.702  29.826  1.00  0.00    -0.275 OA
HETATM   12  O3  UNK     1      18.921   1.666  28.792  1.00  0.00    -0.260 OA
HETATM   13  C11 UNK     1      18.859   4.468  30.996  1.00  0.00     0.090 A 
HETATM   14  C15 UNK     1      19.158   5.829  30.902  1.00  0.00     0.039 A 
HETATM   15  C8  UNK     1      18.407   3.883  32.179  1.00  0.00     0.007 A 
HETATM   16  C16 UNK     1      19.003   6.635  32.024  1.00  0.00     0.010 A 
HETATM   17  C13 UNK     1      18.553   6.079  33.221  1.00  0.00    -0.058 A 
HETATM   18  C12 UNK     1      18.257   4.714  33.299  1.00  0.00     0.022 A 
BRANCH  17  19
HETATM   19  C17 UNK     1      18.385   6.944  34.425  1.00  0.00     0.034 C 
HETATM   20  C19 UNK     1      19.393   8.090  34.461  1.00  0.00     0.010 C 
ENDBRANCH  17  19
ENDBRANCH   7   8
ENDBRANCH   1   7
BRANCH   2  21
HETATM   21  C6  UNK     1      20.404  -2.302  36.179  1.00  0.00     0.375 C 
BRANCH  21  22
HETATM   22  C9  UNK     1      19.722  -3.592  36.597  1.00  0.00     0.250 C 
HETATM   23  O2  UNK     1      18.501  -3.708  36.648  1.00  0.00    -0.271 OA
HETATM   24  N3  UNK     1      20.672  -4.568  36.890  1.00  0.00    -0.326 N 
HETATM   25  H15 UNK     1      21.654  -4.314  36.802  1.00  0.00     0.169 HD
BRANCH  24  26
HETATM   26  C18 UNK     1      20.443  -5.898  37.315  1.00  0.00     0.034 A 
HETATM   27  C20 UNK     1      20.346  -6.190  38.675  1.00  0.00     0.030 A 
HETATM   28  C22 UNK     1      20.121  -7.501  39.094  1.00  0.00     0.017 A 
HETATM   29  C24 UNK     1      19.994  -8.522  38.151  1.00  0.00     0.009 A 
HETATM   30  C23 UNK     1      20.091  -8.230  36.790  1.00  0.00     0.017 A 
HETATM   31  C21 UNK     1      20.316  -6.919  36.372  1.00  0.00     0.030 A 
BRANCH  29  32
HETATM   32  C25 UNK     1      19.759  -9.889  38.587  1.00  0.00     0.155 C 
HETATM   33  C26 UNK     1      19.751 -11.029  37.574  1.00  0.00     0.096 C 
HETATM   34  O4  UNK     1      19.562 -10.163  39.787  1.00  0.00    -0.293 OA
ENDBRANCH  29  32
ENDBRANCH  24  26
ENDBRANCH  21  22
ENDBRANCH   2  21
TORSDOF 7
ENDMDL
MODEL 4
REMARK VINA RESULT:      -9.2      9.090     12.846
REMARK  7 active torsions:
REMARK  status: ('A' for Active; 'I' for Inactive)
REMARK    1  A    between atoms: C5_12  and  N1_5 
REMARK    2  A    between atoms: C6_13  and  N2_6 
REMARK    3  A    between atoms: C18_25  and  N3_7 
REMARK       I    between atoms: C9_16  and  N3_7 
REMARK    4  A    between atoms: C5_12  and  C7_14 
REMARK    5  A    between atoms: C6_13  and  C9_16 
REMARK    6  A    between atoms: C13_20  and  C17_24 
REMARK    7  A    between atoms: C24_31  and  C25_32 
ROOT
HETATM    1  N1  UNK     1      25.217  -7.772  38.790  1.00  0.00     0.096 N 
HETATM    2  N2  UNK     1      28.007  -7.129  39.190  1.00  0.00     0.100 N 
HETATM    3  C1  UNK     1      26.145  -8.741  39.384  1.00  0.00     0.303 C 
HETATM    4  C2  UNK     1      25.649  -6.400  39.087  1.00  0.00     0.303 C 
HETATM    5  C3  UNK     1      27.576  -8.500  38.892  1.00  0.00     0.303 C 
HETATM    6  C4  UNK     1      27.080  -6.159  38.595  1.00  0.00     0.303 C 
ENDROOT
BRANCH   1   7
HETATM    7  C5  UNK     1      23.854  -8.001  39.263  1.00  0.00     0.312 C 
BRANCH   7   8
HETATM    8  C7  UNK     1      22.833  -7.592  38.258  1.00  0.00    -0.011 A 
HETATM    9  C10 UNK     1      22.193  -6.419  38.359  1.00  0.00     0.092 A 
HETATM   10  C14 UNK     1      21.178  -5.971  37.390  1.00  0.00     0.288 A 
HETATM   11  O1  UNK     1      20.899  -6.831  36.338  1.00  0.00    -0.275 OA
HETATM   12  O3  UNK     1      20.615  -4.890  37.514  1.00  0.00    -0.260 OA
HETATM   13  C11 UNK     1      21.556  -8.071  36.207  1.00  0.00     0.090 A 
HETATM   14  C15 UNK     1      21.195  -8.855  35.109  1.00  0.00     0.039 A 
HETATM   15  C8  UNK     1      22.515  -8.481  37.132  1.00  0.00     0.007 A 
HETATM   16  C16 UNK     1      21.808 -10.089  34.926  1.00  0.00     0.010 A 
HETATM   17  C13 UNK     1      22.771 -10.526  35.835  1.00  0.00    -0.058 A 
HETATM   18  C12 UNK     1      23.122  -9.729  36.931  1.00  0.00     0.022 A 
BRANCH  17  19
HETATM   19  C17 UNK     1      23.430 -11.851  35.640  1.00  0.00     0.034 C 
HETATM   20  C19 UNK     1      24.903 -11.828  36.037  1.00  0.00     0.010 C 
ENDBRANCH  17  19
ENDBRANCH   7   8
ENDBRANCH   1   7
BRANCH   2  21
HETATM   21  C6  UNK     1      29.372  -6.900  38.720  1.00  0.00     0.375 C 
BRANCH  21  22
HETATM   22  C9  UNK     1      29.336  -6.075  37.445  1.00  0.00     0.250 C 
HETATM   23  O2  UNK     1      29.365  -4.848  37.452  1.00  0.00    -0.271 OA
HETATM   24  N3  UNK     1      29.275  -6.909  36.332  1.00  0.00    -0.326 N 
HETATM   25  H15 UNK     1      29.256  -7.914  36.494  1.00  0.00     0.169 HD
BRANCH  24  26
HETATM   26  C18 UNK     1      29.227  -6.530  34.970  1.00  0.00     0.034 A 
HETATM   27  C20 UNK     1      28.018  -6.577  34.275  1.00  0.00     0.030 A 
HETATM   28  C22 UNK     1      27.970  -6.205  32.931  1.00  0.00     0.017 A 
HETATM   29  C24 UNK     1      29.133  -5.786  32.282  1.00  0.00     0.009 A 
HETATM   30  C23 UNK     1      30.341  -5.740  32.977  1.00  0.00     0.017 A 
HETATM   31  C21 UNK     1      30.388  -6.112  34.320  1.00  0.00     0.030 A 
BRANCH  29  32
HETATM   32  C25 UNK     1      29.083  -5.398  30.881  1.00  0.00     0.155 C 
HETATM   33  C26 UNK     1      28.110  -6.083  29.928  1.00  0.00     0.096 C 
HETATM   34  O4  UNK     1      29.824  -4.504  30.428  1.00  0.00    -0.293 OA
ENDBRANCH  29  32
ENDBRANCH  24  26
ENDBRANCH  21  22
ENDBRANCH   2  21
TORSDOF 7
ENDMDL
MODEL 5
REMARK VINA RESULT:      -9.2      2.112      3.689
REMARK  7 active torsions:
REMARK  status: ('A' for Active; 'I' for Inactive)
REMARK    1  A    between atoms: C5_12  and  N1_5 
REMARK    2  A    between atoms: C6_13  and  N2_6 
REMARK    3  A    between atoms: C18_25  and  N3_7 
REMARK       I    between atoms: C9_16  and  N3_7 
REMARK    4  A    between atoms: C5_12  and  C7_14 
REMARK    5  A    between atoms: C6_13  and  C9_16 
REMARK    6  A    between atoms: C13_20  and  C17_24 
REMARK    7  A    between atoms: C24_31  and  C25_32 
ROOT
HETATM    1  N1  UNK     1      18.503   0.962  34.298  1.00  0.00     0.096 N 
HETATM    2  N2  UNK     1      19.299  -1.536  35.516  1.00  0.00     0.100 N 
HETATM    3  C1  UNK     1      18.343  -0.315  33.592  1.00  0.00     0.303 C 
HETATM    4  C2  UNK     1      18.417   0.760  35.750  1.00  0.00     0.303 C 
HETATM    5  C3  UNK     1      19.386  -1.333  34.064  1.00  0.00     0.303 C 
HETATM    6  C4  UNK     1      19.460  -0.259  36.222  1.00  0.00     0.303 C 
ENDROOT
BRANCH   1   7
HETATM    7  C5  UNK     1      17.505   1.931  33.850  1.00  0.00     0.312 C 
BRANCH   7   8
HETATM    8  C7  UNK     1      18.129   3.190  33.352  1.00  0.00    -0.011 A 
HETATM    9  C10 UNK     1      18.486   4.166  34.198  1.00  0.00     0.092 A 
HETATM   10  C14 UNK     1      19.105   5.427  33.755  1.00  0.00     0.288 A 
HETATM   11  O1  UNK     1      19.312   5.573  32.391  1.00  0.00    -0.275 OA
HETATM   12  O3  UNK     1      19.421   6.296  34.558  1.00  0.00    -0.260 OA
HETATM   13  C11 UNK     1      18.946   4.564  31.478  1.00  0.00     0.090 A 
HETATM   14  C15 UNK     1      19.201   4.821  30.129  1.00  0.00     0.039 A 
HETATM   15  C8  UNK     1      18.360   3.375  31.913  1.00  0.00     0.007 A 
HETATM   16  C16 UNK     1      18.861   3.862  29.181  1.00  0.00     0.010 A 
HETATM   17  C13 UNK     1      18.274   2.664  29.586  1.00  0.00    -0.058 A 
HETATM   18  C12 UNK     1      18.025   2.422  30.942  1.00  0.00     0.022 A 
BRANCH  17  19
HETATM   19  C17 UNK     1      17.909   1.634  28.569  1.00  0.00     0.034 C 
HETATM   20  C19 UNK     1      18.884   0.461  28.557  1.00  0.00     0.010 C 
ENDBRANCH  17  19
ENDBRANCH   7   8
ENDBRANCH   1   7
BRANCH   2  21
HETATM   21  C6  UNK     1      20.294  -2.508  35.965  1.00  0.00     0.375 C 
BRANCH  21  22
HETATM   22  C9  UNK     1      19.594  -3.773  36.428  1.00  0.00     0.250 C 
HETATM   23  O2  UNK     1      18.405  -3.796  36.734  1.00  0.00    -0.271 OA
HETATM   24  N3  UNK     1      20.486  -4.843  36.436  1.00  0.00    -0.326 N 
HETATM   25  H15 UNK     1      21.447  -4.660  36.155  1.00  0.00     0.169 HD
BRANCH  24  26
HETATM   26  C18 UNK     1      20.223  -6.184  36.804  1.00  0.00     0.034 A 
HETATM   27  C20 UNK     1      20.113  -6.530  38.150  1.00  0.00     0.030 A 
HETATM   28  C22 UNK     1      19.856  -7.852  38.513  1.00  0.00     0.017 A 
HETATM   29  C24 UNK     1      19.709  -8.829  37.527  1.00  0.00     0.009 A 
HETATM   30  C23 UNK     1      19.820  -8.483  36.180  1.00  0.00     0.017 A 
HETATM   31  C21 UNK     1      20.077  -7.161  35.819  1.00  0.00     0.030 A 
BRANCH  29  32
HETATM   32  C25 UNK     1      19.441 -10.208  37.905  1.00  0.00     0.155 C 
HETATM   33  C26 UNK     1      19.313 -10.591  39.375  1.00  0.00     0.096 C 
HETATM   34  O4  UNK     1      19.309 -11.103  37.047  1.00  0.00    -0.293 OA
ENDBRANCH  29  32
ENDBRANCH  24  26
ENDBRANCH  21  22
ENDBRANCH   2  21
TORSDOF 7
ENDMDL
MODEL 6
REMARK VINA RESULT:      -9.1     12.964     17.526
REMARK  7 active torsions:
REMARK  status: ('A' for Active; 'I' for Inactive)
REMARK    1  A    between atoms: C5_12  and  N1_5 
REMARK    2  A    between atoms: C6_13  and  N2_6 
REMARK    3  A    between atoms: C18_25  and  N3_7 
REMARK       I    between atoms: C9_16  and  N3_7 
REMARK    4  A    between atoms: C5_12  and  C7_14 
REMARK    5  A    between atoms: C6_13  and  C9_16 
REMARK    6  A    between atoms: C13_20  and  C17_24 
REMARK    7  A    between atoms: C24_31  and  C25_32 
ROOT
HETATM    1  N1  UNK     1      31.904  -5.948  35.874  1.00  0.00     0.096 N 
HETATM    2  N2  UNK     1      34.483  -6.710  34.811  1.00  0.00     0.100 N 
HETATM    3  C1  UNK     1      32.725  -4.999  35.112  1.00  0.00     0.303 C 
HETATM    4  C2  UNK     1      32.173  -7.325  35.438  1.00  0.00     0.303 C 
HETATM    5  C3  UNK     1      34.214  -5.334  35.248  1.00  0.00     0.303 C 
HETATM    6  C4  UNK     1      33.662  -7.659  35.574  1.00  0.00     0.303 C 
ENDROOT
BRANCH   1   7
HETATM    7  C5  UNK     1      30.484  -5.630  35.740  1.00  0.00     0.312 C 
BRANCH   7   8
HETATM    8  C7  UNK     1      29.792  -5.584  37.059  1.00  0.00    -0.011 A 
HETATM    9  C10 UNK     1      30.028  -4.592  37.930  1.00  0.00     0.092 A 
HETATM   10  C14 UNK     1      29.368  -4.503  39.244  1.00  0.00     0.288 A 
HETATM   11  O1  UNK     1      28.468  -5.511  39.558  1.00  0.00    -0.275 OA
HETATM   12  O3  UNK     1      29.607  -3.580  40.013  1.00  0.00    -0.260 OA
HETATM   13  C11 UNK     1      28.201  -6.566  38.662  1.00  0.00     0.090 A 
HETATM   14  C15 UNK     1      27.277  -7.524  39.085  1.00  0.00     0.039 A 
HETATM   15  C8  UNK     1      28.833  -6.636  37.421  1.00  0.00     0.007 A 
HETATM   16  C16 UNK     1      26.973  -8.589  38.245  1.00  0.00     0.010 A 
HETATM   17  C13 UNK     1      27.589  -8.686  36.998  1.00  0.00    -0.058 A 
HETATM   18  C12 UNK     1      28.513  -7.718  36.589  1.00  0.00     0.022 A 
BRANCH  17  19
HETATM   19  C17 UNK     1      27.263  -9.829  36.095  1.00  0.00     0.034 C 
HETATM   20  C19 UNK     1      26.033 -10.602  36.560  1.00  0.00     0.010 C 
ENDBRANCH  17  19
ENDBRANCH   7   8
ENDBRANCH   1   7
BRANCH   2  21
HETATM   21  C6  UNK     1      35.903  -7.029  34.942  1.00  0.00     0.375 C 
BRANCH  21  22
HETATM   22  C9  UNK     1      36.466  -7.397  33.580  1.00  0.00     0.250 C 
HETATM   23  O2  UNK     1      36.678  -6.562  32.706  1.00  0.00    -0.271 OA
HETATM   24  N3  UNK     1      36.693  -8.769  33.507  1.00  0.00    -0.326 N 
HETATM   25  H15 UNK     1      36.462  -9.331  34.323  1.00  0.00     0.169 HD
BRANCH  24  26
HETATM   26  C18 UNK     1      37.209  -9.502  32.412  1.00  0.00     0.034 A 
HETATM   27  C20 UNK     1      36.508  -9.543  31.207  1.00  0.00     0.030 A 
HETATM   28  C22 UNK     1      37.016 -10.267  30.128  1.00  0.00     0.017 A 
HETATM   29  C24 UNK     1      38.226 -10.951  30.255  1.00  0.00     0.009 A 
HETATM   30  C23 UNK     1      38.926 -10.911  31.461  1.00  0.00     0.017 A 
HETATM   31  C21 UNK     1      38.418 -10.187  32.539  1.00  0.00     0.030 A 
BRANCH  29  32
HETATM   32  C25 UNK     1      38.755 -11.706  29.130  1.00  0.00     0.155 C 
HETATM   33  C26 UNK     1      39.761 -12.827  29.362  1.00  0.00     0.096 C 
HETATM   34  O4  UNK     1      38.403 -11.460  27.960  1.00  0.00    -0.293 OA
ENDBRANCH  29  32
ENDBRANCH  24  26
ENDBRANCH  21  22
ENDBRANCH   2  21
TORSDOF 7
ENDMDL
MODEL 7
REMARK VINA RESULT:      -9.1      9.011     12.686
REMARK  7 active torsions:
REMARK  status: ('A' for Active; 'I' for Inactive)
REMARK    1  A    between atoms: C5_12  and  N1_5 
REMARK    2  A    between atoms: C6_13  and  N2_6 
REMARK    3  A    between atoms: C18_25  and  N3_7 
REMARK       I    between atoms: C9_16  and  N3_7 
REMARK    4  A    between atoms: C5_12  and  C7_14 
REMARK    5  A    between atoms: C6_13  and  C9_16 
REMARK    6  A    between atoms: C13_20  and  C17_24 
REMARK    7  A    between atoms: C24_31  and  C25_32 
ROOT
HETATM    1  N1  UNK     1      28.911  -8.234  36.162  1.00  0.00     0.096 N 
HETATM    2  N2  UNK     1      27.214  -9.034  38.361  1.00  0.00     0.100 N 
HETATM    3  C1  UNK     1      29.416  -8.272  37.539  1.00  0.00     0.303 C 
HETATM    4  C2  UNK     1      27.843  -9.225  35.979  1.00  0.00     0.303 C 
HETATM    5  C3  UNK     1      28.282  -8.043  38.543  1.00  0.00     0.303 C 
HETATM    6  C4  UNK     1      26.708  -8.996  36.983  1.00  0.00     0.303 C 
ENDROOT
BRANCH   1   7
HETATM    7  C5  UNK     1      29.994  -8.456  35.206  1.00  0.00     0.312 C 
BRANCH   7   8
HETATM    8  C7  UNK     1      30.465  -7.187  34.584  1.00  0.00    -0.011 A 
HETATM    9  C10 UNK     1      31.430  -6.453  35.156  1.00  0.00     0.092 A 
HETATM   10  C14 UNK     1      31.929  -5.193  34.580  1.00  0.00     0.288 A 
HETATM   11  O1  UNK     1      31.348  -4.779  33.390  1.00  0.00    -0.275 OA
HETATM   12  O3  UNK     1      32.815  -4.549  35.130  1.00  0.00    -0.260 OA
HETATM   13  C11 UNK     1      30.330  -5.530  32.767  1.00  0.00     0.090 A 
HETATM   14  C15 UNK     1      29.819  -5.016  31.573  1.00  0.00     0.039 A 
HETATM   15  C8  UNK     1      29.869  -6.722  33.325  1.00  0.00     0.007 A 
HETATM   16  C16 UNK     1      28.813  -5.713  30.912  1.00  0.00     0.010 A 
HETATM   17  C13 UNK     1      28.331  -6.907  31.446  1.00  0.00    -0.058 A 
HETATM   18  C12 UNK     1      28.854  -7.409  32.643  1.00  0.00     0.022 A 
BRANCH  17  19
HETATM   19  C17 UNK     1      27.252  -7.656  30.737  1.00  0.00     0.034 C 
HETATM   20  C19 UNK     1      26.112  -6.745  30.291  1.00  0.00     0.010 C 
ENDBRANCH  17  19
ENDBRANCH   7   8
ENDBRANCH   1   7
BRANCH   2  21
HETATM   21  C6  UNK     1      26.132  -8.815  39.318  1.00  0.00     0.375 C 
BRANCH  21  22
HETATM   22  C9  UNK     1      25.059  -7.950  38.680  1.00  0.00     0.250 C 
HETATM   23  O2  UNK     1      25.198  -6.742  38.513  1.00  0.00    -0.271 OA
HETATM   24  N3  UNK     1      23.956  -8.726  38.332  1.00  0.00    -0.326 N 
HETATM   25  H15 UNK     1      23.994  -9.722  38.541  1.00  0.00     0.169 HD
BRANCH  24  26
HETATM   26  C18 UNK     1      22.756  -8.297  37.719  1.00  0.00     0.034 A 
HETATM   27  C20 UNK     1      22.401  -8.785  36.461  1.00  0.00     0.030 A 
HETATM   28  C22 UNK     1      21.218  -8.361  35.855  1.00  0.00     0.017 A 
HETATM   29  C24 UNK     1      20.390  -7.446  36.508  1.00  0.00     0.009 A 
HETATM   30  C23 UNK     1      20.746  -6.957  37.765  1.00  0.00     0.017 A 
HETATM   31  C21 UNK     1      21.928  -7.382  38.370  1.00  0.00     0.030 A 
BRANCH  29  32
HETATM   32  C25 UNK     1      19.157  -7.004  35.876  1.00  0.00     0.155 C 
HETATM   33  C26 UNK     1      18.022  -6.436  36.721  1.00  0.00     0.096 C 
HETATM   34  O4  UNK     1      18.998  -7.075  34.642  1.00  0.00    -0.293 OA
ENDBRANCH  29  32
ENDBRANCH  24  26
ENDBRANCH  21  22
ENDBRANCH   2  21
TORSDOF 7
ENDMDL
MODEL 8
REMARK VINA RESULT:      -9.1      8.080     12.655
REMARK  7 active torsions:
REMARK  status: ('A' for Active; 'I' for Inactive)
REMARK    1  A    between atoms: C5_12  and  N1_5 
REMARK    2  A    between atoms: C6_13  and  N2_6 
REMARK    3  A    between atoms: C18_25  and  N3_7 
REMARK       I    between atoms: C9_16  and  N3_7 
REMARK    4  A    between atoms: C5_12  and  C7_14 
REMARK    5  A    between atoms: C6_13  and  C9_16 
REMARK    6  A    between atoms: C13_20  and  C17_24 
REMARK    7  A    between atoms: C24_31  and  C25_32 
ROOT
HETATM    1  N1  UNK     1      23.764  -9.241  37.259  1.00  0.00     0.096 N 
HETATM    2  N2  UNK     1      26.235  -8.314  38.438  1.00  0.00     0.100 N 
HETATM    3  C1  UNK     1      23.823  -7.983  38.012  1.00  0.00     0.303 C 
HETATM    4  C2  UNK     1      25.061  -9.527  36.633  1.00  0.00     0.303 C 
HETATM    5  C3  UNK     1      24.937  -8.029  39.063  1.00  0.00     0.303 C 
HETATM    6  C4  UNK     1      26.175  -9.573  37.684  1.00  0.00     0.303 C 
ENDROOT
BRANCH   1   7
HETATM    7  C5  UNK     1      22.703  -9.194  36.254  1.00  0.00     0.312 C 
BRANCH   7   8
HETATM    8  C7  UNK     1      21.351  -9.368  36.855  1.00  0.00    -0.011 A 
HETATM    9  C10 UNK     1      20.974 -10.541  37.381  1.00  0.00     0.092 A 
HETATM   10  C14 UNK     1      19.649 -10.762  37.987  1.00  0.00     0.288 A 
HETATM   11  O1  UNK     1      18.780  -9.681  37.994  1.00  0.00    -0.275 OA
HETATM   12  O3  UNK     1      19.340 -11.849  38.460  1.00  0.00    -0.260 OA
HETATM   13  C11 UNK     1      19.150  -8.435  37.448  1.00  0.00     0.090 A 
HETATM   14  C15 UNK     1      18.194  -7.418  37.511  1.00  0.00     0.039 A 
HETATM   15  C8  UNK     1      20.408  -8.242  36.878  1.00  0.00     0.007 A 
HETATM   16  C16 UNK     1      18.500  -6.167  36.987  1.00  0.00     0.010 A 
HETATM   17  C13 UNK     1      19.750  -5.944  36.411  1.00  0.00    -0.058 A 
HETATM   18  C12 UNK     1      20.697  -6.973  36.356  1.00  0.00     0.022 A 
BRANCH  17  19
HETATM   19  C17 UNK     1      20.080  -4.601  35.849  1.00  0.00     0.034 C 
HETATM   20  C19 UNK     1      20.420  -3.586  36.936  1.00  0.00     0.010 C 
ENDBRANCH  17  19
ENDBRANCH   7   8
ENDBRANCH   1   7
BRANCH   2  21
HETATM   21  C6  UNK     1      27.297  -8.359  39.441  1.00  0.00     0.375 C 
BRANCH  21  22
HETATM   22  C9  UNK     1      28.333  -7.294  39.129  1.00  0.00     0.250 C 
HETATM   23  O2  UNK     1      28.262  -6.152  39.573  1.00  0.00    -0.271 OA
HETATM   24  N3  UNK     1      29.326  -7.814  38.302  1.00  0.00    -0.326 N 
HETATM   25  H15 UNK     1      29.241  -8.787  38.015  1.00  0.00     0.169 HD
BRANCH  24  26
HETATM   26  C18 UNK     1      30.461  -7.145  37.788  1.00  0.00     0.034 A 
HETATM   27  C20 UNK     1      30.326  -6.261  36.718  1.00  0.00     0.030 A 
HETATM   28  C22 UNK     1      31.446  -5.601  36.210  1.00  0.00     0.017 A 
HETATM   29  C24 UNK     1      32.703  -5.827  36.774  1.00  0.00     0.009 A 
HETATM   30  C23 UNK     1      32.838  -6.712  37.844  1.00  0.00     0.017 A 
HETATM   31  C21 UNK     1      31.718  -7.370  38.350  1.00  0.00     0.030 A 
BRANCH  29  32
HETATM   32  C25 UNK     1      33.870  -5.140  36.245  1.00  0.00     0.155 C 
HETATM   33  C26 UNK     1      33.701  -3.953  35.302  1.00  0.00     0.096 C 
HETATM   34  O4  UNK     1      35.026  -5.497  36.545  1.00  0.00    -0.293 OA
ENDBRANCH  29  32
ENDBRANCH  24  26
ENDBRANCH  21  22
ENDBRANCH   2  21
TORSDOF 7
ENDMDL
MODEL 9
REMARK VINA RESULT:      -9.0     26.575     28.801
REMARK  7 active torsions:
REMARK  status: ('A' for Active; 'I' for Inactive)
REMARK    1  A    between atoms: C5_12  and  N1_5 
REMARK    2  A    between atoms: C6_13  and  N2_6 
REMARK    3  A    between atoms: C18_25  and  N3_7 
REMARK       I    between atoms: C9_16  and  N3_7 
REMARK    4  A    between atoms: C5_12  and  C7_14 
REMARK    5  A    between atoms: C6_13  and  C9_16 
REMARK    6  A    between atoms: C13_20  and  C17_24 
REMARK    7  A    between atoms: C24_31  and  C25_32 
ROOT
HETATM    1  N1  UNK     1      14.625   9.849  10.183  1.00  0.00     0.096 N 
HETATM    2  N2  UNK     1      16.897  11.016   8.830  1.00  0.00     0.100 N 
HETATM    3  C1  UNK     1      14.813   9.692   8.736  1.00  0.00     0.303 C 
HETATM    4  C2  UNK     1      15.922   9.994  10.856  1.00  0.00     0.303 C 
HETATM    5  C3  UNK     1      15.600  10.872   8.157  1.00  0.00     0.303 C 
HETATM    6  C4  UNK     1      16.709  11.174  10.277  1.00  0.00     0.303 C 
ENDROOT
BRANCH   1   7
HETATM    7  C5  UNK     1      13.877   8.721  10.734  1.00  0.00     0.312 C 
BRANCH   7   8
HETATM    8  C7  UNK     1      14.147   7.454   9.998  1.00  0.00    -0.011 A 
HETATM    9  C10 UNK     1      15.359   6.881  10.029  1.00  0.00     0.092 A 
HETATM   10  C14 UNK     1      15.675   5.630   9.319  1.00  0.00     0.288 A 
HETATM   11  O1  UNK     1      14.644   5.048   8.595  1.00  0.00    -0.275 OA
HETATM   12  O3  UNK     1      16.794   5.134   9.373  1.00  0.00    -0.260 OA
HETATM   13  C11 UNK     1      13.361   5.628   8.544  1.00  0.00     0.090 A 
HETATM   14  C15 UNK     1      12.402   4.954   7.784  1.00  0.00     0.039 A 
HETATM   15  C8  UNK     1      13.077   6.813   9.222  1.00  0.00     0.007 A 
HETATM   16  C16 UNK     1      11.117   5.479   7.695  1.00  0.00     0.010 A 
HETATM   17  C13 UNK     1      10.804   6.662   8.362  1.00  0.00    -0.058 A 
HETATM   18  C12 UNK     1      11.776   7.326   9.120  1.00  0.00     0.022 A 
BRANCH  17  19
HETATM   19  C17 UNK     1       9.425   7.226   8.268  1.00  0.00     0.034 C 
HETATM   20  C19 UNK     1       8.602   6.563   7.167  1.00  0.00     0.010 C 
ENDBRANCH  17  19
ENDBRANCH   7   8
ENDBRANCH   1   7
BRANCH   2  21
HETATM   21  C6  UNK     1      17.647  12.142   8.277  1.00  0.00     0.375 C 
BRANCH  21  22
HETATM   22  C9  UNK     1      19.134  11.907   8.476  1.00  0.00     0.250 C 
HETATM   23  O2  UNK     1      19.759  11.061   7.843  1.00  0.00    -0.271 OA
HETATM   24  N3  UNK     1      19.635  12.774   9.444  1.00  0.00    -0.326 N 
HETATM   25  H15 UNK     1      18.982  13.420   9.884  1.00  0.00     0.169 HD
BRANCH  24  26
HETATM   26  C18 UNK     1      20.966  12.869   9.914  1.00  0.00     0.034 A 
HETATM   27  C20 UNK     1      21.394  12.058  10.965  1.00  0.00     0.030 A 
HETATM   28  C22 UNK     1      22.707  12.152  11.430  1.00  0.00     0.017 A 
HETATM   29  C24 UNK     1      23.591  13.059  10.843  1.00  0.00     0.009 A 
HETATM   30  C23 UNK     1      23.161  13.870   9.792  1.00  0.00     0.017 A 
HETATM   31  C21 UNK     1      21.850  13.775   9.328  1.00  0.00     0.030 A 
BRANCH  29  32
HETATM   32  C25 UNK     1      24.958  13.157  11.327  1.00  0.00     0.155 C 
HETATM   33  C26 UNK     1      25.236  13.583  12.764  1.00  0.00     0.096 C 
HETATM   34  O4  UNK     1      25.929  12.898  10.589  1.00  0.00    -0.293 OA
ENDBRANCH  29  32
ENDBRANCH  24  26
ENDBRANCH  21  22
ENDBRANCH   2  21
TORSDOF 7
ENDMDL
MODEL 10
REMARK VINA RESULT:      -9.0     13.267     16.390
REMARK  7 active torsions:
REMARK  status: ('A' for Active; 'I' for Inactive)
REMARK    1  A    between atoms: C5_12  and  N1_5 
REMARK    2  A    between atoms: C6_13  and  N2_6 
REMARK    3  A    between atoms: C18_25  and  N3_7 
REMARK       I    between atoms: C9_16  and  N3_7 
REMARK    4  A    between atoms: C5_12  and  C7_14 
REMARK    5  A    between atoms: C6_13  and  C9_16 
REMARK    6  A    between atoms: C13_20  and  C17_24 
REMARK    7  A    between atoms: C24_31  and  C25_32 
ROOT
HETATM    1  N1  UNK     1      32.809  -8.048  29.449  1.00  0.00     0.096 N 
HETATM    2  N2  UNK     1      35.240  -8.509  30.943  1.00  0.00     0.100 N 
HETATM    3  C1  UNK     1      34.054  -7.347  29.113  1.00  0.00     0.303 C 
HETATM    4  C2  UNK     1      33.102  -9.358  30.043  1.00  0.00     0.303 C 
HETATM    5  C3  UNK     1      34.947  -7.198  30.349  1.00  0.00     0.303 C 
HETATM    6  C4  UNK     1      33.994  -9.209  31.280  1.00  0.00     0.303 C 
ENDROOT
BRANCH   1   7
HETATM    7  C5  UNK     1      31.960  -8.192  28.267  1.00  0.00     0.312 C 
BRANCH   7   8
HETATM    8  C7  UNK     1      30.564  -8.572  28.622  1.00  0.00    -0.011 A 
HETATM    9  C10 UNK     1      30.019  -9.709  28.166  1.00  0.00     0.092 A 
HETATM   10  C14 UNK     1      28.644 -10.127  28.489  1.00  0.00     0.288 A 
HETATM   11  O1  UNK     1      27.911  -9.278  29.305  1.00  0.00    -0.275 OA
HETATM   12  O3  UNK     1      28.181 -11.175  28.056  1.00  0.00    -0.260 OA
HETATM   13  C11 UNK     1      28.457  -8.076  29.798  1.00  0.00     0.090 A 
HETATM   14  C15 UNK     1      27.627  -7.300  30.610  1.00  0.00     0.039 A 
HETATM   15  C8  UNK     1      29.761  -7.694  29.483  1.00  0.00     0.007 A 
HETATM   16  C16 UNK     1      28.110  -6.103  31.125  1.00  0.00     0.010 A 
HETATM   17  C13 UNK     1      29.409  -5.694  30.828  1.00  0.00    -0.058 A 
HETATM   18  C12 UNK     1      30.229  -6.483  30.013  1.00  0.00     0.022 A 
BRANCH  17  19
HETATM   19  C17 UNK     1      29.929  -4.409  31.381  1.00  0.00     0.034 C 
HETATM   20  C19 UNK     1      30.017  -3.315  30.321  1.00  0.00     0.010 C 
ENDBRANCH  17  19
ENDBRANCH   7   8
ENDBRANCH   1   7
BRANCH   2  21
HETATM   21  C6  UNK     1      36.091  -8.366  32.123  1.00  0.00     0.375 C 
BRANCH  21  22
HETATM   22  C9  UNK     1      35.250  -7.912  33.302  1.00  0.00     0.250 C 
HETATM   23  O2  UNK     1      34.995  -8.645  34.253  1.00  0.00    -0.271 OA
HETATM   24  N3  UNK     1      34.846  -6.590  33.126  1.00  0.00    -0.326 N 
HETATM   25  H15 UNK     1      35.139  -6.115  32.275  1.00  0.00     0.169 HD
BRANCH  24  26
HETATM   26  C18 UNK     1      34.053  -5.806  33.997  1.00  0.00     0.034 A 
HETATM   27  C20 UNK     1      32.665  -5.949  33.996  1.00  0.00     0.030 A 
HETATM   28  C22 UNK     1      31.883  -5.175  34.853  1.00  0.00     0.017 A 
HETATM   29  C24 UNK     1      32.489  -4.256  35.711  1.00  0.00     0.009 A 
HETATM   30  C23 UNK     1      33.877  -4.113  35.712  1.00  0.00     0.017 A 
HETATM   31  C21 UNK     1      34.658  -4.887  34.855  1.00  0.00     0.030 A 
BRANCH  29  32
HETATM   32  C25 UNK     1      31.674  -3.449  36.605  1.00  0.00     0.155 C 
HETATM   33  C26 UNK     1      30.665  -4.114  37.535  1.00  0.00     0.096 C 
HETATM   34  O4  UNK     1      31.776  -2.207  36.635  1.00  0.00    -0.293 OA
ENDBRANCH  29  32
ENDBRANCH  24  26
ENDBRANCH  21  22
ENDBRANCH   2  21
TORSDOF 7
ENDMDL
