MODEL 1
REMARK VINA RESULT:     -10.0      0.000      0.000
REMARK  6 active torsions:
REMARK  status: ('A' for Active; 'I' for Inactive)
REMARK    1  A    between atoms: C11_20  and  O2_4 
REMARK    2  A    between atoms: C14_23  and  O3_5 
REMARK    3  A    between atoms: C3_12  and  N1_9 
REMARK       I    between atoms: C9_18  and  N1_9 
REMARK    4  A    between atoms: C1_10  and  C8_17 
REMARK    5  A    between atoms: C14_23  and  C2_11 
REMARK    6  A    between atoms: C5_14  and  C9_18 
ROOT
HETATM    1  O4  UNK     1      19.260  -2.072  36.569  1.00  0.00    -0.267 OA
HETATM    2  N1  UNK     1      19.958  -3.889  35.236  1.00  0.00    -0.316 N 
HETATM    3  C9  UNK     1      19.534  -2.592  35.490  1.00  0.00     0.262 C 
HETATM    4  H2  UNK     1      20.165  -4.171  34.281  1.00  0.00     0.169 HD
ENDROOT
BRANCH   2   5
HETATM    5  C3  UNK     1      20.163  -4.891  36.189  1.00  0.00     0.094 A 
HETATM    6  C2  UNK     1      19.904  -6.224  36.137  1.00  0.00     0.085 A 
HETATM    7  C1  UNK     1      20.280  -6.867  37.352  1.00  0.00     0.007 A 
HETATM    8  C10 UNK     1      20.807  -5.981  38.266  1.00  0.00     0.065 A 
HETATM    9  S1  UNK     1      20.848  -4.380  37.659  1.00  0.00    -0.082 SA
BRANCH   6  10
HETATM   10  C14 UNK     1      19.324  -6.872  34.987  1.00  0.00     0.296 C 
HETATM   11  O6  UNK     1      19.885  -6.955  33.885  1.00  0.00    -0.259 OA
BRANCH  10  12
HETATM   12  O3  UNK     1      18.072  -7.402  35.217  1.00  0.00    -0.322 OA
HETATM   13  C21 UNK     1      17.192  -6.640  36.051  1.00  0.00     0.213 C 
ENDBRANCH  10  12
ENDBRANCH   6  10
BRANCH   7  14
HETATM   14  C8  UNK     1      20.142  -8.307  37.648  1.00  0.00     0.016 A 
HETATM   15  C17 UNK     1      19.239  -8.834  38.543  1.00  0.00     0.020 A 
HETATM   16  C18 UNK     1      19.332 -10.253  38.624  1.00  0.00     0.008 A 
HETATM   17  C19 UNK     1      20.302 -10.756  37.786  1.00  0.00     0.050 A 
HETATM   18  S2  UNK     1      21.096  -9.520  36.907  1.00  0.00    -0.101 SA
ENDBRANCH   7  14
ENDBRANCH   2   5
BRANCH   3  19
HETATM   19  C5  UNK     1      19.423  -1.802  34.257  1.00  0.00     0.108 A 
HETATM   20  C13 UNK     1      18.647  -0.542  34.200  1.00  0.00     0.304 A 
HETATM   21  O1  UNK     1      18.617   0.118  32.975  1.00  0.00    -0.271 OA
HETATM   22  O5  UNK     1      18.059  -0.097  35.180  1.00  0.00    -0.259 OA
HETATM   23  C6  UNK     1      19.288  -0.384  31.843  1.00  0.00     0.123 A 
HETATM   24  C11 UNK     1      19.198   0.346  30.660  1.00  0.00     0.102 A 
HETATM   25  C4  UNK     1      20.010  -1.571  31.919  1.00  0.00     0.002 A 
HETATM   26  C15 UNK     1      19.852  -0.126  29.524  1.00  0.00     0.040 A 
HETATM   27  C16 UNK     1      20.582  -1.315  29.581  1.00  0.00     0.004 A 
HETATM   28  C12 UNK     1      20.662  -2.038  30.774  1.00  0.00     0.014 A 
HETATM   29  C7  UNK     1      20.062  -2.284  33.186  1.00  0.00     0.037 A 
BRANCH  24  30
HETATM   30  O2  UNK     1      18.489   1.505  30.600  1.00  0.00    -0.353 OA
HETATM   31  C20 UNK     1      18.232   2.043  29.304  1.00  0.00     0.210 C 
ENDBRANCH  24  30
ENDBRANCH   3  19
TORSDOF 6
ENDMDL
MODEL 2
REMARK VINA RESULT:      -9.7      6.827     12.324
REMARK  6 active torsions:
REMARK  status: ('A' for Active; 'I' for Inactive)
REMARK    1  A    between atoms: C11_20  and  O2_4 
REMARK    2  A    between atoms: C14_23  and  O3_5 
REMARK    3  A    between atoms: C3_12  and  N1_9 
REMARK       I    between atoms: C9_18  and  N1_9 
REMARK    4  A    between atoms: C1_10  and  C8_17 
REMARK    5  A    between atoms: C14_23  and  C2_11 
REMARK    6  A    between atoms: C5_14  and  C9_18 
ROOT
HETATM    1  O4  UNK     1      18.624   5.225  30.392  1.00  0.00    -0.267 OA
HETATM    2  N1  UNK     1      17.424   5.009  32.412  1.00  0.00    -0.316 N 
HETATM    3  C9  UNK     1      18.203   4.577  31.347  1.00  0.00     0.262 C 
HETATM    4  H2  UNK     1      17.166   4.352  33.143  1.00  0.00     0.169 HD
ENDROOT
BRANCH   2   5
HETATM    5  C3  UNK     1      16.953   6.310  32.614  1.00  0.00     0.094 A 
HETATM    6  C2  UNK     1      17.548   7.382  33.198  1.00  0.00     0.085 A 
HETATM    7  C1  UNK     1      16.688   8.518  33.182  1.00  0.00     0.007 A 
HETATM    8  C10 UNK     1      15.478   8.243  32.584  1.00  0.00     0.065 A 
HETATM    9  S1  UNK     1      15.382   6.621  32.043  1.00  0.00    -0.082 SA
BRANCH   6  10
HETATM   10  C14 UNK     1      18.880   7.343  33.751  1.00  0.00     0.296 C 
HETATM   11  O6  UNK     1      19.123   7.342  34.967  1.00  0.00    -0.259 OA
BRANCH  10  12
HETATM   12  O3  UNK     1      19.878   7.308  32.802  1.00  0.00    -0.322 OA
HETATM   13  C21 UNK     1      20.896   6.315  32.971  1.00  0.00     0.213 C 
ENDBRANCH  10  12
ENDBRANCH   6  10
BRANCH   7  14
HETATM   14  C8  UNK     1      17.005   9.852  33.729  1.00  0.00     0.016 A 
HETATM   15  C17 UNK     1      18.265  10.407  33.744  1.00  0.00     0.020 A 
HETATM   16  C18 UNK     1      18.271  11.704  34.333  1.00  0.00     0.008 A 
HETATM   17  C19 UNK     1      17.015  12.090  34.746  1.00  0.00     0.050 A 
HETATM   18  S2  UNK     1      15.835  10.892  34.421  1.00  0.00    -0.101 SA
ENDBRANCH   7  14
ENDBRANCH   2   5
BRANCH   3  19
HETATM   19  C5  UNK     1      18.520   3.146  31.447  1.00  0.00     0.108 A 
HETATM   20  C13 UNK     1      18.337   2.387  32.705  1.00  0.00     0.304 A 
HETATM   21  O1  UNK     1      18.672   1.036  32.673  1.00  0.00    -0.271 OA
HETATM   22  O5  UNK     1      17.912   2.917  33.726  1.00  0.00    -0.259 OA
HETATM   23  C6  UNK     1      19.162   0.418  31.506  1.00  0.00     0.123 A 
HETATM   24  C11 UNK     1      19.471  -0.938  31.573  1.00  0.00     0.102 A 
HETATM   25  C4  UNK     1      19.326   1.151  30.335  1.00  0.00     0.002 A 
HETATM   26  C15 UNK     1      19.957  -1.577  30.434  1.00  0.00     0.040 A 
HETATM   27  C16 UNK     1      20.129  -0.858  29.249  1.00  0.00     0.004 A 
HETATM   28  C12 UNK     1      19.816   0.503  29.198  1.00  0.00     0.014 A 
HETATM   29  C7  UNK     1      18.985   2.565  30.335  1.00  0.00     0.037 A 
BRANCH  24  30
HETATM   30  O2  UNK     1      19.305  -1.642  32.724  1.00  0.00    -0.353 OA
HETATM   31  C20 UNK     1      20.404  -2.438  33.164  1.00  0.00     0.210 C 
ENDBRANCH  24  30
ENDBRANCH   3  19
TORSDOF 6
ENDMDL
MODEL 3
REMARK VINA RESULT:      -9.6      3.106      4.932
REMARK  6 active torsions:
REMARK  status: ('A' for Active; 'I' for Inactive)
REMARK    1  A    between atoms: C11_20  and  O2_4 
REMARK    2  A    between atoms: C14_23  and  O3_5 
REMARK    3  A    between atoms: C3_12  and  N1_9 
REMARK       I    between atoms: C9_18  and  N1_9 
REMARK    4  A    between atoms: C1_10  and  C8_17 
REMARK    5  A    between atoms: C14_23  and  C2_11 
REMARK    6  A    between atoms: C5_14  and  C9_18 
ROOT
HETATM    1  O4  UNK     1      17.201  -0.112  33.684  1.00  0.00    -0.267 OA
HETATM    2  N1  UNK     1      18.906   0.399  35.233  1.00  0.00    -0.316 N 
HETATM    3  C9  UNK     1      18.049   0.636  34.167  1.00  0.00     0.262 C 
HETATM    4  H2  UNK     1      19.547   1.128  35.532  1.00  0.00     0.169 HD
ENDROOT
BRANCH   2   5
HETATM    5  C3  UNK     1      18.974  -0.774  35.991  1.00  0.00     0.094 A 
HETATM    6  C2  UNK     1      19.727  -1.892  35.820  1.00  0.00     0.085 A 
HETATM    7  C1  UNK     1      19.469  -2.846  36.847  1.00  0.00     0.007 A 
HETATM    8  C10 UNK     1      18.527  -2.398  37.746  1.00  0.00     0.065 A 
HETATM    9  S1  UNK     1      17.958  -0.831  37.353  1.00  0.00    -0.082 SA
BRANCH   6  10
HETATM   10  C14 UNK     1      20.658  -2.059  34.731  1.00  0.00     0.296 C 
HETATM   11  O6  UNK     1      21.888  -2.097  34.875  1.00  0.00    -0.259 OA
BRANCH  10  12
HETATM   12  O3  UNK     1      20.058  -2.175  33.496  1.00  0.00    -0.322 OA
HETATM   13  C21 UNK     1      20.918  -2.437  32.382  1.00  0.00     0.213 C 
ENDBRANCH  10  12
ENDBRANCH   6  10
BRANCH   7  14
HETATM   14  C8  UNK     1      20.106  -4.172  36.976  1.00  0.00     0.016 A 
HETATM   15  C17 UNK     1      21.131  -4.460  37.850  1.00  0.00     0.020 A 
HETATM   16  C18 UNK     1      21.546  -5.819  37.756  1.00  0.00     0.008 A 
HETATM   17  C19 UNK     1      20.822  -6.518  36.815  1.00  0.00     0.050 A 
HETATM   18  S2  UNK     1      19.646  -5.535  36.050  1.00  0.00    -0.101 SA
ENDBRANCH   7  14
ENDBRANCH   2   5
BRANCH   3  19
HETATM   19  C5  UNK     1      18.243   1.974  33.596  1.00  0.00     0.108 A 
HETATM   20  C13 UNK     1      18.295   3.189  34.441  1.00  0.00     0.304 A 
HETATM   21  O1  UNK     1      18.485   4.401  33.782  1.00  0.00    -0.271 OA
HETATM   22  O5  UNK     1      18.177   3.136  35.660  1.00  0.00    -0.259 OA
HETATM   23  C6  UNK     1      18.620   4.473  32.383  1.00  0.00     0.123 A 
HETATM   24  C11 UNK     1      18.806   5.731  31.814  1.00  0.00     0.102 A 
HETATM   25  C4  UNK     1      18.568   3.318  31.607  1.00  0.00     0.002 A 
HETATM   26  C15 UNK     1      18.944   5.833  30.431  1.00  0.00     0.040 A 
HETATM   27  C16 UNK     1      18.894   4.686  29.637  1.00  0.00     0.004 A 
HETATM   28  C12 UNK     1      18.706   3.431  30.221  1.00  0.00     0.014 A 
HETATM   29  C7  UNK     1      18.371   2.036  32.266  1.00  0.00     0.037 A 
BRANCH  24  30
HETATM   30  O2  UNK     1      18.856   6.851  32.584  1.00  0.00    -0.353 OA
HETATM   31  C20 UNK     1      17.686   7.667  32.619  1.00  0.00     0.210 C 
ENDBRANCH  24  30
ENDBRANCH   3  19
TORSDOF 6
ENDMDL
MODEL 4
REMARK VINA RESULT:      -9.6      3.380      5.467
REMARK  6 active torsions:
REMARK  status: ('A' for Active; 'I' for Inactive)
REMARK    1  A    between atoms: C11_20  and  O2_4 
REMARK    2  A    between atoms: C14_23  and  O3_5 
REMARK    3  A    between atoms: C3_12  and  N1_9 
REMARK       I    between atoms: C9_18  and  N1_9 
REMARK    4  A    between atoms: C1_10  and  C8_17 
REMARK    5  A    between atoms: C14_23  and  C2_11 
REMARK    6  A    between atoms: C5_14  and  C9_18 
ROOT
HETATM    1  O4  UNK     1      16.624   0.556  34.089  1.00  0.00    -0.267 OA
HETATM    2  N1  UNK     1      18.823   0.651  34.938  1.00  0.00    -0.316 N 
HETATM    3  C9  UNK     1      17.731   1.079  34.196  1.00  0.00     0.262 C 
HETATM    4  H2  UNK     1      19.676   1.205  34.941  1.00  0.00     0.169 HD
ENDROOT
BRANCH   2   5
HETATM    5  C3  UNK     1      18.880  -0.496  35.736  1.00  0.00     0.094 A 
HETATM    6  C2  UNK     1      19.456  -1.704  35.504  1.00  0.00     0.085 A 
HETATM    7  C1  UNK     1      19.264  -2.584  36.608  1.00  0.00     0.007 A 
HETATM    8  C10 UNK     1      18.546  -1.993  37.623  1.00  0.00     0.065 A 
HETATM    9  S1  UNK     1      18.107  -0.381  37.246  1.00  0.00    -0.082 SA
BRANCH   6  10
HETATM   10  C14 UNK     1      20.165  -2.021  34.289  1.00  0.00     0.296 C 
HETATM   11  O6  UNK     1      21.351  -2.379  34.255  1.00  0.00    -0.259 OA
BRANCH  10  12
HETATM   12  O3  UNK     1      19.403  -1.892  33.148  1.00  0.00    -0.322 OA
HETATM   13  C21 UNK     1      20.111  -1.744  31.912  1.00  0.00     0.213 C 
ENDBRANCH  10  12
ENDBRANCH   6  10
BRANCH   7  14
HETATM   14  C8  UNK     1      19.754  -3.974  36.703  1.00  0.00     0.016 A 
HETATM   15  C17 UNK     1      19.180  -5.046  36.057  1.00  0.00     0.020 A 
HETATM   16  C18 UNK     1      19.864  -6.264  36.333  1.00  0.00     0.008 A 
HETATM   17  C19 UNK     1      20.935  -6.076  37.179  1.00  0.00     0.050 A 
HETATM   18  S2  UNK     1      21.112  -4.435  37.636  1.00  0.00    -0.101 SA
ENDBRANCH   7  14
ENDBRANCH   2   5
BRANCH   3  19
HETATM   19  C5  UNK     1      18.016   2.324  33.472  1.00  0.00     0.108 A 
HETATM   20  C13 UNK     1      18.319   2.338  32.022  1.00  0.00     0.304 A 
HETATM   21  O1  UNK     1      18.571   3.582  31.449  1.00  0.00    -0.271 OA
HETATM   22  O5  UNK     1      18.348   1.309  31.356  1.00  0.00    -0.259 OA
HETATM   23  C6  UNK     1      18.541   4.769  32.206  1.00  0.00     0.123 A 
HETATM   24  C11 UNK     1      18.808   5.966  31.543  1.00  0.00     0.102 A 
HETATM   25  C4  UNK     1      18.255   4.733  33.567  1.00  0.00     0.002 A 
HETATM   26  C15 UNK     1      18.786   7.157  32.266  1.00  0.00     0.040 A 
HETATM   27  C16 UNK     1      18.500   7.140  33.633  1.00  0.00     0.004 A 
HETATM   28  C12 UNK     1      18.235   5.932  34.284  1.00  0.00     0.014 A 
HETATM   29  C7  UNK     1      17.986   3.449  34.196  1.00  0.00     0.037 A 
BRANCH  24  30
HETATM   30  O2  UNK     1      19.086   5.986  30.213  1.00  0.00    -0.353 OA
HETATM   31  C20 UNK     1      20.461   5.949  29.835  1.00  0.00     0.210 C 
ENDBRANCH  24  30
ENDBRANCH   3  19
TORSDOF 6
ENDMDL
MODEL 5
REMARK VINA RESULT:      -9.6     16.330     19.483
REMARK  6 active torsions:
REMARK  status: ('A' for Active; 'I' for Inactive)
REMARK    1  A    between atoms: C11_20  and  O2_4 
REMARK    2  A    between atoms: C14_23  and  O3_5 
REMARK    3  A    between atoms: C3_12  and  N1_9 
REMARK       I    between atoms: C9_18  and  N1_9 
REMARK    4  A    between atoms: C1_10  and  C8_17 
REMARK    5  A    between atoms: C14_23  and  C2_11 
REMARK    6  A    between atoms: C5_14  and  C9_18 
ROOT
HETATM    1  O4  UNK     1      17.646  -2.352  15.999  1.00  0.00    -0.267 OA
HETATM    2  N1  UNK     1      19.784  -1.971  15.079  1.00  0.00    -0.316 N 
HETATM    3  C9  UNK     1      18.706  -1.735  15.920  1.00  0.00     0.262 C 
HETATM    4  H2  UNK     1      20.609  -1.380  15.142  1.00  0.00     0.169 HD
ENDROOT
BRANCH   2   5
HETATM    5  C3  UNK     1      19.880  -2.991  14.126  1.00  0.00     0.094 A 
HETATM    6  C2  UNK     1      19.999  -4.335  14.283  1.00  0.00     0.085 A 
HETATM    7  C1  UNK     1      20.062  -4.995  13.022  1.00  0.00     0.007 A 
HETATM    8  C10 UNK     1      19.988  -4.110  11.970  1.00  0.00     0.065 A 
HETATM    9  S1  UNK     1      19.841  -2.489  12.503  1.00  0.00    -0.082 SA
BRANCH   6  10
HETATM   10  C14 UNK     1      20.052  -4.979  15.573  1.00  0.00     0.296 C 
HETATM   11  O6  UNK     1      19.326  -5.928  15.901  1.00  0.00    -0.259 OA
BRANCH  10  12
HETATM   12  O3  UNK     1      20.992  -4.444  16.426  1.00  0.00    -0.322 OA
HETATM   13  C21 UNK     1      22.357  -4.813  16.198  1.00  0.00     0.213 C 
ENDBRANCH  10  12
ENDBRANCH   6  10
BRANCH   7  14
HETATM   14  C8  UNK     1      20.194  -6.451  12.812  1.00  0.00     0.016 A 
HETATM   15  C17 UNK     1      21.327  -7.179  13.099  1.00  0.00     0.020 A 
HETATM   16  C18 UNK     1      21.165  -8.561  12.794  1.00  0.00     0.008 A 
HETATM   17  C19 UNK     1      19.914  -8.836  12.287  1.00  0.00     0.050 A 
HETATM   18  S2  UNK     1      18.940  -7.431  12.180  1.00  0.00    -0.101 SA
ENDBRANCH   7  14
ENDBRANCH   2   5
BRANCH   3  19
HETATM   19  C5  UNK     1      18.939  -0.581  16.797  1.00  0.00     0.108 A 
HETATM   20  C13 UNK     1      19.157   0.782  16.260  1.00  0.00     0.304 A 
HETATM   21  O1  UNK     1      19.366   1.794  17.193  1.00  0.00    -0.271 OA
HETATM   22  O5  UNK     1      19.155   1.012  15.056  1.00  0.00    -0.259 OA
HETATM   23  C6  UNK     1      19.372   1.540  18.578  1.00  0.00     0.123 A 
HETATM   24  C11 UNK     1      19.591   2.617  19.433  1.00  0.00     0.102 A 
HETATM   25  C4  UNK     1      19.166   0.251  19.060  1.00  0.00     0.002 A 
HETATM   26  C15 UNK     1      19.602   2.396  20.809  1.00  0.00     0.040 A 
HETATM   27  C16 UNK     1      19.397   1.110  21.312  1.00  0.00     0.004 A 
HETATM   28  C12 UNK     1      19.179   0.038  20.441  1.00  0.00     0.014 A 
HETATM   29  C7  UNK     1      18.944  -0.829  18.111  1.00  0.00     0.037 A 
BRANCH  24  30
HETATM   30  O2  UNK     1      19.791   3.872  18.948  1.00  0.00    -0.353 OA
HETATM   31  C20 UNK     1      21.116   4.206  18.537  1.00  0.00     0.210 C 
ENDBRANCH  24  30
ENDBRANCH   3  19
TORSDOF 6
ENDMDL
MODEL 6
REMARK VINA RESULT:      -9.5     16.866     20.791
REMARK  6 active torsions:
REMARK  status: ('A' for Active; 'I' for Inactive)
REMARK    1  A    between atoms: C11_20  and  O2_4 
REMARK    2  A    between atoms: C14_23  and  O3_5 
REMARK    3  A    between atoms: C3_12  and  N1_9 
REMARK       I    between atoms: C9_18  and  N1_9 
REMARK    4  A    between atoms: C1_10  and  C8_17 
REMARK    5  A    between atoms: C14_23  and  C2_11 
REMARK    6  A    between atoms: C5_14  and  C9_18 
ROOT
HETATM    1  O4  UNK     1      17.587  -2.879  15.339  1.00  0.00    -0.267 OA
HETATM    2  N1  UNK     1      19.929  -2.921  15.061  1.00  0.00    -0.316 N 
HETATM    3  C9  UNK     1      18.712  -2.408  15.488  1.00  0.00     0.262 C 
HETATM    4  H2  UNK     1      20.787  -2.421  15.276  1.00  0.00     0.169 HD
ENDROOT
BRANCH   2   5
HETATM    5  C3  UNK     1      20.120  -4.114  14.356  1.00  0.00     0.094 A 
HETATM    6  C2  UNK     1      19.973  -4.390  13.034  1.00  0.00     0.085 A 
HETATM    7  C1  UNK     1      20.280  -5.754  12.758  1.00  0.00     0.007 A 
HETATM    8  C10 UNK     1      20.643  -6.443  13.893  1.00  0.00     0.065 A 
HETATM    9  S1  UNK     1      20.616  -5.448  15.287  1.00  0.00    -0.082 SA
BRANCH   6  10
HETATM   10  C14 UNK     1      19.561  -3.407  12.062  1.00  0.00     0.296 C 
HETATM   11  O6  UNK     1      18.600  -3.556  11.295  1.00  0.00    -0.259 OA
BRANCH  10  12
HETATM   12  O3  UNK     1      20.337  -2.268  12.057  1.00  0.00    -0.322 OA
HETATM   13  C21 UNK     1      21.011  -1.952  10.834  1.00  0.00     0.213 C 
ENDBRANCH  10  12
ENDBRANCH   6  10
BRANCH   7  14
HETATM   14  C8  UNK     1      20.228  -6.401  11.432  1.00  0.00     0.016 A 
HETATM   15  C17 UNK     1      21.238  -6.343  10.498  1.00  0.00     0.020 A 
HETATM   16  C18 UNK     1      20.911  -7.061   9.312  1.00  0.00     0.008 A 
HETATM   17  C19 UNK     1      19.663  -7.640   9.385  1.00  0.00     0.050 A 
HETATM   18  S2  UNK     1      18.892  -7.318  10.880  1.00  0.00    -0.101 SA
ENDBRANCH   7  14
ENDBRANCH   2   5
BRANCH   3  19
HETATM   19  C5  UNK     1      18.875  -1.134  16.200  1.00  0.00     0.108 A 
HETATM   20  C13 UNK     1      19.278   0.109  15.503  1.00  0.00     0.304 A 
HETATM   21  O1  UNK     1      19.397   1.253  16.288  1.00  0.00    -0.271 OA
HETATM   22  O5  UNK     1      19.496   0.134  14.297  1.00  0.00    -0.259 OA
HETATM   23  C6  UNK     1      19.150   1.234  17.674  1.00  0.00     0.123 A 
HETATM   24  C11 UNK     1      19.297   2.429  18.374  1.00  0.00     0.102 A 
HETATM   25  C4  UNK     1      18.773   0.054  18.308  1.00  0.00     0.002 A 
HETATM   26  C15 UNK     1      19.059   2.441  19.747  1.00  0.00     0.040 A 
HETATM   27  C16 UNK     1      18.680   1.267  20.401  1.00  0.00     0.004 A 
HETATM   28  C12 UNK     1      18.537   0.075  19.685  1.00  0.00     0.014 A 
HETATM   29  C7  UNK     1      18.639  -1.159  17.516  1.00  0.00     0.037 A 
BRANCH  24  30
HETATM   30  O2  UNK     1      19.666   3.575  17.742  1.00  0.00    -0.353 OA
HETATM   31  C20 UNK     1      20.674   4.367  18.366  1.00  0.00     0.210 C 
ENDBRANCH  24  30
ENDBRANCH   3  19
TORSDOF 6
ENDMDL
MODEL 7
REMARK VINA RESULT:      -9.1      7.154     12.710
REMARK  6 active torsions:
REMARK  status: ('A' for Active; 'I' for Inactive)
REMARK    1  A    between atoms: C11_20  and  O2_4 
REMARK    2  A    between atoms: C14_23  and  O3_5 
REMARK    3  A    between atoms: C3_12  and  N1_9 
REMARK       I    between atoms: C9_18  and  N1_9 
REMARK    4  A    between atoms: C1_10  and  C8_17 
REMARK    5  A    between atoms: C14_23  and  C2_11 
REMARK    6  A    between atoms: C5_14  and  C9_18 
ROOT
HETATM    1  O4  UNK     1      18.575   5.498  30.804  1.00  0.00    -0.267 OA
HETATM    2  N1  UNK     1      17.229   5.416  32.739  1.00  0.00    -0.316 N 
HETATM    3  C9  UNK     1      18.050   4.905  31.744  1.00  0.00     0.262 C 
HETATM    4  H2  UNK     1      16.881   4.798  33.468  1.00  0.00     0.169 HD
ENDROOT
BRANCH   2   5
HETATM    5  C3  UNK     1      16.826   6.748  32.873  1.00  0.00     0.094 A 
HETATM    6  C2  UNK     1      17.447   7.802  33.464  1.00  0.00     0.085 A 
HETATM    7  C1  UNK     1      16.660   8.985  33.360  1.00  0.00     0.007 A 
HETATM    8  C10 UNK     1      15.475   8.763  32.694  1.00  0.00     0.065 A 
HETATM    9  S1  UNK     1      15.316   7.132  32.193  1.00  0.00    -0.082 SA
BRANCH   6  10
HETATM   10  C14 UNK     1      18.736   7.703  34.103  1.00  0.00     0.296 C 
HETATM   11  O6  UNK     1      18.897   7.669  35.331  1.00  0.00    -0.259 OA
BRANCH  10  12
HETATM   12  O3  UNK     1      19.794   7.649  33.221  1.00  0.00    -0.322 OA
HETATM   13  C21 UNK     1      20.668   6.520  33.328  1.00  0.00     0.213 C 
ENDBRANCH  10  12
ENDBRANCH   6  10
BRANCH   7  14
HETATM   14  C8  UNK     1      17.022  10.316  33.889  1.00  0.00     0.016 A 
HETATM   15  C17 UNK     1      18.289  10.853  33.839  1.00  0.00     0.020 A 
HETATM   16  C18 UNK     1      18.342  12.150  34.425  1.00  0.00     0.008 A 
HETATM   17  C19 UNK     1      17.113  12.554  34.899  1.00  0.00     0.050 A 
HETATM   18  S2  UNK     1      15.903  11.372  34.637  1.00  0.00    -0.101 SA
ENDBRANCH   7  14
ENDBRANCH   2   5
BRANCH   3  19
HETATM   19  C5  UNK     1      18.272   3.462  31.903  1.00  0.00     0.108 A 
HETATM   20  C13 UNK     1      18.608   2.588  30.756  1.00  0.00     0.304 A 
HETATM   21  O1  UNK     1      18.796   1.237  31.035  1.00  0.00    -0.271 OA
HETATM   22  O5  UNK     1      18.717   3.027  29.617  1.00  0.00    -0.259 OA
HETATM   23  C6  UNK     1      18.671   0.723  32.340  1.00  0.00     0.123 A 
HETATM   24  C11 UNK     1      18.876  -0.643  32.520  1.00  0.00     0.102 A 
HETATM   25  C4  UNK     1      18.354   1.563  33.403  1.00  0.00     0.002 A 
HETATM   26  C15 UNK     1      18.761  -1.181  33.801  1.00  0.00     0.040 A 
HETATM   27  C16 UNK     1      18.443  -0.353  34.880  1.00  0.00     0.004 A 
HETATM   28  C12 UNK     1      18.239   1.015  34.684  1.00  0.00     0.014 A 
HETATM   29  C7  UNK     1      18.153   2.980  33.145  1.00  0.00     0.037 A 
BRANCH  24  30
HETATM   30  O2  UNK     1      19.186  -1.452  31.472  1.00  0.00    -0.353 OA
HETATM   31  C20 UNK     1      20.474  -2.067  31.485  1.00  0.00     0.210 C 
ENDBRANCH  24  30
ENDBRANCH   3  19
TORSDOF 6
ENDMDL
MODEL 8
REMARK VINA RESULT:      -9.1      2.328      3.549
REMARK  6 active torsions:
REMARK  status: ('A' for Active; 'I' for Inactive)
REMARK    1  A    between atoms: C11_20  and  O2_4 
REMARK    2  A    between atoms: C14_23  and  O3_5 
REMARK    3  A    between atoms: C3_12  and  N1_9 
REMARK       I    between atoms: C9_18  and  N1_9 
REMARK    4  A    between atoms: C1_10  and  C8_17 
REMARK    5  A    between atoms: C14_23  and  C2_11 
REMARK    6  A    between atoms: C5_14  and  C9_18 
ROOT
HETATM    1  O4  UNK     1      20.458  -4.077  34.566  1.00  0.00    -0.267 OA
HETATM    2  N1  UNK     1      19.878  -3.973  36.851  1.00  0.00    -0.316 N 
HETATM    3  C9  UNK     1      19.984  -3.508  35.548  1.00  0.00     0.262 C 
HETATM    4  H2  UNK     1      19.442  -3.388  37.558  1.00  0.00     0.169 HD
ENDROOT
BRANCH   2   5
HETATM    5  C3  UNK     1      20.301  -5.222  37.318  1.00  0.00     0.094 A 
HETATM    6  C2  UNK     1      19.679  -6.429  37.293  1.00  0.00     0.085 A 
HETATM    7  C1  UNK     1      20.492  -7.438  37.886  1.00  0.00     0.007 A 
HETATM    8  C10 UNK     1      21.694  -6.937  38.333  1.00  0.00     0.065 A 
HETATM    9  S1  UNK     1      21.841  -5.257  38.036  1.00  0.00    -0.082 SA
BRANCH   6  10
HETATM   10  C14 UNK     1      18.365  -6.631  36.731  1.00  0.00     0.296 C 
HETATM   11  O6  UNK     1      17.319  -6.229  37.259  1.00  0.00    -0.259 OA
BRANCH  10  12
HETATM   12  O3  UNK     1      18.369  -7.320  35.537  1.00  0.00    -0.322 OA
HETATM   13  C21 UNK     1      17.095  -7.706  35.010  1.00  0.00     0.213 C 
ENDBRANCH  10  12
ENDBRANCH   6  10
BRANCH   7  14
HETATM   14  C8  UNK     1      20.135  -8.863  38.032  1.00  0.00     0.016 A 
HETATM   15  C17 UNK     1      19.564  -9.411  39.159  1.00  0.00     0.020 A 
HETATM   16  C18 UNK     1      19.331 -10.809  39.014  1.00  0.00     0.008 A 
HETATM   17  C19 UNK     1      19.732 -11.275  37.782  1.00  0.00     0.050 A 
HETATM   18  S2  UNK     1      20.386 -10.030  36.805  1.00  0.00    -0.101 SA
ENDBRANCH   7  14
ENDBRANCH   2   5
BRANCH   3  19
HETATM   19  C5  UNK     1      19.440  -2.152  35.405  1.00  0.00     0.108 A 
HETATM   20  C13 UNK     1      19.470  -1.425  34.115  1.00  0.00     0.304 A 
HETATM   21  O1  UNK     1      18.921  -0.146  34.106  1.00  0.00    -0.271 OA
HETATM   22  O5  UNK     1      19.951  -1.922  33.103  1.00  0.00    -0.259 OA
HETATM   23  C6  UNK     1      18.367   0.434  35.263  1.00  0.00     0.123 A 
HETATM   24  C11 UNK     1      17.843   1.720  35.156  1.00  0.00     0.102 A 
HETATM   25  C4  UNK     1      18.350  -0.267  36.466  1.00  0.00     0.002 A 
HETATM   26  C15 UNK     1      17.287   2.319  36.285  1.00  0.00     0.040 A 
HETATM   27  C16 UNK     1      17.261   1.632  37.500  1.00  0.00     0.004 A 
HETATM   28  C12 UNK     1      17.791   0.342  37.593  1.00  0.00     0.014 A 
HETATM   29  C7  UNK     1      18.914  -1.607  36.508  1.00  0.00     0.037 A 
BRANCH  24  30
HETATM   30  O2  UNK     1      17.866   2.393  33.975  1.00  0.00    -0.353 OA
HETATM   31  C20 UNK     1      18.236   3.770  34.018  1.00  0.00     0.210 C 
ENDBRANCH  24  30
ENDBRANCH   3  19
TORSDOF 6
ENDMDL
MODEL 9
REMARK VINA RESULT:      -9.0      2.578      9.088
REMARK  6 active torsions:
REMARK  status: ('A' for Active; 'I' for Inactive)
REMARK    1  A    between atoms: C11_20  and  O2_4 
REMARK    2  A    between atoms: C14_23  and  O3_5 
REMARK    3  A    between atoms: C3_12  and  N1_9 
REMARK       I    between atoms: C9_18  and  N1_9 
REMARK    4  A    between atoms: C1_10  and  C8_17 
REMARK    5  A    between atoms: C14_23  and  C2_11 
REMARK    6  A    between atoms: C5_14  and  C9_18 
ROOT
HETATM    1  O4  UNK     1      21.201  -3.557  37.337  1.00  0.00    -0.267 OA
HETATM    2  N1  UNK     1      18.946  -3.630  36.648  1.00  0.00    -0.316 N 
HETATM    3  C9  UNK     1      20.179  -4.155  37.008  1.00  0.00     0.262 C 
HETATM    4  H2  UNK     1      18.182  -4.259  36.416  1.00  0.00     0.169 HD
ENDROOT
BRANCH   2   5
HETATM    5  C3  UNK     1      18.613  -2.273  36.588  1.00  0.00     0.094 A 
HETATM    6  C2  UNK     1      18.834  -1.354  35.613  1.00  0.00     0.085 A 
HETATM    7  C1  UNK     1      18.316  -0.079  35.983  1.00  0.00     0.007 A 
HETATM    8  C10 UNK     1      17.729  -0.100  37.228  1.00  0.00     0.065 A 
HETATM    9  S1  UNK     1      17.800  -1.653  37.946  1.00  0.00    -0.082 SA
BRANCH   6  10
HETATM   10  C14 UNK     1      19.506  -1.661  34.374  1.00  0.00     0.296 C 
HETATM   11  O6  UNK     1      20.697  -1.994  34.300  1.00  0.00    -0.259 OA
BRANCH  10  12
HETATM   12  O3  UNK     1      18.702  -1.551  33.260  1.00  0.00    -0.322 OA
HETATM   13  C21 UNK     1      19.363  -1.376  32.002  1.00  0.00     0.213 C 
ENDBRANCH  10  12
ENDBRANCH   6  10
BRANCH   7  14
HETATM   14  C8  UNK     1      18.378   1.151  35.167  1.00  0.00     0.016 A 
HETATM   15  C17 UNK     1      17.816   1.284  33.917  1.00  0.00     0.020 A 
HETATM   16  C18 UNK     1      18.034   2.580  33.369  1.00  0.00     0.008 A 
HETATM   17  C19 UNK     1      18.753   3.389  34.222  1.00  0.00     0.050 A 
HETATM   18  S2  UNK     1      19.161   2.584  35.678  1.00  0.00    -0.101 SA
ENDBRANCH   7  14
ENDBRANCH   2   5
BRANCH   3  19
HETATM   19  C5  UNK     1      20.182  -5.623  36.965  1.00  0.00     0.108 A 
HETATM   20  C13 UNK     1      20.309  -6.370  35.692  1.00  0.00     0.304 A 
HETATM   21  O1  UNK     1      20.301  -7.759  35.781  1.00  0.00    -0.271 OA
HETATM   22  O5  UNK     1      20.416  -5.798  34.613  1.00  0.00    -0.259 OA
HETATM   23  C6  UNK     1      20.177  -8.425  37.016  1.00  0.00     0.123 A 
HETATM   24  C11 UNK     1      20.177  -9.818  37.003  1.00  0.00     0.102 A 
HETATM   25  C4  UNK     1      20.059  -7.703  38.199  1.00  0.00     0.002 A 
HETATM   26  C15 UNK     1      20.057 -10.505  38.209  1.00  0.00     0.040 A 
HETATM   27  C16 UNK     1      19.937  -9.797  39.407  1.00  0.00     0.004 A 
HETATM   28  C12 UNK     1      19.937  -8.400  39.404  1.00  0.00     0.014 A 
HETATM   29  C7  UNK     1      20.065  -6.249  38.140  1.00  0.00     0.037 A 
BRANCH  24  30
HETATM   30  O2  UNK     1      20.294 -10.511  35.839  1.00  0.00    -0.353 OA
HETATM   31  C20 UNK     1      21.594 -10.987  35.494  1.00  0.00     0.210 C 
ENDBRANCH  24  30
ENDBRANCH   3  19
TORSDOF 6
ENDMDL
MODEL 10
REMARK VINA RESULT:      -8.9      9.030     12.118
REMARK  6 active torsions:
REMARK  status: ('A' for Active; 'I' for Inactive)
REMARK    1  A    between atoms: C11_20  and  O2_4 
REMARK    2  A    between atoms: C14_23  and  O3_5 
REMARK    3  A    between atoms: C3_12  and  N1_9 
REMARK       I    between atoms: C9_18  and  N1_9 
REMARK    4  A    between atoms: C1_10  and  C8_17 
REMARK    5  A    between atoms: C14_23  and  C2_11 
REMARK    6  A    between atoms: C5_14  and  C9_18 
ROOT
HETATM    1  O4  UNK     1      28.677  -9.171  38.581  1.00  0.00    -0.267 OA
HETATM    2  N1  UNK     1      28.300  -7.202  37.338  1.00  0.00    -0.316 N 
HETATM    3  C9  UNK     1      27.983  -8.439  37.879  1.00  0.00     0.262 C 
HETATM    4  H2  UNK     1      27.607  -6.703  36.787  1.00  0.00     0.169 HD
ENDROOT
BRANCH   2   5
HETATM    5  C3  UNK     1      29.513  -6.521  37.491  1.00  0.00     0.094 A 
HETATM    6  C2  UNK     1      30.673  -6.621  36.793  1.00  0.00     0.085 A 
HETATM    7  C1  UNK     1      31.657  -5.725  37.302  1.00  0.00     0.007 A 
HETATM    8  C10 UNK     1      31.187  -4.991  38.368  1.00  0.00     0.065 A 
HETATM    9  S1  UNK     1      29.563  -5.380  38.750  1.00  0.00    -0.082 SA
BRANCH   6  10
HETATM   10  C14 UNK     1      30.854  -7.525  35.683  1.00  0.00     0.296 C 
HETATM   11  O6  UNK     1      30.939  -7.161  34.502  1.00  0.00    -0.259 OA
BRANCH  10  12
HETATM   12  O3  UNK     1      30.924  -8.852  36.050  1.00  0.00    -0.322 OA
HETATM   13  C21 UNK     1      30.175  -9.782  35.260  1.00  0.00     0.213 C 
ENDBRANCH  10  12
ENDBRANCH   6  10
BRANCH   7  14
HETATM   14  C8  UNK     1      33.032  -5.565  36.788  1.00  0.00     0.016 A 
HETATM   15  C17 UNK     1      33.381  -4.734  35.747  1.00  0.00     0.020 A 
HETATM   16  C18 UNK     1      34.777  -4.783  35.469  1.00  0.00     0.008 A 
HETATM   17  C19 UNK     1      35.441  -5.650  36.308  1.00  0.00     0.050 A 
HETATM   18  S2  UNK     1      34.383  -6.399  37.427  1.00  0.00    -0.101 SA
ENDBRANCH   7  14
ENDBRANCH   2   5
BRANCH   3  19
HETATM   19  C5  UNK     1      26.622  -8.861  37.520  1.00  0.00     0.108 A 
HETATM   20  C13 UNK     1      25.438  -8.019  37.805  1.00  0.00     0.304 A 
HETATM   21  O1  UNK     1      24.202  -8.527  37.415  1.00  0.00    -0.271 OA
HETATM   22  O5  UNK     1      25.536  -6.928  38.356  1.00  0.00    -0.259 OA
HETATM   23  C6  UNK     1      24.079  -9.779  36.783  1.00  0.00     0.123 A 
HETATM   24  C11 UNK     1      22.799 -10.203  36.431  1.00  0.00     0.102 A 
HETATM   25  C4  UNK     1      25.205 -10.554  36.525  1.00  0.00     0.002 A 
HETATM   26  C15 UNK     1      22.646 -11.438  35.803  1.00  0.00     0.040 A 
HETATM   27  C16 UNK     1      23.765 -12.230  35.536  1.00  0.00     0.004 A 
HETATM   28  C12 UNK     1      25.042 -11.791  35.896  1.00  0.00     0.014 A 
HETATM   29  C7  UNK     1      26.512 -10.051  36.919  1.00  0.00     0.037 A 
BRANCH  24  30
HETATM   30  O2  UNK     1      21.708  -9.435  36.688  1.00  0.00    -0.353 OA
HETATM   31  C20 UNK     1      21.150  -8.710  35.592  1.00  0.00     0.210 C 
ENDBRANCH  24  30
ENDBRANCH   3  19
TORSDOF 6
ENDMDL
