MODEL 1
REMARK VINA RESULT:      -6.9      0.000      0.000
REMARK  3 active torsions:
REMARK  status: ('A' for Active; 'I' for Inactive)
REMARK    1  A    between atoms: C10_15  and  O2_3 
REMARK    2  A    between atoms: C11_16  and  O2_3 
REMARK    3  A    between atoms: C10_15  and  C4_9 
ROOT
HETATM    1 Br1  UNK     1      19.033   2.046  21.058  1.00  0.00    -0.051 Br
HETATM    2  O1  UNK     1      19.229   0.812  15.122  1.00  0.00    -0.274 OA
HETATM    3  O3  UNK     1      19.147  -0.693  13.404  1.00  0.00    -0.259 OA
HETATM    4  C1  UNK     1      19.002   0.031  17.413  1.00  0.00     0.000 A 
HETATM    5  C2  UNK     1      19.180   1.071  16.506  1.00  0.00     0.089 A 
HETATM    6  C3  UNK     1      18.869  -1.327  16.910  1.00  0.00     0.038 A 
HETATM    7  C4  UNK     1      18.916  -1.567  15.594  1.00  0.00     0.115 A 
HETATM    8  C5  UNK     1      18.959   0.328  18.777  1.00  0.00     0.033 A 
HETATM    9  C6  UNK     1      19.314   2.394  16.922  1.00  0.00     0.039 A 
HETATM   10  C7  UNK     1      19.104  -0.477  14.611  1.00  0.00     0.304 A 
HETATM   11  C8  UNK     1      19.093   1.651  19.211  1.00  0.00     0.011 A 
HETATM   12  C9  UNK     1      19.270   2.681  18.284  1.00  0.00     0.022 A 
ENDROOT
BRANCH   7  13
HETATM   13  C10 UNK     1      18.771  -2.968  15.185  1.00  0.00     0.299 C 
HETATM   14  O4  UNK     1      17.842  -3.379  14.509  1.00  0.00    -0.259 OA
BRANCH  13  15
HETATM   15  O2  UNK     1      19.816  -3.675  15.682  1.00  0.00    -0.318 OA
BRANCH  15  16
HETATM   16  C11 UNK     1      21.020  -3.609  14.909  1.00  0.00     0.174 C 
HETATM   17  C12 UNK     1      22.208  -3.636  15.846  1.00  0.00     0.034 C 
ENDBRANCH  15  16
ENDBRANCH  13  15
ENDBRANCH   7  13
TORSDOF 3
ENDMDL
MODEL 2
REMARK VINA RESULT:      -6.7     15.768     17.502
REMARK  3 active torsions:
REMARK  status: ('A' for Active; 'I' for Inactive)
REMARK    1  A    between atoms: C10_15  and  O2_3 
REMARK    2  A    between atoms: C11_16  and  O2_3 
REMARK    3  A    between atoms: C10_15  and  C4_9 
ROOT
HETATM    1 Br1  UNK     1      18.234   8.728  33.841  1.00  0.00    -0.051 Br
HETATM    2  O1  UNK     1      18.629   3.343  31.076  1.00  0.00    -0.274 OA
HETATM    3  O3  UNK     1      18.555   1.061  31.157  1.00  0.00    -0.259 OA
HETATM    4  C1  UNK     1      18.271   4.628  33.108  1.00  0.00     0.000 A 
HETATM    5  C2  UNK     1      18.533   4.580  31.743  1.00  0.00     0.089 A 
HETATM    6  C3  UNK     1      18.099   3.381  33.836  1.00  0.00     0.038 A 
HETATM    7  C4  UNK     1      18.192   2.209  33.198  1.00  0.00     0.115 A 
HETATM    8  C5  UNK     1      18.182   5.874  33.733  1.00  0.00     0.033 A 
HETATM    9  C6  UNK     1      18.707   5.738  30.987  1.00  0.00     0.039 A 
HETATM   10  C7  UNK     1      18.469   2.133  31.746  1.00  0.00     0.304 A 
HETATM   11  C8  UNK     1      18.356   7.045  32.989  1.00  0.00     0.011 A 
HETATM   12  C9  UNK     1      18.617   6.976  31.619  1.00  0.00     0.022 A 
ENDROOT
BRANCH   7  13
HETATM   13  C10 UNK     1      18.002   1.006  34.017  1.00  0.00     0.299 C 
HETATM   14  O4  UNK     1      18.920   0.296  34.394  1.00  0.00    -0.259 OA
BRANCH  13  15
HETATM   15  O2  UNK     1      16.676   0.851  34.256  1.00  0.00    -0.318 OA
BRANCH  15  16
HETATM   16  C11 UNK     1      16.347  -0.093  35.281  1.00  0.00     0.174 C 
HETATM   17  C12 UNK     1      16.175   0.642  36.592  1.00  0.00     0.034 C 
ENDBRANCH  15  16
ENDBRANCH  13  15
ENDBRANCH   7  13
TORSDOF 3
ENDMDL
MODEL 3
REMARK VINA RESULT:      -6.7     15.163     17.117
REMARK  3 active torsions:
REMARK  status: ('A' for Active; 'I' for Inactive)
REMARK    1  A    between atoms: C10_15  and  O2_3 
REMARK    2  A    between atoms: C11_16  and  O2_3 
REMARK    3  A    between atoms: C10_15  and  C4_9 
ROOT
HETATM    1 Br1  UNK     1      16.062   0.834  36.838  1.00  0.00    -0.051 Br
HETATM    2  O1  UNK     1      20.354  -2.659  34.350  1.00  0.00    -0.274 OA
HETATM    3  O3  UNK     1      21.553  -3.332  32.526  1.00  0.00    -0.259 OA
HETATM    4  C1  UNK     1      18.650  -0.943  34.100  1.00  0.00     0.000 A 
HETATM    5  C2  UNK     1      19.352  -1.836  34.902  1.00  0.00     0.089 A 
HETATM    6  C3  UNK     1      18.966  -0.872  32.682  1.00  0.00     0.038 A 
HETATM    7  C4  UNK     1      19.919  -1.655  32.164  1.00  0.00     0.115 A 
HETATM    8  C5  UNK     1      17.664  -0.144  34.685  1.00  0.00     0.033 A 
HETATM    9  C6  UNK     1      19.099  -1.953  36.268  1.00  0.00     0.039 A 
HETATM   10  C7  UNK     1      20.679  -2.613  32.997  1.00  0.00     0.304 A 
HETATM   11  C8  UNK     1      17.397  -0.250  36.053  1.00  0.00     0.011 A 
HETATM   12  C9  UNK     1      18.114  -1.153  36.842  1.00  0.00     0.022 A 
ENDROOT
BRANCH   7  13
HETATM   13  C10 UNK     1      20.166  -1.510  30.724  1.00  0.00     0.299 C 
HETATM   14  O4  UNK     1      20.097  -2.435  29.932  1.00  0.00    -0.259 OA
BRANCH  13  15
HETATM   15  O2  UNK     1      20.473  -0.214  30.467  1.00  0.00    -0.318 OA
BRANCH  15  16
HETATM   16  C11 UNK     1      19.963   0.301  29.232  1.00  0.00     0.174 C 
HETATM   17  C12 UNK     1      18.981   1.414  29.530  1.00  0.00     0.034 C 
ENDBRANCH  15  16
ENDBRANCH  13  15
ENDBRANCH   7  13
TORSDOF 3
ENDMDL
MODEL 4
REMARK VINA RESULT:      -6.7     11.588     13.241
REMARK  3 active torsions:
REMARK  status: ('A' for Active; 'I' for Inactive)
REMARK    1  A    between atoms: C10_15  and  O2_3 
REMARK    2  A    between atoms: C11_16  and  O2_3 
REMARK    3  A    between atoms: C10_15  and  C4_9 
ROOT
HETATM    1 Br1  UNK     1      17.942  11.068   9.000  1.00  0.00    -0.051 Br
HETATM    2  O1  UNK     1      14.232   6.477  10.403  1.00  0.00    -0.274 OA
HETATM    3  O3  UNK     1      12.195   5.455  10.251  1.00  0.00    -0.259 OA
HETATM    4  C1  UNK     1      14.607   8.585   9.251  1.00  0.00     0.000 A 
HETATM    5  C2  UNK     1      15.073   7.555  10.062  1.00  0.00     0.089 A 
HETATM    6  C3  UNK     1      13.239   8.531   8.761  1.00  0.00     0.038 A 
HETATM    7  C4  UNK     1      12.445   7.504   9.088  1.00  0.00     0.115 A 
HETATM    8  C5  UNK     1      15.471   9.636   8.935  1.00  0.00     0.033 A 
HETATM    9  C6  UNK     1      16.373   7.546  10.564  1.00  0.00     0.039 A 
HETATM   10  C7  UNK     1      12.919   6.398   9.949  1.00  0.00     0.304 A 
HETATM   11  C8  UNK     1      16.778   9.642   9.432  1.00  0.00     0.011 A 
HETATM   12  C9  UNK     1      17.227   8.599  10.245  1.00  0.00     0.022 A 
ENDROOT
BRANCH   7  13
HETATM   13  C10 UNK     1      11.083   7.538   8.544  1.00  0.00     0.299 C 
HETATM   14  O4  UNK     1      10.082   7.610   9.238  1.00  0.00    -0.259 OA
BRANCH  13  15
HETATM   15  O2  UNK     1      11.156   7.476   7.191  1.00  0.00    -0.318 OA
BRANCH  15  16
HETATM   16  C11 UNK     1      10.999   6.167   6.631  1.00  0.00     0.174 C 
HETATM   17  C12 UNK     1       9.658   6.087   5.934  1.00  0.00     0.034 C 
ENDBRANCH  15  16
ENDBRANCH  13  15
ENDBRANCH   7  13
TORSDOF 3
ENDMDL
MODEL 5
REMARK VINA RESULT:      -6.5     14.373     16.438
REMARK  3 active torsions:
REMARK  status: ('A' for Active; 'I' for Inactive)
REMARK    1  A    between atoms: C10_15  and  O2_3 
REMARK    2  A    between atoms: C11_16  and  O2_3 
REMARK    3  A    between atoms: C10_15  and  C4_9 
ROOT
HETATM    1 Br1  UNK     1      18.254   2.441  28.985  1.00  0.00    -0.051 Br
HETATM    2  O1  UNK     1      20.861  -2.737  30.775  1.00  0.00    -0.274 OA
HETATM    3  O3  UNK     1      21.432  -4.200  32.434  1.00  0.00    -0.259 OA
HETATM    4  C1  UNK     1      19.656  -0.700  31.334  1.00  0.00     0.000 A 
HETATM    5  C2  UNK     1      20.249  -1.529  30.387  1.00  0.00     0.089 A 
HETATM    6  C3  UNK     1      19.678  -1.101  32.732  1.00  0.00     0.038 A 
HETATM    7  C4  UNK     1      20.261  -2.250  33.095  1.00  0.00     0.115 A 
HETATM    8  C5  UNK     1      19.059   0.489  30.909  1.00  0.00     0.033 A 
HETATM    9  C6  UNK     1      20.261  -1.203  29.032  1.00  0.00     0.039 A 
HETATM   10  C7  UNK     1      20.898  -3.147  32.105  1.00  0.00     0.304 A 
HETATM   11  C8  UNK     1      19.064   0.830  29.553  1.00  0.00     0.011 A 
HETATM   12  C9  UNK     1      19.664  -0.015  28.617  1.00  0.00     0.022 A 
ENDROOT
BRANCH   7  13
HETATM   13  C10 UNK     1      20.231  -2.568  34.527  1.00  0.00     0.299 C 
HETATM   14  O4  UNK     1      20.425  -3.687  34.972  1.00  0.00    -0.259 OA
BRANCH  13  15
HETATM   15  O2  UNK     1      19.958  -1.432  35.217  1.00  0.00    -0.318 OA
BRANCH  15  16
HETATM   16  C11 UNK     1      19.117  -1.601  36.363  1.00  0.00     0.174 C 
HETATM   17  C12 UNK     1      17.706  -1.185  36.004  1.00  0.00     0.034 C 
ENDBRANCH  15  16
ENDBRANCH  13  15
ENDBRANCH   7  13
TORSDOF 3
ENDMDL
MODEL 6
REMARK VINA RESULT:      -6.5     15.627     17.738
REMARK  3 active torsions:
REMARK  status: ('A' for Active; 'I' for Inactive)
REMARK    1  A    between atoms: C10_15  and  O2_3 
REMARK    2  A    between atoms: C11_16  and  O2_3 
REMARK    3  A    between atoms: C10_15  and  C4_9 
ROOT
HETATM    1 Br1  UNK     1      18.008  -0.767  37.817  1.00  0.00    -0.051 Br
HETATM    2  O1  UNK     1      18.512   1.065  32.055  1.00  0.00    -0.274 OA
HETATM    3  O3  UNK     1      18.527   2.738  30.499  1.00  0.00    -0.259 OA
HETATM    4  C1  UNK     1      18.173   1.610  34.401  1.00  0.00     0.000 A 
HETATM    5  C2  UNK     1      18.391   0.667  33.402  1.00  0.00     0.089 A 
HETATM    6  C3  UNK     1      18.072   3.013  34.033  1.00  0.00     0.038 A 
HETATM    7  C4  UNK     1      18.188   3.386  32.753  1.00  0.00     0.115 A 
HETATM    8  C5  UNK     1      18.059   1.175  35.723  1.00  0.00     0.033 A 
HETATM    9  C6  UNK     1      18.498  -0.693  33.686  1.00  0.00     0.039 A 
HETATM   10  C7  UNK     1      18.420   2.400  31.674  1.00  0.00     0.304 A 
HETATM   11  C8  UNK     1      18.163  -0.186  36.025  1.00  0.00     0.011 A 
HETATM   12  C9  UNK     1      18.382  -1.118  35.008  1.00  0.00     0.022 A 
ENDROOT
BRANCH   7  13
HETATM   13  C10 UNK     1      18.073   4.823  32.483  1.00  0.00     0.299 C 
HETATM   14  O4  UNK     1      17.008   5.396  32.326  1.00  0.00    -0.259 OA
BRANCH  13  15
HETATM   15  O2  UNK     1      19.320   5.357  32.442  1.00  0.00    -0.318 OA
BRANCH  15  16
HETATM   16  C11 UNK     1      19.506   6.403  31.483  1.00  0.00     0.174 C 
HETATM   17  C12 UNK     1      20.080   5.812  30.214  1.00  0.00     0.034 C 
ENDBRANCH  15  16
ENDBRANCH  13  15
ENDBRANCH   7  13
TORSDOF 3
ENDMDL
MODEL 7
REMARK VINA RESULT:      -6.5     15.002     17.164
REMARK  3 active torsions:
REMARK  status: ('A' for Active; 'I' for Inactive)
REMARK    1  A    between atoms: C10_15  and  O2_3 
REMARK    2  A    between atoms: C11_16  and  O2_3 
REMARK    3  A    between atoms: C10_15  and  C4_9 
ROOT
HETATM    1 Br1  UNK     1      18.256  -1.804  36.510  1.00  0.00    -0.051 Br
HETATM    2  O1  UNK     1      18.241   3.834  34.269  1.00  0.00    -0.274 OA
HETATM    3  O3  UNK     1      18.261   5.259  32.484  1.00  0.00    -0.259 OA
HETATM    4  C1  UNK     1      18.274   1.433  33.888  1.00  0.00     0.000 A 
HETATM    5  C2  UNK     1      18.245   2.514  34.763  1.00  0.00     0.089 A 
HETATM    6  C3  UNK     1      18.300   1.686  32.457  1.00  0.00     0.038 A 
HETATM    7  C4  UNK     1      18.296   2.942  31.994  1.00  0.00     0.115 A 
HETATM    8  C5  UNK     1      18.277   0.139  34.417  1.00  0.00     0.033 A 
HETATM    9  C6  UNK     1      18.219   2.340  36.145  1.00  0.00     0.039 A 
HETATM   10  C7  UNK     1      18.265   4.107  32.905  1.00  0.00     0.304 A 
HETATM   11  C8  UNK     1      18.252  -0.052  35.802  1.00  0.00     0.011 A 
HETATM   12  C9  UNK     1      18.223   1.047  36.664  1.00  0.00     0.022 A 
ENDROOT
BRANCH   7  13
HETATM   13  C10 UNK     1      18.322   3.095  30.534  1.00  0.00     0.299 C 
HETATM   14  O4  UNK     1      18.950   3.969  29.960  1.00  0.00    -0.259 OA
BRANCH  13  15
HETATM   15  O2  UNK     1      17.549   2.126  29.984  1.00  0.00    -0.318 OA
BRANCH  15  16
HETATM   16  C11 UNK     1      17.945   1.697  28.677  1.00  0.00     0.174 C 
HETATM   17  C12 UNK     1      19.009   0.629  28.811  1.00  0.00     0.034 C 
ENDBRANCH  15  16
ENDBRANCH  13  15
ENDBRANCH   7  13
TORSDOF 3
ENDMDL
MODEL 8
REMARK VINA RESULT:      -6.5     11.585     13.189
REMARK  3 active torsions:
REMARK  status: ('A' for Active; 'I' for Inactive)
REMARK    1  A    between atoms: C10_15  and  O2_3 
REMARK    2  A    between atoms: C11_16  and  O2_3 
REMARK    3  A    between atoms: C10_15  and  C4_9 
ROOT
HETATM    1 Br1  UNK     1      16.955  10.464  10.249  1.00  0.00    -0.051 Br
HETATM    2  O1  UNK     1      13.860   5.327   9.331  1.00  0.00    -0.274 OA
HETATM    3  O3  UNK     1      12.213   4.170   8.251  1.00  0.00    -0.259 OA
HETATM    4  C1  UNK     1      14.230   7.670   8.794  1.00  0.00     0.000 A 
HETATM    5  C2  UNK     1      14.562   6.534   9.525  1.00  0.00     0.089 A 
HETATM    6  C3  UNK     1      13.146   7.593   7.827  1.00  0.00     0.038 A 
HETATM    7  C4  UNK     1      12.483   6.445   7.648  1.00  0.00     0.115 A 
HETATM    8  C5  UNK     1      14.950   8.846   9.014  1.00  0.00     0.033 A 
HETATM    9  C6  UNK     1      15.590   6.540  10.465  1.00  0.00     0.039 A 
HETATM   10  C7  UNK     1      12.818   5.223   8.413  1.00  0.00     0.304 A 
HETATM   11  C8  UNK     1      15.984   8.869   9.956  1.00  0.00     0.011 A 
HETATM   12  C9  UNK     1      16.303   7.718  10.679  1.00  0.00     0.022 A 
ENDROOT
BRANCH   7  13
HETATM   13  C10 UNK     1      11.407   6.466   6.650  1.00  0.00     0.299 C 
HETATM   14  O4  UNK     1      11.576   6.197   5.472  1.00  0.00    -0.259 OA
BRANCH  13  15
HETATM   15  O2  UNK     1      10.254   6.828   7.265  1.00  0.00    -0.318 OA
BRANCH  15  16
HETATM   16  C11 UNK     1       9.063   6.249   6.720  1.00  0.00     0.174 C 
HETATM   17  C12 UNK     1       8.164   5.809   7.856  1.00  0.00     0.034 C 
ENDBRANCH  15  16
ENDBRANCH  13  15
ENDBRANCH   7  13
TORSDOF 3
ENDMDL
MODEL 9
REMARK VINA RESULT:      -6.5     14.298     16.424
REMARK  3 active torsions:
REMARK  status: ('A' for Active; 'I' for Inactive)
REMARK    1  A    between atoms: C10_15  and  O2_3 
REMARK    2  A    between atoms: C11_16  and  O2_3 
REMARK    3  A    between atoms: C10_15  and  C4_9 
ROOT
HETATM    1 Br1  UNK     1      17.341   0.895  37.099  1.00  0.00    -0.051 Br
HETATM    2  O1  UNK     1      19.089  -0.120  31.379  1.00  0.00    -0.274 OA
HETATM    3  O3  UNK     1      19.497   0.643  29.264  1.00  0.00    -0.259 OA
HETATM    4  C1  UNK     1      18.307   1.428  33.082  1.00  0.00     0.000 A 
HETATM    5  C2  UNK     1      18.679   0.144  32.701  1.00  0.00     0.089 A 
HETATM    6  C3  UNK     1      18.347   2.495  32.095  1.00  0.00     0.038 A 
HETATM    7  C4  UNK     1      18.738   2.239  30.841  1.00  0.00     0.115 A 
HETATM    8  C5  UNK     1      17.906   1.649  34.402  1.00  0.00     0.033 A 
HETATM    9  C6  UNK     1      18.663  -0.923  33.598  1.00  0.00     0.039 A 
HETATM   10  C7  UNK     1      19.139   0.881  30.412  1.00  0.00     0.304 A 
HETATM   11  C8  UNK     1      17.884   0.589  35.314  1.00  0.00     0.011 A 
HETATM   12  C9  UNK     1      18.262  -0.694  34.912  1.00  0.00     0.022 A 
ENDROOT
BRANCH   7  13
HETATM   13  C10 UNK     1      18.747   3.381  29.918  1.00  0.00     0.299 C 
HETATM   14  O4  UNK     1      18.225   3.360  28.816  1.00  0.00    -0.259 OA
BRANCH  13  15
HETATM   15  O2  UNK     1      19.416   4.405  30.504  1.00  0.00    -0.318 OA
BRANCH  15  16
HETATM   16  C11 UNK     1      19.068   5.711  30.033  1.00  0.00     0.174 C 
HETATM   17  C12 UNK     1      18.345   6.455  31.135  1.00  0.00     0.034 C 
ENDBRANCH  15  16
ENDBRANCH  13  15
ENDBRANCH   7  13
TORSDOF 3
ENDMDL
MODEL 10
REMARK VINA RESULT:      -6.4     15.953     18.097
REMARK  3 active torsions:
REMARK  status: ('A' for Active; 'I' for Inactive)
REMARK    1  A    between atoms: C10_15  and  O2_3 
REMARK    2  A    between atoms: C11_16  and  O2_3 
REMARK    3  A    between atoms: C10_15  and  C4_9 
ROOT
HETATM    1 Br1  UNK     1      17.993   7.228  33.300  1.00  0.00    -0.051 Br
HETATM    2  O1  UNK     1      18.406   1.340  31.896  1.00  0.00    -0.274 OA
HETATM    3  O3  UNK     1      18.571  -0.846  32.539  1.00  0.00    -0.259 OA
HETATM    4  C1  UNK     1      18.298   3.084  33.587  1.00  0.00     0.000 A 
HETATM    5  C2  UNK     1      18.311   2.701  32.250  1.00  0.00     0.089 A 
HETATM    6  C3  UNK     1      18.384   2.058  34.614  1.00  0.00     0.038 A 
HETATM    7  C4  UNK     1      18.474   0.767  34.272  1.00  0.00     0.115 A 
HETATM    8  C5  UNK     1      18.203   4.443  33.897  1.00  0.00     0.033 A 
HETATM    9  C6  UNK     1      18.231   3.634  31.218  1.00  0.00     0.039 A 
HETATM   10  C7  UNK     1      18.489   0.336  32.857  1.00  0.00     0.304 A 
HETATM   11  C8  UNK     1      18.123   5.391  32.873  1.00  0.00     0.011 A 
HETATM   12  C9  UNK     1      18.137   4.987  31.536  1.00  0.00     0.022 A 
ENDROOT
BRANCH   7  13
HETATM   13  C10 UNK     1      18.555  -0.193  35.379  1.00  0.00     0.299 C 
HETATM   14  O4  UNK     1      19.568  -0.810  35.663  1.00  0.00    -0.259 OA
BRANCH  13  15
HETATM   15  O2  UNK     1      17.343  -0.256  35.986  1.00  0.00    -0.318 OA
BRANCH  15  16
HETATM   16  C11 UNK     1      17.381  -0.400  37.410  1.00  0.00     0.174 C 
HETATM   17  C12 UNK     1      17.566   0.964  38.039  1.00  0.00     0.034 C 
ENDBRANCH  15  16
ENDBRANCH  13  15
ENDBRANCH   7  13
TORSDOF 3
ENDMDL
