MODEL 1
REMARK VINA RESULT:      -9.9      0.000      0.000
REMARK  3 active torsions:
REMARK  status: ('A' for Active; 'I' for Inactive)
REMARK       I    between atoms: C14_19  and  N1_4 
REMARK    1  A    between atoms: N1_4  and  N2_5 
REMARK    2  A    between atoms: C14_19  and  C3_8 
REMARK    3  A    between atoms: C11_16  and  C19_24 
ROOT
HETATM    1  N2  UNK     1      17.524   4.105  31.969  1.00  0.00    -0.183 NA
HETATM    2  C19 UNK     1      18.231   4.893  32.714  1.00  0.00     0.156 C 
ENDROOT
BRANCH   1   3
HETATM    3  N1  UNK     1      18.060   2.872  31.807  1.00  0.00    -0.243 N 
HETATM    4  C14 UNK     1      18.609   2.547  30.581  1.00  0.00     0.271 C 
HETATM    5  O3  UNK     1      18.651   3.297  29.610  1.00  0.00    -0.266 OA
HETATM    6  H16 UNK     1      17.981   2.224  32.583  1.00  0.00     0.192 HD
BRANCH   4   7
HETATM    7  C3  UNK     1      19.161   1.171  30.463  1.00  0.00     0.034 A 
HETATM    8  C4  UNK     1      19.182   0.364  31.581  1.00  0.00     0.024 A 
HETATM    9  C1  UNK     1      19.700  -0.926  31.469  1.00  0.00    -0.055 A 
HETATM   10  C2  UNK     1      20.186  -1.379  30.242  1.00  0.00    -0.056 A 
HETATM   11  C10 UNK     1      19.725  -1.805  32.676  1.00  0.00     0.049 C 
HETATM   12  C12 UNK     1      20.744  -2.756  30.098  1.00  0.00     0.049 C 
HETATM   13  C6  UNK     1      20.153  -0.541  29.127  1.00  0.00     0.008 A 
HETATM   14  C8  UNK     1      19.635   0.748  29.239  1.00  0.00     0.017 A 
ENDBRANCH   4   7
ENDBRANCH   1   3
BRANCH   2  15
HETATM   15  C11 UNK     1      17.824   6.266  33.011  1.00  0.00     0.056 A 
HETATM   16  C9  UNK     1      18.778   7.349  33.340  1.00  0.00     0.198 A 
HETATM   17  C5  UNK     1      18.183   8.671  33.613  1.00  0.00     0.049 A 
HETATM   18  O2  UNK     1      19.986   7.162  33.381  1.00  0.00    -0.286 OA
HETATM   19  C13 UNK     1      18.994   9.762  33.935  1.00  0.00     0.018 A 
HETATM   20  C7  UNK     1      16.797   8.819  33.545  1.00  0.00     0.089 A 
HETATM   21  C17 UNK     1      18.407  11.003  34.190  1.00  0.00     0.001 A 
HETATM   22  C18 UNK     1      17.021  11.152  34.122  1.00  0.00     0.003 A 
HETATM   23  C15 UNK     1      16.214  10.061  33.800  1.00  0.00     0.038 A 
HETATM   24  O1  UNK     1      15.952   7.782  33.233  1.00  0.00    -0.321 OA
HETATM   25  C16 UNK     1      16.519   6.554  32.984  1.00  0.00     0.159 A 
ENDBRANCH   2  15
TORSDOF 3
ENDMDL
MODEL 2
REMARK VINA RESULT:      -9.5      1.042      1.879
REMARK  3 active torsions:
REMARK  status: ('A' for Active; 'I' for Inactive)
REMARK       I    between atoms: C14_19  and  N1_4 
REMARK    1  A    between atoms: N1_4  and  N2_5 
REMARK    2  A    between atoms: C14_19  and  C3_8 
REMARK    3  A    between atoms: C11_16  and  C19_24 
ROOT
HETATM    1  N2  UNK     1      18.737   4.925  31.042  1.00  0.00    -0.183 NA
HETATM    2  C19 UNK     1      18.883   5.339  32.259  1.00  0.00     0.156 C 
ENDROOT
BRANCH   1   3
HETATM    3  N1  UNK     1      19.249   3.691  30.814  1.00  0.00    -0.243 N 
HETATM    4  C14 UNK     1      18.380   2.620  30.737  1.00  0.00     0.271 C 
HETATM    5  O3  UNK     1      17.160   2.695  30.861  1.00  0.00    -0.266 OA
HETATM    6  H16 UNK     1      20.259   3.608  30.766  1.00  0.00     0.192 HD
BRANCH   4   7
HETATM    7  C3  UNK     1      19.008   1.292  30.506  1.00  0.00     0.034 A 
HETATM    8  C4  UNK     1      19.138   0.423  31.569  1.00  0.00     0.024 A 
HETATM    9  C1  UNK     1      19.727  -0.822  31.352  1.00  0.00    -0.055 A 
HETATM   10  C2  UNK     1      20.174  -1.170  30.077  1.00  0.00    -0.056 A 
HETATM   11  C10 UNK     1      19.870  -1.767  32.500  1.00  0.00     0.049 C 
HETATM   12  C12 UNK     1      20.807  -2.497  29.820  1.00  0.00     0.049 C 
HETATM   13  C6  UNK     1      20.030  -0.272  29.019  1.00  0.00     0.008 A 
HETATM   14  C8  UNK     1      19.441   0.973  29.236  1.00  0.00     0.017 A 
ENDBRANCH   4   7
ENDBRANCH   1   3
BRANCH   2  15
HETATM   15  C11 UNK     1      18.399   6.645  32.708  1.00  0.00     0.056 A 
HETATM   16  C9  UNK     1      16.997   7.094  32.556  1.00  0.00     0.198 A 
HETATM   17  C5  UNK     1      16.693   8.444  33.067  1.00  0.00     0.049 A 
HETATM   18  O2  UNK     1      16.140   6.390  32.040  1.00  0.00    -0.286 OA
HETATM   19  C13 UNK     1      15.401   8.966  32.972  1.00  0.00     0.018 A 
HETATM   20  C7  UNK     1      17.716   9.194  33.650  1.00  0.00     0.089 A 
HETATM   21  C17 UNK     1      15.139  10.246  33.463  1.00  0.00     0.001 A 
HETATM   22  C18 UNK     1      16.160  10.997  34.047  1.00  0.00     0.003 A 
HETATM   23  C15 UNK     1      17.449  10.473  34.140  1.00  0.00     0.038 A 
HETATM   24  O1  UNK     1      19.003   8.732  33.771  1.00  0.00    -0.321 OA
HETATM   25  C16 UNK     1      19.274   7.473  33.287  1.00  0.00     0.159 A 
ENDBRANCH   2  15
TORSDOF 3
ENDMDL
MODEL 3
REMARK VINA RESULT:      -9.3      1.376      9.537
REMARK  3 active torsions:
REMARK  status: ('A' for Active; 'I' for Inactive)
REMARK       I    between atoms: C14_19  and  N1_4 
REMARK    1  A    between atoms: N1_4  and  N2_5 
REMARK    2  A    between atoms: C14_19  and  C3_8 
REMARK    3  A    between atoms: C11_16  and  C19_24 
ROOT
HETATM    1  N2  UNK     1      18.534   4.578  31.654  1.00  0.00    -0.183 NA
HETATM    2  C19 UNK     1      17.925   3.440  31.568  1.00  0.00     0.156 C 
ENDROOT
BRANCH   1   3
HETATM    3  N1  UNK     1      17.790   5.561  32.215  1.00  0.00    -0.243 N 
HETATM    4  C14 UNK     1      18.436   6.683  32.697  1.00  0.00     0.271 C 
HETATM    5  O3  UNK     1      19.650   6.865  32.660  1.00  0.00    -0.266 OA
HETATM    6  H16 UNK     1      16.793   5.398  32.302  1.00  0.00     0.192 HD
BRANCH   4   7
HETATM    7  C3  UNK     1      17.564   7.714  33.319  1.00  0.00     0.034 A 
HETATM    8  C4  UNK     1      18.048   8.997  33.463  1.00  0.00     0.024 A 
HETATM    9  C1  UNK     1      17.230   9.964  34.047  1.00  0.00    -0.055 A 
HETATM   10  C2  UNK     1      15.945   9.625  34.473  1.00  0.00    -0.056 A 
HETATM   11  C10 UNK     1      17.749  11.355  34.206  1.00  0.00     0.049 C 
HETATM   12  C12 UNK     1      15.051  10.643  35.100  1.00  0.00     0.049 C 
HETATM   13  C6  UNK     1      15.480   8.320  34.315  1.00  0.00     0.008 A 
HETATM   14  C8  UNK     1      16.298   7.354  33.732  1.00  0.00     0.017 A 
ENDBRANCH   4   7
ENDBRANCH   1   3
BRANCH   2  15
HETATM   15  C11 UNK     1      18.556   2.251  30.994  1.00  0.00     0.056 A 
HETATM   16  C9  UNK     1      18.882   1.038  31.776  1.00  0.00     0.198 A 
HETATM   17  C5  UNK     1      19.519  -0.061  31.026  1.00  0.00     0.049 A 
HETATM   18  O2  UNK     1      18.637   0.950  32.971  1.00  0.00    -0.286 OA
HETATM   19  C13 UNK     1      19.870  -1.250  31.669  1.00  0.00     0.018 A 
HETATM   20  C7  UNK     1      19.767   0.102  29.662  1.00  0.00     0.089 A 
HETATM   21  C17 UNK     1      20.471  -2.276  30.938  1.00  0.00     0.001 A 
HETATM   22  C18 UNK     1      20.719  -2.114  29.574  1.00  0.00     0.003 A 
HETATM   23  C15 UNK     1      20.368  -0.925  28.935  1.00  0.00     0.038 A 
HETATM   24  O1  UNK     1      19.443   1.249  28.979  1.00  0.00    -0.321 OA
HETATM   25  C16 UNK     1      18.853   2.267  29.690  1.00  0.00     0.159 A 
ENDBRANCH   2  15
TORSDOF 3
ENDMDL
MODEL 4
REMARK VINA RESULT:      -9.3      1.361      9.551
REMARK  3 active torsions:
REMARK  status: ('A' for Active; 'I' for Inactive)
REMARK       I    between atoms: C14_19  and  N1_4 
REMARK    1  A    between atoms: N1_4  and  N2_5 
REMARK    2  A    between atoms: C14_19  and  C3_8 
REMARK    3  A    between atoms: C11_16  and  C19_24 
ROOT
HETATM    1  N2  UNK     1      18.125   4.575  33.249  1.00  0.00    -0.183 NA
HETATM    2  C19 UNK     1      17.857   3.973  32.135  1.00  0.00     0.156 C 
ENDROOT
BRANCH   1   3
HETATM    3  N1  UNK     1      17.556   5.798  33.366  1.00  0.00    -0.243 N 
HETATM    4  C14 UNK     1      18.267   6.799  33.998  1.00  0.00     0.271 C 
HETATM    5  O3  UNK     1      19.392   6.669  34.473  1.00  0.00    -0.266 OA
HETATM    6  H16 UNK     1      16.605   5.903  33.028  1.00  0.00     0.192 HD
BRANCH   4   7
HETATM    7  C3  UNK     1      17.576   8.112  34.112  1.00  0.00     0.034 A 
HETATM    8  C4  UNK     1      18.316   9.267  33.974  1.00  0.00     0.024 A 
HETATM    9  C1  UNK     1      17.667  10.498  34.081  1.00  0.00    -0.055 A 
HETATM   10  C2  UNK     1      16.294  10.544  34.323  1.00  0.00    -0.056 A 
HETATM   11  C10 UNK     1      18.464  11.753  33.934  1.00  0.00     0.049 C 
HETATM   12  C12 UNK     1      15.578  11.849  34.440  1.00  0.00     0.049 C 
HETATM   13  C6  UNK     1      15.570   9.359  34.457  1.00  0.00     0.008 A 
HETATM   14  C8  UNK     1      16.218   8.130  34.351  1.00  0.00     0.017 A 
ENDBRANCH   4   7
ENDBRANCH   1   3
BRANCH   2  15
HETATM   15  C11 UNK     1      18.377   2.643  31.816  1.00  0.00     0.056 A 
HETATM   16  C9  UNK     1      18.839   2.246  30.468  1.00  0.00     0.198 A 
HETATM   17  C5  UNK     1      19.329   0.861  30.336  1.00  0.00     0.049 A 
HETATM   18  O2  UNK     1      18.818   3.018  29.519  1.00  0.00    -0.286 OA
HETATM   19  C13 UNK     1      19.786   0.383  29.105  1.00  0.00     0.018 A 
HETATM   20  C7  UNK     1      19.330   0.032  31.458  1.00  0.00     0.089 A 
HETATM   21  C17 UNK     1      20.245  -0.931  29.006  1.00  0.00     0.001 A 
HETATM   22  C18 UNK     1      20.247  -1.762  30.128  1.00  0.00     0.003 A 
HETATM   23  C15 UNK     1      19.789  -1.282  31.355  1.00  0.00     0.038 A 
HETATM   24  O1  UNK     1      18.892   0.448  32.692  1.00  0.00    -0.321 OA
HETATM   25  C16 UNK     1      18.435   1.740  32.801  1.00  0.00     0.159 A 
ENDBRANCH   2  15
TORSDOF 3
ENDMDL
MODEL 5
REMARK VINA RESULT:      -9.2      6.874     12.385
REMARK  3 active torsions:
REMARK  status: ('A' for Active; 'I' for Inactive)
REMARK       I    between atoms: C14_19  and  N1_4 
REMARK    1  A    between atoms: N1_4  and  N2_5 
REMARK    2  A    between atoms: C14_19  and  C3_8 
REMARK    3  A    between atoms: C11_16  and  C19_24 
ROOT
HETATM    1  N2  UNK     1      20.443  -3.545  35.370  1.00  0.00    -0.183 NA
HETATM    2  C19 UNK     1      19.491  -4.357  35.699  1.00  0.00     0.156 C 
ENDROOT
BRANCH   1   3
HETATM    3  N1  UNK     1      20.071  -2.587  34.488  1.00  0.00    -0.243 N 
HETATM    4  C14 UNK     1      20.517  -2.681  33.184  1.00  0.00     0.271 C 
HETATM    5  O3  UNK     1      21.237  -3.577  32.751  1.00  0.00    -0.266 OA
HETATM    6  H16 UNK     1      19.523  -1.812  34.846  1.00  0.00     0.192 HD
BRANCH   4   7
HETATM    7  C3  UNK     1      20.090  -1.587  32.273  1.00  0.00     0.034 A 
HETATM    8  C4  UNK     1      20.556  -1.580  30.975  1.00  0.00     0.024 A 
HETATM    9  C1  UNK     1      20.154  -0.553  30.121  1.00  0.00    -0.055 A 
HETATM   10  C2  UNK     1      19.296   0.445  30.585  1.00  0.00    -0.056 A 
HETATM   11  C10 UNK     1      20.656  -0.541  28.714  1.00  0.00     0.049 C 
HETATM   12  C12 UNK     1      18.853   1.554  29.689  1.00  0.00     0.049 C 
HETATM   13  C6  UNK     1      18.839   0.414  31.903  1.00  0.00     0.008 A 
HETATM   14  C8  UNK     1      19.241  -0.613  32.756  1.00  0.00     0.017 A 
ENDBRANCH   4   7
ENDBRANCH   1   3
BRANCH   2  15
HETATM   15  C11 UNK     1      19.689  -5.460  36.640  1.00  0.00     0.056 A 
HETATM   16  C9  UNK     1      19.133  -6.817  36.438  1.00  0.00     0.198 A 
HETATM   17  C5  UNK     1      19.436  -7.801  37.495  1.00  0.00     0.049 A 
HETATM   18  O2  UNK     1      18.464  -7.107  35.456  1.00  0.00    -0.286 OA
HETATM   19  C13 UNK     1      18.958  -9.111  37.405  1.00  0.00     0.018 A 
HETATM   20  C7  UNK     1      20.209  -7.407  38.588  1.00  0.00     0.089 A 
HETATM   21  C17 UNK     1      19.258 -10.023  38.417  1.00  0.00     0.001 A 
HETATM   22  C18 UNK     1      20.032  -9.630  39.511  1.00  0.00     0.003 A 
HETATM   23  C15 UNK     1      20.507  -8.322  39.598  1.00  0.00     0.038 A 
HETATM   24  O1  UNK     1      20.705  -6.134  38.728  1.00  0.00    -0.321 OA
HETATM   25  C16 UNK     1      20.413  -5.225  37.738  1.00  0.00     0.159 A 
ENDBRANCH   2  15
TORSDOF 3
ENDMDL
MODEL 6
REMARK VINA RESULT:      -9.2      0.802      1.510
REMARK  3 active torsions:
REMARK  status: ('A' for Active; 'I' for Inactive)
REMARK       I    between atoms: C14_19  and  N1_4 
REMARK    1  A    between atoms: N1_4  and  N2_5 
REMARK    2  A    between atoms: C14_19  and  C3_8 
REMARK    3  A    between atoms: C11_16  and  C19_24 
ROOT
HETATM    1  N2  UNK     1      17.489   4.762  32.178  1.00  0.00    -0.183 NA
HETATM    2  C19 UNK     1      17.852   5.412  33.237  1.00  0.00     0.156 C 
ENDROOT
BRANCH   1   3
HETATM    3  N1  UNK     1      17.928   3.481  32.140  1.00  0.00    -0.243 N 
HETATM    4  C14 UNK     1      18.560   3.035  30.996  1.00  0.00     0.271 C 
HETATM    5  O3  UNK     1      18.759   3.715  29.992  1.00  0.00    -0.266 OA
HETATM    6  H16 UNK     1      17.720   2.894  32.940  1.00  0.00     0.192 HD
BRANCH   4   7
HETATM    7  C3  UNK     1      18.999   1.614  31.011  1.00  0.00     0.034 A 
HETATM    8  C4  UNK     1      19.634   1.101  29.899  1.00  0.00     0.024 A 
HETATM    9  C1  UNK     1      20.044  -0.232  29.915  1.00  0.00    -0.055 A 
HETATM   10  C2  UNK     1      19.811  -1.021  31.042  1.00  0.00    -0.056 A 
HETATM   11  C10 UNK     1      20.732  -0.793  28.713  1.00  0.00     0.049 C 
HETATM   12  C12 UNK     1      20.242  -2.450  31.081  1.00  0.00     0.049 C 
HETATM   13  C6  UNK     1      19.167  -0.476  32.153  1.00  0.00     0.008 A 
HETATM   14  C8  UNK     1      18.756   0.855  32.137  1.00  0.00     0.017 A 
ENDBRANCH   4   7
ENDBRANCH   1   3
BRANCH   2  15
HETATM   15  C11 UNK     1      17.479   6.808  33.468  1.00  0.00     0.056 A 
HETATM   16  C9  UNK     1      18.461   7.909  33.584  1.00  0.00     0.198 A 
HETATM   17  C5  UNK     1      17.898   9.252  33.819  1.00  0.00     0.049 A 
HETATM   18  O2  UNK     1      19.666   7.719  33.491  1.00  0.00    -0.286 OA
HETATM   19  C13 UNK     1      18.737  10.362  33.947  1.00  0.00     0.018 A 
HETATM   20  C7  UNK     1      16.513   9.402  33.911  1.00  0.00     0.089 A 
HETATM   21  C17 UNK     1      18.181  11.623  34.168  1.00  0.00     0.001 A 
HETATM   22  C18 UNK     1      16.796  11.773  34.260  1.00  0.00     0.003 A 
HETATM   23  C15 UNK     1      15.961  10.664  34.132  1.00  0.00     0.038 A 
HETATM   24  O1  UNK     1      15.642   8.347  33.793  1.00  0.00    -0.321 OA
HETATM   25  C16 UNK     1      16.179   7.100  33.577  1.00  0.00     0.159 A 
ENDBRANCH   2  15
TORSDOF 3
ENDMDL
MODEL 7
REMARK VINA RESULT:      -9.0      6.893     12.205
REMARK  3 active torsions:
REMARK  status: ('A' for Active; 'I' for Inactive)
REMARK       I    between atoms: C14_19  and  N1_4 
REMARK    1  A    between atoms: N1_4  and  N2_5 
REMARK    2  A    between atoms: C14_19  and  C3_8 
REMARK    3  A    between atoms: C11_16  and  C19_24 
ROOT
HETATM    1  N2  UNK     1      20.468  -3.875  35.140  1.00  0.00    -0.183 NA
HETATM    2  C19 UNK     1      19.557  -4.337  35.934  1.00  0.00     0.156 C 
ENDROOT
BRANCH   1   3
HETATM    3  N1  UNK     1      20.060  -2.829  34.383  1.00  0.00    -0.243 N 
HETATM    4  C14 UNK     1      20.504  -2.746  33.077  1.00  0.00     0.271 C 
HETATM    5  O3  UNK     1      21.252  -3.556  32.537  1.00  0.00    -0.266 OA
HETATM    6  H16 UNK     1      19.487  -2.123  34.834  1.00  0.00     0.192 HD
BRANCH   4   7
HETATM    7  C3  UNK     1      20.036  -1.562  32.308  1.00  0.00     0.034 A 
HETATM    8  C4  UNK     1      20.463  -1.402  31.007  1.00  0.00     0.024 A 
HETATM    9  C1  UNK     1      20.024  -0.292  30.286  1.00  0.00    -0.055 A 
HETATM   10  C2  UNK     1      19.167   0.633  30.884  1.00  0.00    -0.056 A 
HETATM   11  C10 UNK     1      20.484  -0.113  28.876  1.00  0.00     0.049 C 
HETATM   12  C12 UNK     1      18.683   1.829  30.132  1.00  0.00     0.049 C 
HETATM   13  C6  UNK     1      18.750   0.447  32.202  1.00  0.00     0.008 A 
HETATM   14  C8  UNK     1      19.189  -0.663  32.922  1.00  0.00     0.017 A 
ENDBRANCH   4   7
ENDBRANCH   1   3
BRANCH   2  15
HETATM   15  C11 UNK     1      19.799  -5.465  36.834  1.00  0.00     0.056 A 
HETATM   16  C9  UNK     1      21.058  -5.655  37.589  1.00  0.00     0.198 A 
HETATM   17  C5  UNK     1      21.121  -6.853  38.447  1.00  0.00     0.049 A 
HETATM   18  O2  UNK     1      21.990  -4.866  37.510  1.00  0.00    -0.286 OA
HETATM   19  C13 UNK     1      22.264  -7.128  39.202  1.00  0.00     0.018 A 
HETATM   20  C7  UNK     1      20.021  -7.711  38.497  1.00  0.00     0.089 A 
HETATM   21  C17 UNK     1      22.300  -8.268  40.006  1.00  0.00     0.001 A 
HETATM   22  C18 UNK     1      21.200  -9.126  40.057  1.00  0.00     0.003 A 
HETATM   23  C15 UNK     1      20.060  -8.849  39.303  1.00  0.00     0.038 A 
HETATM   24  O1  UNK     1      18.872  -7.490  37.778  1.00  0.00    -0.321 OA
HETATM   25  C16 UNK     1      18.827  -6.371  36.980  1.00  0.00     0.159 A 
ENDBRANCH   2  15
TORSDOF 3
ENDMDL
MODEL 8
REMARK VINA RESULT:      -8.8      5.794      8.259
REMARK  3 active torsions:
REMARK  status: ('A' for Active; 'I' for Inactive)
REMARK       I    between atoms: C14_19  and  N1_4 
REMARK    1  A    between atoms: N1_4  and  N2_5 
REMARK    2  A    between atoms: C14_19  and  C3_8 
REMARK    3  A    between atoms: C11_16  and  C19_24 
ROOT
HETATM    1  N2  UNK     1      19.030  -1.656  36.541  1.00  0.00    -0.183 NA
HETATM    2  C19 UNK     1      18.251  -1.279  35.579  1.00  0.00     0.156 C 
ENDROOT
BRANCH   1   3
HETATM    3  N1  UNK     1      18.877  -2.954  36.897  1.00  0.00    -0.243 N 
HETATM    4  C14 UNK     1      19.977  -3.788  36.833  1.00  0.00     0.271 C 
HETATM    5  O3  UNK     1      21.099  -3.445  36.473  1.00  0.00    -0.266 OA
HETATM    6  H16 UNK     1      17.943  -3.263  37.143  1.00  0.00     0.192 HD
BRANCH   4   7
HETATM    7  C3  UNK     1      19.737  -5.205  37.217  1.00  0.00     0.034 A 
HETATM    8  C4  UNK     1      20.559  -5.788  38.158  1.00  0.00     0.024 A 
HETATM    9  C1  UNK     1      20.334  -7.117  38.517  1.00  0.00    -0.055 A 
HETATM   10  C2  UNK     1      19.291  -7.832  37.927  1.00  0.00    -0.056 A 
HETATM   11  C10 UNK     1      21.221  -7.754  39.536  1.00  0.00     0.049 C 
HETATM   12  C12 UNK     1      19.030  -9.255  38.296  1.00  0.00     0.049 C 
HETATM   13  C6  UNK     1      18.474  -7.217  36.978  1.00  0.00     0.008 A 
HETATM   14  C8  UNK     1      18.700  -5.889  36.619  1.00  0.00     0.017 A 
ENDBRANCH   4   7
ENDBRANCH   1   3
BRANCH   2  15
HETATM   15  C11 UNK     1      18.261   0.085  35.048  1.00  0.00     0.056 A 
HETATM   16  C9  UNK     1      18.268   0.400  33.602  1.00  0.00     0.198 A 
HETATM   17  C5  UNK     1      18.280   1.834  33.255  1.00  0.00     0.049 A 
HETATM   18  O2  UNK     1      18.263  -0.473  32.746  1.00  0.00    -0.286 OA
HETATM   19  C13 UNK     1      18.289   2.242  31.919  1.00  0.00     0.018 A 
HETATM   20  C7  UNK     1      18.281   2.780  34.281  1.00  0.00     0.089 A 
HETATM   21  C17 UNK     1      18.301   3.604  31.617  1.00  0.00     0.001 A 
HETATM   22  C18 UNK     1      18.301   4.552  32.642  1.00  0.00     0.003 A 
HETATM   23  C15 UNK     1      18.292   4.142  33.974  1.00  0.00     0.038 A 
HETATM   24  O1  UNK     1      18.272   2.437  35.611  1.00  0.00    -0.321 OA
HETATM   25  C16 UNK     1      18.264   1.097  35.921  1.00  0.00     0.159 A 
ENDBRANCH   2  15
TORSDOF 3
ENDMDL
MODEL 9
REMARK VINA RESULT:      -8.7     15.229     16.662
REMARK  3 active torsions:
REMARK  status: ('A' for Active; 'I' for Inactive)
REMARK       I    between atoms: C14_19  and  N1_4 
REMARK    1  A    between atoms: N1_4  and  N2_5 
REMARK    2  A    between atoms: C14_19  and  C3_8 
REMARK    3  A    between atoms: C11_16  and  C19_24 
ROOT
HETATM    1  N2  UNK     1      25.639  -6.747  38.684  1.00  0.00    -0.183 NA
HETATM    2  C19 UNK     1      25.115  -7.890  38.377  1.00  0.00     0.156 C 
ENDROOT
BRANCH   1   3
HETATM    3  N1  UNK     1      26.985  -6.701  38.542  1.00  0.00    -0.243 N 
HETATM    4  C14 UNK     1      27.618  -5.477  38.646  1.00  0.00     0.271 C 
HETATM    5  O3  UNK     1      27.050  -4.409  38.858  1.00  0.00    -0.266 OA
HETATM    6  H16 UNK     1      27.459  -7.568  38.310  1.00  0.00     0.192 HD
BRANCH   4   7
HETATM    7  C3  UNK     1      29.093  -5.494  38.459  1.00  0.00     0.034 A 
HETATM    8  C4  UNK     1      29.758  -6.701  38.513  1.00  0.00     0.024 A 
HETATM    9  C1  UNK     1      31.141  -6.715  38.338  1.00  0.00    -0.055 A 
HETATM   10  C2  UNK     1      31.828  -5.521  38.113  1.00  0.00    -0.056 A 
HETATM   11  C10 UNK     1      31.867  -8.019  38.397  1.00  0.00     0.049 C 
HETATM   12  C12 UNK     1      33.309  -5.512  37.922  1.00  0.00     0.049 C 
HETATM   13  C6  UNK     1      31.131  -4.314  38.062  1.00  0.00     0.008 A 
HETATM   14  C8  UNK     1      29.748  -4.300  38.237  1.00  0.00     0.017 A 
ENDBRANCH   4   7
ENDBRANCH   1   3
BRANCH   2  15
HETATM   15  C11 UNK     1      23.677  -8.144  38.463  1.00  0.00     0.056 A 
HETATM   16  C9  UNK     1      22.934  -8.977  37.491  1.00  0.00     0.198 A 
HETATM   17  C5  UNK     1      21.486  -9.119  37.738  1.00  0.00     0.049 A 
HETATM   18  O2  UNK     1      23.484  -9.516  36.541  1.00  0.00    -0.286 OA
HETATM   19  C13 UNK     1      20.690  -9.881  36.880  1.00  0.00     0.018 A 
HETATM   20  C7  UNK     1      20.920  -8.480  38.843  1.00  0.00     0.089 A 
HETATM   21  C17 UNK     1      19.323 -10.000  37.135  1.00  0.00     0.001 A 
HETATM   22  C18 UNK     1      18.756  -9.363  38.240  1.00  0.00     0.003 A 
HETATM   23  C15 UNK     1      19.553  -8.602  39.094  1.00  0.00     0.038 A 
HETATM   24  O1  UNK     1      21.654  -7.719  39.719  1.00  0.00    -0.321 OA
HETATM   25  C16 UNK     1      23.002  -7.592  39.476  1.00  0.00     0.159 A 
ENDBRANCH   2  15
TORSDOF 3
ENDMDL
MODEL 10
REMARK VINA RESULT:      -8.7      6.071      9.866
REMARK  3 active torsions:
REMARK  status: ('A' for Active; 'I' for Inactive)
REMARK       I    between atoms: C14_19  and  N1_4 
REMARK    1  A    between atoms: N1_4  and  N2_5 
REMARK    2  A    between atoms: C14_19  and  C3_8 
REMARK    3  A    between atoms: C11_16  and  C19_24 
ROOT
HETATM    1  N2  UNK     1      19.712  -3.053  35.165  1.00  0.00    -0.183 NA
HETATM    2  C19 UNK     1      20.222  -2.966  33.979  1.00  0.00     0.156 C 
ENDROOT
BRANCH   1   3
HETATM    3  N1  UNK     1      20.143  -4.125  35.872  1.00  0.00    -0.243 N 
HETATM    4  C14 UNK     1      20.413  -3.962  37.217  1.00  0.00     0.271 C 
HETATM    5  O3  UNK     1      20.295  -2.907  37.835  1.00  0.00    -0.266 OA
HETATM    6  H16 UNK     1      20.299  -4.988  35.362  1.00  0.00     0.192 HD
BRANCH   4   7
HETATM    7  C3  UNK     1      20.902  -5.172  37.931  1.00  0.00     0.034 A 
HETATM    8  C4  UNK     1      20.020  -6.205  38.172  1.00  0.00     0.024 A 
HETATM    9  C1  UNK     1      20.480  -7.339  38.841  1.00  0.00    -0.055 A 
HETATM   10  C2  UNK     1      21.810  -7.415  39.254  1.00  0.00    -0.056 A 
HETATM   11  C10 UNK     1      19.529  -8.461  39.105  1.00  0.00     0.049 C 
HETATM   12  C12 UNK     1      22.325  -8.619  39.971  1.00  0.00     0.049 C 
HETATM   13  C6  UNK     1      22.681  -6.356  38.996  1.00  0.00     0.008 A 
HETATM   14  C8  UNK     1      22.222  -5.222  38.328  1.00  0.00     0.017 A 
ENDBRANCH   4   7
ENDBRANCH   1   3
BRANCH   2  15
HETATM   15  C11 UNK     1      19.886  -1.880  33.057  1.00  0.00     0.056 A 
HETATM   16  C9  UNK     1      20.267  -1.873  31.627  1.00  0.00     0.198 A 
HETATM   17  C5  UNK     1      19.841  -0.692  30.853  1.00  0.00     0.049 A 
HETATM   18  O2  UNK     1      20.895  -2.790  31.116  1.00  0.00    -0.286 OA
HETATM   19  C13 UNK     1      20.151  -0.583  29.495  1.00  0.00     0.018 A 
HETATM   20  C7  UNK     1      19.123   0.318  31.495  1.00  0.00     0.089 A 
HETATM   21  C17 UNK     1      19.738   0.544  28.784  1.00  0.00     0.001 A 
HETATM   22  C18 UNK     1      19.019   1.555  29.425  1.00  0.00     0.003 A 
HETATM   23  C15 UNK     1      18.712   1.444  30.780  1.00  0.00     0.038 A 
HETATM   24  O1  UNK     1      18.791   0.264  32.826  1.00  0.00    -0.321 OA
HETATM   25  C16 UNK     1      19.196  -0.841  33.538  1.00  0.00     0.159 A 
ENDBRANCH   2  15
TORSDOF 3
ENDMDL
