MODEL 1
REMARK VINA RESULT:      -7.6      0.000      0.000
REMARK  3 active torsions:
REMARK  status: ('A' for Active; 'I' for Inactive)
REMARK       I    between atoms: C8_10  and  N1_2 
REMARK    1  A    between atoms: C8_10  and  C9_11 
REMARK    2  A    between atoms: C10_12  and  C9_11 
REMARK    3  A    between atoms: C11_13  and  C12_14 
ROOT
HETATM    1  C9  UNK     1      30.927  -7.513  37.493  1.00  0.00     0.043 C 
HETATM    2  C11 UNK     1      32.221  -7.803  37.716  1.00  0.00     0.029 C 
ENDROOT
BRANCH   1   3
HETATM    3  C10 UNK     1      29.792  -8.029  38.271  1.00  0.00    -0.021 A 
HETATM    4  C13 UNK     1      29.678  -9.395  38.486  1.00  0.00     0.012 A 
HETATM    5  C15 UNK     1      28.600  -9.885  39.222  1.00  0.00     0.001 A 
HETATM    6  C19 UNK     1      27.648  -9.004  39.736  1.00  0.00     0.000 A 
HETATM    7  C16 UNK     1      27.774  -7.633  39.514  1.00  0.00     0.001 A 
HETATM    8  C14 UNK     1      28.853  -7.142  38.777  1.00  0.00     0.012 A 
ENDBRANCH   1   3
BRANCH   1   9
HETATM    9  C8  UNK     1      30.678  -6.594  36.364  1.00  0.00     0.254 C 
HETATM   10  O1  UNK     1      30.796  -5.386  36.576  1.00  0.00    -0.267 OA
HETATM   11  N1  UNK     1      30.322  -7.152  35.140  1.00  0.00    -0.347 N 
HETATM   12  C4  UNK     1      30.060  -6.273  33.997  1.00  0.00     0.130 C 
HETATM   13  C5  UNK     1      30.209  -8.585  34.832  1.00  0.00     0.130 C 
HETATM   14  C1  UNK     1      28.654  -6.521  33.433  1.00  0.00    -0.000 C 
HETATM   15  C3  UNK     1      28.455  -8.013  33.109  1.00  0.00     0.011 C 
HETATM   16  C6  UNK     1      28.411  -5.662  32.194  1.00  0.00     0.011 C 
HETATM   17  C2  UNK     1      28.815  -8.930  34.291  1.00  0.00    -0.000 C 
HETATM   18  C7  UNK     1      27.759  -8.876  35.397  1.00  0.00     0.011 C 
ENDBRANCH   1   9
BRANCH   2  19
HETATM   19  C12 UNK     1      33.363  -7.291  36.943  1.00  0.00    -0.035 A 
HETATM   20  C17 UNK     1      33.722  -7.919  35.760  1.00  0.00     0.011 A 
HETATM   21  C20 UNK     1      34.806  -7.433  35.028  1.00  0.00     0.001 A 
HETATM   22  C22 UNK     1      35.518  -6.326  35.489  1.00  0.00     0.000 A 
HETATM   23  C21 UNK     1      35.147  -5.704  36.681  1.00  0.00     0.001 A 
HETATM   24  C18 UNK     1      34.064  -6.189  37.412  1.00  0.00     0.011 A 
ENDBRANCH   2  19
TORSDOF 3
ENDMDL
MODEL 2
REMARK VINA RESULT:      -7.2      1.852      6.337
REMARK  3 active torsions:
REMARK  status: ('A' for Active; 'I' for Inactive)
REMARK       I    between atoms: C8_10  and  N1_2 
REMARK    1  A    between atoms: C8_10  and  C9_11 
REMARK    2  A    between atoms: C10_12  and  C9_11 
REMARK    3  A    between atoms: C11_13  and  C12_14 
ROOT
HETATM    1  C9  UNK     1      31.186  -6.353  33.619  1.00  0.00     0.043 C 
HETATM    2  C11 UNK     1      30.917  -6.497  32.309  1.00  0.00     0.029 C 
ENDROOT
BRANCH   1   3
HETATM    3  C10 UNK     1      32.418  -5.780  34.178  1.00  0.00    -0.021 A 
HETATM    4  C13 UNK     1      32.332  -4.758  35.113  1.00  0.00     0.012 A 
HETATM    5  C15 UNK     1      33.501  -4.213  35.642  1.00  0.00     0.001 A 
HETATM    6  C19 UNK     1      34.744  -4.695  35.232  1.00  0.00     0.000 A 
HETATM    7  C16 UNK     1      34.818  -5.722  34.291  1.00  0.00     0.001 A 
HETATM    8  C14 UNK     1      33.648  -6.268  33.761  1.00  0.00     0.012 A 
ENDBRANCH   1   3
BRANCH   1   9
HETATM    9  C8  UNK     1      30.123  -6.822  34.530  1.00  0.00     0.254 C 
HETATM   10  O1  UNK     1      29.145  -6.090  34.691  1.00  0.00    -0.267 OA
HETATM   11  N1  UNK     1      30.298  -8.056  35.151  1.00  0.00    -0.347 N 
HETATM   12  C4  UNK     1      29.269  -8.553  36.067  1.00  0.00     0.130 C 
HETATM   13  C5  UNK     1      31.426  -8.979  34.959  1.00  0.00     0.130 C 
HETATM   14  C1  UNK     1      29.869  -8.852  37.448  1.00  0.00    -0.000 C 
HETATM   15  C3  UNK     1      31.077  -9.797  37.320  1.00  0.00     0.011 C 
HETATM   16  C6  UNK     1      28.814  -9.445  38.378  1.00  0.00     0.011 C 
HETATM   17  C2  UNK     1      32.111  -9.306  36.292  1.00  0.00    -0.000 C 
HETATM   18  C7  UNK     1      32.912  -8.112  36.815  1.00  0.00     0.011 C 
ENDBRANCH   1   9
BRANCH   2  19
HETATM   19  C12 UNK     1      29.687  -7.068  31.741  1.00  0.00    -0.035 A 
HETATM   20  C17 UNK     1      29.570  -8.445  31.615  1.00  0.00     0.011 A 
HETATM   21  C20 UNK     1      28.403  -8.987  31.076  1.00  0.00     0.001 A 
HETATM   22  C22 UNK     1      27.368  -8.145  30.667  1.00  0.00     0.000 A 
HETATM   23  C21 UNK     1      27.499  -6.763  30.799  1.00  0.00     0.001 A 
HETATM   24  C18 UNK     1      28.665  -6.221  31.338  1.00  0.00     0.011 A 
ENDBRANCH   2  19
TORSDOF 3
ENDMDL
MODEL 3
REMARK VINA RESULT:      -7.2      1.605      5.099
REMARK  3 active torsions:
REMARK  status: ('A' for Active; 'I' for Inactive)
REMARK       I    between atoms: C8_10  and  N1_2 
REMARK    1  A    between atoms: C8_10  and  C9_11 
REMARK    2  A    between atoms: C10_12  and  C9_11 
REMARK    3  A    between atoms: C11_13  and  C12_14 
ROOT
HETATM    1  C9  UNK     1      28.892  -7.349  35.422  1.00  0.00     0.043 C 
HETATM    2  C11 UNK     1      28.060  -6.888  34.471  1.00  0.00     0.029 C 
ENDROOT
BRANCH   1   3
HETATM    3  C10 UNK     1      28.536  -7.569  36.830  1.00  0.00    -0.021 A 
HETATM    4  C13 UNK     1      28.840  -8.784  37.429  1.00  0.00     0.012 A 
HETATM    5  C15 UNK     1      28.501  -8.993  38.765  1.00  0.00     0.001 A 
HETATM    6  C19 UNK     1      27.863  -7.987  39.489  1.00  0.00     0.000 A 
HETATM    7  C16 UNK     1      27.563  -6.770  38.877  1.00  0.00     0.001 A 
HETATM    8  C14 UNK     1      27.902  -6.560  37.540  1.00  0.00     0.012 A 
ENDBRANCH   1   3
BRANCH   1   9
HETATM    9  C8  UNK     1      30.263  -7.646  34.962  1.00  0.00     0.254 C 
HETATM   10  O1  UNK     1      30.449  -8.714  34.376  1.00  0.00    -0.267 OA
HETATM   11  N1  UNK     1      31.254  -6.705  35.227  1.00  0.00    -0.347 N 
HETATM   12  C4  UNK     1      32.629  -6.967  34.792  1.00  0.00     0.130 C 
HETATM   13  C5  UNK     1      31.071  -5.403  35.885  1.00  0.00     0.130 C 
HETATM   14  C1  UNK     1      33.595  -6.904  35.983  1.00  0.00    -0.000 C 
HETATM   15  C3  UNK     1      33.440  -5.572  36.739  1.00  0.00     0.011 C 
HETATM   16  C6  UNK     1      35.036  -7.097  35.519  1.00  0.00     0.011 C 
HETATM   17  C2  UNK     1      31.979  -5.269  37.114  1.00  0.00    -0.000 C 
HETATM   18  C7  UNK     1      31.492  -6.151  38.267  1.00  0.00     0.011 C 
ENDBRANCH   1   9
BRANCH   2  19
HETATM   19  C12 UNK     1      28.407  -6.666  33.059  1.00  0.00    -0.035 A 
HETATM   20  C17 UNK     1      29.074  -5.505  32.696  1.00  0.00     0.011 A 
HETATM   21  C20 UNK     1      29.402  -5.294  31.356  1.00  0.00     0.001 A 
HETATM   22  C22 UNK     1      29.058  -6.246  30.396  1.00  0.00     0.000 A 
HETATM   23  C21 UNK     1      28.386  -7.409  30.775  1.00  0.00     0.001 A 
HETATM   24  C18 UNK     1      28.059  -7.620  32.114  1.00  0.00     0.011 A 
ENDBRANCH   2  19
TORSDOF 3
ENDMDL
MODEL 4
REMARK VINA RESULT:      -7.1      1.643      2.460
REMARK  3 active torsions:
REMARK  status: ('A' for Active; 'I' for Inactive)
REMARK       I    between atoms: C8_10  and  N1_2 
REMARK    1  A    between atoms: C8_10  and  C9_11 
REMARK    2  A    between atoms: C10_12  and  C9_11 
REMARK    3  A    between atoms: C11_13  and  C12_14 
ROOT
HETATM    1  C9  UNK     1      31.893  -6.245  36.281  1.00  0.00     0.043 C 
HETATM    2  C11 UNK     1      32.994  -6.972  36.542  1.00  0.00     0.029 C 
ENDROOT
BRANCH   1   3
HETATM    3  C10 UNK     1      30.829  -5.935  37.246  1.00  0.00    -0.021 A 
HETATM    4  C13 UNK     1      30.428  -4.618  37.419  1.00  0.00     0.012 A 
HETATM    5  C15 UNK     1      29.420  -4.323  38.336  1.00  0.00     0.001 A 
HETATM    6  C19 UNK     1      28.823  -5.348  39.071  1.00  0.00     0.000 A 
HETATM    7  C16 UNK     1      29.235  -6.668  38.888  1.00  0.00     0.001 A 
HETATM    8  C14 UNK     1      30.244  -6.963  37.970  1.00  0.00     0.012 A 
ENDBRANCH   1   3
BRANCH   1   9
HETATM    9  C8  UNK     1      31.791  -5.739  34.898  1.00  0.00     0.254 C 
HETATM   10  O1  UNK     1      32.397  -4.702  34.625  1.00  0.00    -0.267 OA
HETATM   11  N1  UNK     1      31.012  -6.461  33.998  1.00  0.00    -0.347 N 
HETATM   12  C4  UNK     1      30.881  -5.987  32.618  1.00  0.00     0.130 C 
HETATM   13  C5  UNK     1      30.305  -7.722  34.268  1.00  0.00     0.130 C 
HETATM   14  C1  UNK     1      29.405  -5.783  32.252  1.00  0.00    -0.000 C 
HETATM   15  C3  UNK     1      28.595  -7.061  32.535  1.00  0.00     0.011 C 
HETATM   16  C6  UNK     1      29.263  -5.366  30.790  1.00  0.00     0.011 C 
HETATM   17  C2  UNK     1      28.808  -7.597  33.961  1.00  0.00    -0.000 C 
HETATM   18  C7  UNK     1      28.095  -6.735  35.006  1.00  0.00     0.011 C 
ENDBRANCH   1   9
BRANCH   2  19
HETATM   19  C12 UNK     1      34.064  -7.286  35.582  1.00  0.00    -0.035 A 
HETATM   20  C17 UNK     1      33.887  -8.326  34.682  1.00  0.00     0.011 A 
HETATM   21  C20 UNK     1      34.902  -8.625  33.773  1.00  0.00     0.001 A 
HETATM   22  C22 UNK     1      36.082  -7.881  33.776  1.00  0.00     0.000 A 
HETATM   23  C21 UNK     1      36.247  -6.837  34.687  1.00  0.00     0.001 A 
HETATM   24  C18 UNK     1      35.233  -6.538  35.596  1.00  0.00     0.011 A 
ENDBRANCH   2  19
TORSDOF 3
ENDMDL
MODEL 5
REMARK VINA RESULT:      -7.1      2.023      5.192
REMARK  3 active torsions:
REMARK  status: ('A' for Active; 'I' for Inactive)
REMARK       I    between atoms: C8_10  and  N1_2 
REMARK    1  A    between atoms: C8_10  and  C9_11 
REMARK    2  A    between atoms: C10_12  and  C9_11 
REMARK    3  A    between atoms: C11_13  and  C12_14 
ROOT
HETATM    1  C9  UNK     1      29.597  -8.433  35.220  1.00  0.00     0.043 C 
HETATM    2  C11 UNK     1      28.551  -8.606  34.392  1.00  0.00     0.029 C 
ENDROOT
BRANCH   1   3
HETATM    3  C10 UNK     1      29.713  -8.993  36.574  1.00  0.00    -0.021 A 
HETATM    4  C13 UNK     1      28.615  -8.961  37.421  1.00  0.00     0.012 A 
HETATM    5  C15 UNK     1      28.725  -9.491  38.706  1.00  0.00     0.001 A 
HETATM    6  C19 UNK     1      29.932 -10.046  39.131  1.00  0.00     0.000 A 
HETATM    7  C16 UNK     1      31.029 -10.072  38.270  1.00  0.00     0.001 A 
HETATM    8  C14 UNK     1      30.919  -9.542  36.984  1.00  0.00     0.012 A 
ENDBRANCH   1   3
BRANCH   1   9
HETATM    9  C8  UNK     1      30.694  -7.607  34.678  1.00  0.00     0.254 C 
HETATM   10  O1  UNK     1      31.450  -8.131  33.858  1.00  0.00    -0.267 OA
HETATM   11  N1  UNK     1      30.805  -6.296  35.133  1.00  0.00    -0.347 N 
HETATM   12  C4  UNK     1      31.885  -5.447  34.623  1.00  0.00     0.130 C 
HETATM   13  C5  UNK     1      29.905  -5.619  36.077  1.00  0.00     0.130 C 
HETATM   14  C1  UNK     1      32.739  -4.904  35.777  1.00  0.00    -0.000 C 
HETATM   15  C3  UNK     1      31.855  -4.201  36.822  1.00  0.00     0.011 C 
HETATM   16  C6  UNK     1      33.814  -3.956  35.252  1.00  0.00     0.011 C 
HETATM   17  C2  UNK     1      30.675  -5.072  37.286  1.00  0.00    -0.000 C 
HETATM   18  C7  UNK     1      31.131  -6.202  38.213  1.00  0.00     0.011 C 
ENDBRANCH   1   9
BRANCH   2  19
HETATM   19  C12 UNK     1      28.428  -8.051  33.036  1.00  0.00    -0.035 A 
HETATM   20  C17 UNK     1      28.029  -6.732  32.874  1.00  0.00     0.011 A 
HETATM   21  C20 UNK     1      27.911  -6.205  31.587  1.00  0.00     0.001 A 
HETATM   22  C22 UNK     1      28.191  -7.004  30.478  1.00  0.00     0.000 A 
HETATM   23  C21 UNK     1      28.590  -8.329  30.656  1.00  0.00     0.001 A 
HETATM   24  C18 UNK     1      28.709  -8.855  31.941  1.00  0.00     0.011 A 
ENDBRANCH   2  19
TORSDOF 3
ENDMDL
MODEL 6
REMARK VINA RESULT:      -7.0      1.886      4.783
REMARK  3 active torsions:
REMARK  status: ('A' for Active; 'I' for Inactive)
REMARK       I    between atoms: C8_10  and  N1_2 
REMARK    1  A    between atoms: C8_10  and  C9_11 
REMARK    2  A    between atoms: C10_12  and  C9_11 
REMARK    3  A    between atoms: C11_13  and  C12_14 
ROOT
HETATM    1  C9  UNK     1      28.820  -9.183  36.130  1.00  0.00     0.043 C 
HETATM    2  C11 UNK     1      28.316  -9.438  34.909  1.00  0.00     0.029 C 
ENDROOT
BRANCH   1   3
HETATM    3  C10 UNK     1      28.057  -9.195  37.386  1.00  0.00    -0.021 A 
HETATM    4  C13 UNK     1      28.624  -9.754  38.522  1.00  0.00     0.012 A 
HETATM    5  C15 UNK     1      27.899  -9.768  39.714  1.00  0.00     0.001 A 
HETATM    6  C19 UNK     1      26.616  -9.222  39.757  1.00  0.00     0.000 A 
HETATM    7  C16 UNK     1      26.058  -8.662  38.608  1.00  0.00     0.001 A 
HETATM    8  C14 UNK     1      26.782  -8.649  37.415  1.00  0.00     0.012 A 
ENDBRANCH   1   3
BRANCH   1   9
HETATM    9  C8  UNK     1      30.264  -8.872  36.159  1.00  0.00     0.254 C 
HETATM   10  O1  UNK     1      31.051  -9.819  36.107  1.00  0.00    -0.267 OA
HETATM   11  N1  UNK     1      30.638  -7.535  36.248  1.00  0.00    -0.347 N 
HETATM   12  C4  UNK     1      32.061  -7.187  36.286  1.00  0.00     0.130 C 
HETATM   13  C5  UNK     1      29.736  -6.374  36.272  1.00  0.00     0.130 C 
HETATM   14  C1  UNK     1      32.386  -6.368  37.542  1.00  0.00    -0.000 C 
HETATM   15  C3  UNK     1      31.459  -5.144  37.646  1.00  0.00     0.011 C 
HETATM   16  C6  UNK     1      33.851  -5.937  37.541  1.00  0.00     0.011 C 
HETATM   17  C2  UNK     1      29.971  -5.513  37.520  1.00  0.00    -0.000 C 
HETATM   18  C7  UNK     1      29.446  -6.204  38.781  1.00  0.00     0.011 C 
ENDBRANCH   1   9
BRANCH   2  19
HETATM   19  C12 UNK     1      29.073  -9.429  33.648  1.00  0.00    -0.035 A 
HETATM   20  C17 UNK     1      29.301  -8.224  33.000  1.00  0.00     0.011 A 
HETATM   21  C20 UNK     1      30.018  -8.215  31.802  1.00  0.00     0.001 A 
HETATM   22  C22 UNK     1      30.496  -9.412  31.268  1.00  0.00     0.000 A 
HETATM   23  C21 UNK     1      30.259 -10.617  31.930  1.00  0.00     0.001 A 
HETATM   24  C18 UNK     1      29.543 -10.625  33.127  1.00  0.00     0.011 A 
ENDBRANCH   2  19
TORSDOF 3
ENDMDL
MODEL 7
REMARK VINA RESULT:      -7.0      1.896      6.194
REMARK  3 active torsions:
REMARK  status: ('A' for Active; 'I' for Inactive)
REMARK       I    between atoms: C8_10  and  N1_2 
REMARK    1  A    between atoms: C8_10  and  C9_11 
REMARK    2  A    between atoms: C10_12  and  C9_11 
REMARK    3  A    between atoms: C11_13  and  C12_14 
ROOT
HETATM    1  C9  UNK     1      28.350  -8.566  34.786  1.00  0.00     0.043 C 
HETATM    2  C11 UNK     1      27.803  -9.495  35.591  1.00  0.00     0.029 C 
ENDROOT
BRANCH   1   3
HETATM    3  C10 UNK     1      28.624  -8.736  33.353  1.00  0.00    -0.021 A 
HETATM    4  C13 UNK     1      28.219  -7.755  32.460  1.00  0.00     0.012 A 
HETATM    5  C15 UNK     1      28.478  -7.917  31.099  1.00  0.00     0.001 A 
HETATM    6  C19 UNK     1      29.139  -9.058  30.645  1.00  0.00     0.000 A 
HETATM    7  C16 UNK     1      29.542 -10.038  31.553  1.00  0.00     0.001 A 
HETATM    8  C14 UNK     1      29.283  -9.876  32.915  1.00  0.00     0.012 A 
ENDBRANCH   1   3
BRANCH   1   9
HETATM    9  C8  UNK     1      28.682  -7.286  35.444  1.00  0.00     0.254 C 
HETATM   10  O1  UNK     1      27.772  -6.470  35.595  1.00  0.00    -0.267 OA
HETATM   11  N1  UNK     1      30.001  -7.085  35.842  1.00  0.00    -0.347 N 
HETATM   12  C4  UNK     1      30.371  -5.825  36.492  1.00  0.00     0.130 C 
HETATM   13  C5  UNK     1      31.108  -8.044  35.719  1.00  0.00     0.130 C 
HETATM   14  C1  UNK     1      31.507  -5.133  35.726  1.00  0.00    -0.000 C 
HETATM   15  C3  UNK     1      32.696  -6.091  35.537  1.00  0.00     0.011 C 
HETATM   16  C6  UNK     1      31.947  -3.861  36.447  1.00  0.00     0.011 C 
HETATM   17  C2  UNK     1      32.279  -7.443  34.932  1.00  0.00    -0.000 C 
HETATM   18  C7  UNK     1      31.947  -7.322  33.442  1.00  0.00     0.011 C 
ENDBRANCH   1   9
BRANCH   2  19
HETATM   19  C12 UNK     1      27.524  -9.332  37.026  1.00  0.00    -0.035 A 
HETATM   20  C17 UNK     1      28.521  -9.609  37.949  1.00  0.00     0.011 A 
HETATM   21  C20 UNK     1      28.256  -9.455  39.310  1.00  0.00     0.001 A 
HETATM   22  C22 UNK     1      26.997  -9.029  39.732  1.00  0.00     0.000 A 
HETATM   23  C21 UNK     1      26.002  -8.755  38.792  1.00  0.00     0.001 A 
HETATM   24  C18 UNK     1      26.267  -8.908  37.432  1.00  0.00     0.011 A 
ENDBRANCH   2  19
TORSDOF 3
ENDMDL
MODEL 8
REMARK VINA RESULT:      -6.9     33.066     36.200
REMARK  3 active torsions:
REMARK  status: ('A' for Active; 'I' for Inactive)
REMARK       I    between atoms: C8_10  and  N1_2 
REMARK    1  A    between atoms: C8_10  and  C9_11 
REMARK    2  A    between atoms: C10_12  and  C9_11 
REMARK    3  A    between atoms: C11_13  and  C12_14 
ROOT
HETATM    1  C9  UNK     1      11.908   9.207  10.335  1.00  0.00     0.043 C 
HETATM    2  C11 UNK     1      10.900   9.059   9.457  1.00  0.00     0.029 C 
ENDROOT
BRANCH   1   3
HETATM    3  C10 UNK     1      12.031  10.297  11.313  1.00  0.00    -0.021 A 
HETATM    4  C13 UNK     1      12.332   9.996  12.634  1.00  0.00     0.012 A 
HETATM    5  C15 UNK     1      12.447  11.029  13.564  1.00  0.00     0.001 A 
HETATM    6  C19 UNK     1      12.260  12.352  13.163  1.00  0.00     0.000 A 
HETATM    7  C16 UNK     1      11.958  12.642  11.833  1.00  0.00     0.001 A 
HETATM    8  C14 UNK     1      11.842  11.608  10.902  1.00  0.00     0.012 A 
ENDBRANCH   1   3
BRANCH   1   9
HETATM    9  C8  UNK     1      12.950   8.164  10.273  1.00  0.00     0.254 C 
HETATM   10  O1  UNK     1      12.696   7.073  10.787  1.00  0.00    -0.267 OA
HETATM   11  N1  UNK     1      14.150   8.482   9.644  1.00  0.00    -0.347 N 
HETATM   12  C4  UNK     1      15.212   7.475   9.568  1.00  0.00     0.130 C 
HETATM   13  C5  UNK     1      14.482   9.753   8.984  1.00  0.00     0.130 C 
HETATM   14  C1  UNK     1      16.509   8.005  10.196  1.00  0.00    -0.000 C 
HETATM   15  C3  UNK     1      16.904   9.353   9.567  1.00  0.00     0.011 C 
HETATM   16  C6  UNK     1      17.636   6.986  10.045  1.00  0.00     0.011 C 
HETATM   17  C2  UNK     1      15.753  10.374   9.577  1.00  0.00    -0.000 C 
HETATM   18  C7  UNK     1      15.499  10.933  10.979  1.00  0.00     0.011 C 
ENDBRANCH   1   9
BRANCH   2  19
HETATM   19  C12 UNK     1      10.768   7.972   8.475  1.00  0.00    -0.035 A 
HETATM   20  C17 UNK     1      11.664   7.896   7.418  1.00  0.00     0.011 A 
HETATM   21  C20 UNK     1      11.538   6.865   6.486  1.00  0.00     0.001 A 
HETATM   22  C22 UNK     1      10.518   5.924   6.621  1.00  0.00     0.000 A 
HETATM   23  C21 UNK     1       9.623   6.012   7.688  1.00  0.00     0.001 A 
HETATM   24  C18 UNK     1       9.749   7.042   8.620  1.00  0.00     0.011 A 
ENDBRANCH   2  19
TORSDOF 3
ENDMDL
MODEL 9
REMARK VINA RESULT:      -6.9      2.558      5.593
REMARK  3 active torsions:
REMARK  status: ('A' for Active; 'I' for Inactive)
REMARK       I    between atoms: C8_10  and  N1_2 
REMARK    1  A    between atoms: C8_10  and  C9_11 
REMARK    2  A    between atoms: C10_12  and  C9_11 
REMARK    3  A    between atoms: C11_13  and  C12_14 
ROOT
HETATM    1  C9  UNK     1      30.045  -6.082  33.974  1.00  0.00     0.043 C 
HETATM    2  C11 UNK     1      29.525  -6.206  35.208  1.00  0.00     0.029 C 
ENDROOT
BRANCH   1   3
HETATM    3  C10 UNK     1      29.295  -6.218  32.717  1.00  0.00    -0.021 A 
HETATM    4  C13 UNK     1      28.365  -7.239  32.585  1.00  0.00     0.012 A 
HETATM    5  C15 UNK     1      27.654  -7.370  31.392  1.00  0.00     0.001 A 
HETATM    6  C19 UNK     1      27.881  -6.478  30.344  1.00  0.00     0.000 A 
HETATM    7  C16 UNK     1      28.818  -5.456  30.488  1.00  0.00     0.001 A 
HETATM    8  C14 UNK     1      29.530  -5.324  31.682  1.00  0.00     0.012 A 
ENDBRANCH   1   3
BRANCH   1   9
HETATM    9  C8  UNK     1      31.489  -5.781  33.930  1.00  0.00     0.254 C 
HETATM   10  O1  UNK     1      31.833  -4.610  34.092  1.00  0.00    -0.267 OA
HETATM   11  N1  UNK     1      32.365  -6.839  33.702  1.00  0.00    -0.347 N 
HETATM   12  C4  UNK     1      33.806  -6.581  33.645  1.00  0.00     0.130 C 
HETATM   13  C5  UNK     1      32.003  -8.256  33.543  1.00  0.00     0.130 C 
HETATM   14  C1  UNK     1      34.393  -7.067  32.313  1.00  0.00    -0.000 C 
HETATM   15  C3  UNK     1      34.030  -8.542  32.067  1.00  0.00     0.011 C 
HETATM   16  C6  UNK     1      35.906  -6.870  32.286  1.00  0.00     0.011 C 
HETATM   17  C2  UNK     1      32.523  -8.817  32.213  1.00  0.00    -0.000 C 
HETATM   18  C7  UNK     1      31.726  -8.268  31.027  1.00  0.00     0.011 C 
ENDBRANCH   1   9
BRANCH   2  19
HETATM   19  C12 UNK     1      30.268  -6.070  36.470  1.00  0.00    -0.035 A 
HETATM   20  C17 UNK     1      30.279  -4.847  37.126  1.00  0.00     0.011 A 
HETATM   21  C20 UNK     1      30.984  -4.718  38.323  1.00  0.00     0.001 A 
HETATM   22  C22 UNK     1      31.671  -5.813  38.849  1.00  0.00     0.000 A 
HETATM   23  C21 UNK     1      31.652  -7.036  38.179  1.00  0.00     0.001 A 
HETATM   24  C18 UNK     1      30.947  -7.165  36.983  1.00  0.00     0.011 A 
ENDBRANCH   2  19
TORSDOF 3
ENDMDL
MODEL 10
REMARK VINA RESULT:      -6.8      2.227      6.420
REMARK  3 active torsions:
REMARK  status: ('A' for Active; 'I' for Inactive)
REMARK       I    between atoms: C8_10  and  N1_2 
REMARK    1  A    between atoms: C8_10  and  C9_11 
REMARK    2  A    between atoms: C10_12  and  C9_11 
REMARK    3  A    between atoms: C11_13  and  C12_14 
ROOT
HETATM    1  C9  UNK     1      32.538  -6.829  33.416  1.00  0.00     0.043 C 
HETATM    2  C11 UNK     1      31.829  -7.323  32.385  1.00  0.00     0.029 C 
ENDROOT
BRANCH   1   3
HETATM    3  C10 UNK     1      33.942  -7.145  33.713  1.00  0.00    -0.021 A 
HETATM    4  C13 UNK     1      34.449  -8.389  33.366  1.00  0.00     0.012 A 
HETATM    5  C15 UNK     1      35.782  -8.690  33.648  1.00  0.00     0.001 A 
HETATM    6  C19 UNK     1      36.593  -7.744  34.274  1.00  0.00     0.000 A 
HETATM    7  C16 UNK     1      36.072  -6.497  34.618  1.00  0.00     0.001 A 
HETATM    8  C14 UNK     1      34.739  -6.195  34.336  1.00  0.00     0.012 A 
ENDBRANCH   1   3
BRANCH   1   9
HETATM    9  C8  UNK     1      31.802  -5.896  34.292  1.00  0.00     0.254 C 
HETATM   10  O1  UNK     1      31.723  -4.720  33.933  1.00  0.00    -0.267 OA
HETATM   11  N1  UNK     1      31.253  -6.405  35.466  1.00  0.00    -0.347 N 
HETATM   12  C4  UNK     1      30.520  -5.509  36.364  1.00  0.00     0.130 C 
HETATM   13  C5  UNK     1      31.288  -7.805  35.913  1.00  0.00     0.130 C 
HETATM   14  C1  UNK     1      31.130  -5.535  37.772  1.00  0.00    -0.000 C 
HETATM   15  C3  UNK     1      31.221  -6.980  38.297  1.00  0.00     0.011 C 
HETATM   16  C6  UNK     1      30.319  -4.664  38.728  1.00  0.00     0.011 C 
HETATM   17  C2  UNK     1      31.918  -7.929  37.306  1.00  0.00    -0.000 C 
HETATM   18  C7  UNK     1      33.429  -7.692  37.257  1.00  0.00     0.011 C 
ENDBRANCH   1   9
BRANCH   2  19
HETATM   19  C12 UNK     1      30.424  -7.011  32.081  1.00  0.00    -0.035 A 
HETATM   20  C17 UNK     1      29.417  -7.745  32.690  1.00  0.00     0.011 A 
HETATM   21  C20 UNK     1      28.084  -7.450  32.400  1.00  0.00     0.001 A 
HETATM   22  C22 UNK     1      27.776  -6.426  31.504  1.00  0.00     0.000 A 
HETATM   23  C21 UNK     1      28.799  -5.696  30.899  1.00  0.00     0.001 A 
HETATM   24  C18 UNK     1      30.131  -5.991  31.188  1.00  0.00     0.011 A 
ENDBRANCH   2  19
TORSDOF 3
ENDMDL
