MODEL 1
REMARK VINA RESULT:      -9.2      0.000      0.000
REMARK  6 active torsions:
REMARK  status: ('A' for Active; 'I' for Inactive)
REMARK    1  A    between atoms: C1_8  and  S1_1 
REMARK    2  A    between atoms: O1_2  and  S1_1 
REMARK    3  A    between atoms: C10_17  and  O1_2 
REMARK    4  A    between atoms: C5_12  and  N1_7 
REMARK    5  A    between atoms: C2_9  and  C6_13 
REMARK    6  A    between atoms: C8_15  and  C9_16 
ROOT
HETATM    1  C1  UNK     1      18.553   1.632  32.116  1.00  0.00     0.099 A 
HETATM    2  C2  UNK     1      18.359   2.764  31.339  1.00  0.00    -0.012 A 
HETATM    3  C3  UNK     1      19.104   0.488  31.538  1.00  0.00     0.062 A 
HETATM    4  C4  UNK     1      18.703   2.778  29.996  1.00  0.00     0.015 A 
HETATM    5  C5  UNK     1      19.454   0.491  30.187  1.00  0.00     0.104 A 
HETATM    6  C7  UNK     1      19.254   1.636  29.416  1.00  0.00     0.037 A 
ENDROOT
BRANCH   1   7
HETATM    7  S1  UNK     1      18.130   1.580  33.817  1.00  0.00     0.304 S 
HETATM    8  O2  UNK     1      18.570   2.846  34.381  1.00  0.00    -0.193 OA
HETATM    9  O3  UNK     1      16.738   1.162  33.899  1.00  0.00    -0.193 OA
BRANCH   7  10
HETATM   10  O1  UNK     1      19.052   0.375  34.428  1.00  0.00    -0.229 OA
BRANCH  10  11
HETATM   11  C10 UNK     1      18.772  -0.269  35.608  1.00  0.00     0.089 A 
HETATM   12  C13 UNK     1      18.160   0.429  36.641  1.00  0.00     0.038 A 
HETATM   13  C17 UNK     1      17.877  -0.225  37.840  1.00  0.00     0.003 A 
HETATM   14  C20 UNK     1      18.207  -1.571  37.996  1.00  0.00     0.000 A 
HETATM   15  C18 UNK     1      18.821  -2.264  36.952  1.00  0.00     0.003 A 
HETATM   16  C14 UNK     1      19.105  -1.610  35.753  1.00  0.00     0.038 A 
ENDBRANCH  10  11
ENDBRANCH   7  10
ENDBRANCH   1   7
BRANCH   2  17
HETATM   17  C6  UNK     1      17.781   3.994  31.909  1.00  0.00     0.014 C 
HETATM   18  C8  UNK     1      18.343   5.224  31.840  1.00  0.00     0.012 C 
BRANCH  18  19
HETATM   19  C9  UNK     1      17.764   6.442  32.386  1.00  0.00    -0.036 A 
HETATM   20  C11 UNK     1      16.378   6.600  32.426  1.00  0.00     0.011 A 
HETATM   21  C15 UNK     1      15.824   7.766  32.951  1.00  0.00     0.001 A 
HETATM   22  C19 UNK     1      16.655   8.776  33.437  1.00  0.00     0.000 A 
HETATM   23  C16 UNK     1      18.041   8.618  33.398  1.00  0.00     0.001 A 
HETATM   24  C12 UNK     1      18.595   7.450  32.872  1.00  0.00     0.011 A 
ENDBRANCH  18  19
ENDBRANCH   2  17
BRANCH   5  25
HETATM   25  N1  UNK     1      20.015  -0.672  29.596  1.00  0.00    -0.116 N 
HETATM   26  O4  UNK     1      20.168  -0.708  28.351  1.00  0.00    -0.532 OA
HETATM   27  O5  UNK     1      20.342  -1.633  30.335  1.00  0.00    -0.532 OA
ENDBRANCH   5  25
TORSDOF 6
ENDMDL
MODEL 2
REMARK VINA RESULT:      -8.9      3.096      7.030
REMARK  6 active torsions:
REMARK  status: ('A' for Active; 'I' for Inactive)
REMARK    1  A    between atoms: C1_8  and  S1_1 
REMARK    2  A    between atoms: O1_2  and  S1_1 
REMARK    3  A    between atoms: C10_17  and  O1_2 
REMARK    4  A    between atoms: C5_12  and  N1_7 
REMARK    5  A    between atoms: C2_9  and  C6_13 
REMARK    6  A    between atoms: C8_15  and  C9_16 
ROOT
HETATM    1  C1  UNK     1      18.099   4.083  31.899  1.00  0.00     0.099 A 
HETATM    2  C2  UNK     1      18.114   3.800  33.256  1.00  0.00    -0.012 A 
HETATM    3  C3  UNK     1      17.891   5.395  31.474  1.00  0.00     0.062 A 
HETATM    4  C4  UNK     1      17.924   4.800  34.199  1.00  0.00     0.015 A 
HETATM    5  C5  UNK     1      17.699   6.409  32.412  1.00  0.00     0.104 A 
HETATM    6  C7  UNK     1      17.715   6.112  33.775  1.00  0.00     0.037 A 
ENDROOT
BRANCH   1   7
HETATM    7  S1  UNK     1      18.335   2.844  30.682  1.00  0.00     0.304 S 
HETATM    8  O2  UNK     1      17.040   2.210  30.495  1.00  0.00    -0.193 OA
HETATM    9  O3  UNK     1      19.038   3.465  29.568  1.00  0.00    -0.193 OA
BRANCH   7  10
HETATM   10  O1  UNK     1      19.355   1.774  31.383  1.00  0.00    -0.229 OA
BRANCH  10  11
HETATM   11  C10 UNK     1      19.683   0.562  30.825  1.00  0.00     0.089 A 
HETATM   12  C13 UNK     1      19.656  -0.582  31.611  1.00  0.00     0.038 A 
HETATM   13  C17 UNK     1      19.991  -1.813  31.045  1.00  0.00     0.003 A 
HETATM   14  C20 UNK     1      20.349  -1.888  29.699  1.00  0.00     0.000 A 
HETATM   15  C18 UNK     1      20.373  -0.732  28.919  1.00  0.00     0.003 A 
HETATM   16  C14 UNK     1      20.039   0.499  29.484  1.00  0.00     0.038 A 
ENDBRANCH  10  11
ENDBRANCH   7  10
ENDBRANCH   1   7
BRANCH   2  17
HETATM   17  C6  UNK     1      18.331   2.429  33.750  1.00  0.00     0.014 C 
HETATM   18  C8  UNK     1      18.108   2.013  35.019  1.00  0.00     0.012 C 
BRANCH  18  19
HETATM   19  C9  UNK     1      18.304   0.655  35.503  1.00  0.00    -0.036 A 
HETATM   20  C11 UNK     1      18.884  -0.306  34.674  1.00  0.00     0.011 A 
HETATM   21  C15 UNK     1      19.073  -1.606  35.139  1.00  0.00     0.001 A 
HETATM   22  C19 UNK     1      18.683  -1.948  36.434  1.00  0.00     0.000 A 
HETATM   23  C16 UNK     1      18.104  -0.987  37.264  1.00  0.00     0.001 A 
HETATM   24  C12 UNK     1      17.914   0.315  36.798  1.00  0.00     0.011 A 
ENDBRANCH  18  19
ENDBRANCH   2  17
BRANCH   5  25
HETATM   25  N1  UNK     1      17.487   7.745  31.981  1.00  0.00    -0.116 N 
HETATM   26  O4  UNK     1      16.932   7.946  30.874  1.00  0.00    -0.532 OA
HETATM   27  O5  UNK     1      17.859   8.689  32.720  1.00  0.00    -0.532 OA
ENDBRANCH   5  25
TORSDOF 6
ENDMDL
MODEL 3
REMARK VINA RESULT:      -8.7      4.907     10.335
REMARK  6 active torsions:
REMARK  status: ('A' for Active; 'I' for Inactive)
REMARK    1  A    between atoms: C1_8  and  S1_1 
REMARK    2  A    between atoms: O1_2  and  S1_1 
REMARK    3  A    between atoms: C10_17  and  O1_2 
REMARK    4  A    between atoms: C5_12  and  N1_7 
REMARK    5  A    between atoms: C2_9  and  C6_13 
REMARK    6  A    between atoms: C8_15  and  C9_16 
ROOT
HETATM    1  C1  UNK     1      19.713  -2.157  35.508  1.00  0.00     0.099 A 
HETATM    2  C2  UNK     1      19.822  -3.012  36.594  1.00  0.00    -0.012 A 
HETATM    3  C3  UNK     1      18.995  -0.968  35.641  1.00  0.00     0.062 A 
HETATM    4  C4  UNK     1      19.227  -2.707  37.809  1.00  0.00     0.015 A 
HETATM    5  C5  UNK     1      18.392  -0.650  36.858  1.00  0.00     0.104 A 
HETATM    6  C7  UNK     1      18.509  -1.520  37.943  1.00  0.00     0.037 A 
ENDROOT
BRANCH   1   7
HETATM    7  S1  UNK     1      20.452  -2.511  33.959  1.00  0.00     0.304 S 
HETATM    8  O2  UNK     1      21.726  -1.811  33.950  1.00  0.00    -0.193 OA
HETATM    9  O3  UNK     1      20.383  -3.953  33.771  1.00  0.00    -0.193 OA
BRANCH   7  10
HETATM   10  O1  UNK     1      19.455  -1.815  32.865  1.00  0.00    -0.229 OA
BRANCH  10  11
HETATM   11  C10 UNK     1      19.855  -1.440  31.606  1.00  0.00     0.089 A 
HETATM   12  C13 UNK     1      20.353  -2.398  30.732  1.00  0.00     0.038 A 
HETATM   13  C17 UNK     1      20.761  -2.016  29.454  1.00  0.00     0.003 A 
HETATM   14  C20 UNK     1      20.667  -0.681  29.060  1.00  0.00     0.000 A 
HETATM   15  C18 UNK     1      20.166   0.273  29.945  1.00  0.00     0.003 A 
HETATM   16  C14 UNK     1      19.758  -0.108  31.224  1.00  0.00     0.038 A 
ENDBRANCH  10  11
ENDBRANCH   7  10
ENDBRANCH   1   7
BRANCH   2  17
HETATM   17  C6  UNK     1      20.571  -4.278  36.499  1.00  0.00     0.014 C 
HETATM   18  C8  UNK     1      20.065  -5.505  36.764  1.00  0.00     0.012 C 
BRANCH  18  19
HETATM   19  C9  UNK     1      20.799  -6.757  36.652  1.00  0.00    -0.036 A 
HETATM   20  C11 UNK     1      21.636  -7.170  37.689  1.00  0.00     0.011 A 
HETATM   21  C15 UNK     1      22.338  -8.371  37.582  1.00  0.00     0.001 A 
HETATM   22  C19 UNK     1      22.202  -9.158  36.439  1.00  0.00     0.000 A 
HETATM   23  C16 UNK     1      21.363  -8.745  35.403  1.00  0.00     0.001 A 
HETATM   24  C12 UNK     1      20.662  -7.544  35.510  1.00  0.00     0.011 A 
ENDBRANCH  18  19
ENDBRANCH   2  17
BRANCH   5  25
HETATM   25  N1  UNK     1      17.661   0.559  36.995  1.00  0.00    -0.116 N 
HETATM   26  O4  UNK     1      16.414   0.536  36.848  1.00  0.00    -0.532 OA
HETATM   27  O5  UNK     1      18.280   1.618  37.261  1.00  0.00    -0.532 OA
ENDBRANCH   5  25
TORSDOF 6
ENDMDL
MODEL 4
REMARK VINA RESULT:      -8.3     15.532     17.794
REMARK  6 active torsions:
REMARK  status: ('A' for Active; 'I' for Inactive)
REMARK    1  A    between atoms: C1_8  and  S1_1 
REMARK    2  A    between atoms: O1_2  and  S1_1 
REMARK    3  A    between atoms: C10_17  and  O1_2 
REMARK    4  A    between atoms: C5_12  and  N1_7 
REMARK    5  A    between atoms: C2_9  and  C6_13 
REMARK    6  A    between atoms: C8_15  and  C9_16 
ROOT
HETATM    1  C1  UNK     1      19.245  -3.734  15.470  1.00  0.00     0.099 A 
HETATM    2  C2  UNK     1      18.330  -2.827  15.984  1.00  0.00    -0.012 A 
HETATM    3  C3  UNK     1      18.865  -5.064  15.290  1.00  0.00     0.062 A 
HETATM    4  C4  UNK     1      17.044  -3.220  16.323  1.00  0.00     0.015 A 
HETATM    5  C5  UNK     1      17.574  -5.472  15.627  1.00  0.00     0.104 A 
HETATM    6  C7  UNK     1      16.663  -4.550  16.143  1.00  0.00     0.037 A 
ENDROOT
BRANCH   1   7
HETATM    7  S1  UNK     1      20.877  -3.271  15.033  1.00  0.00     0.304 S 
HETATM    8  O2  UNK     1      21.503  -4.465  14.486  1.00  0.00    -0.193 OA
HETATM    9  O3  UNK     1      20.781  -2.047  14.251  1.00  0.00    -0.193 OA
BRANCH   7  10
HETATM   10  O1  UNK     1      21.591  -2.901  16.457  1.00  0.00    -0.229 OA
BRANCH  10  11
HETATM   11  C10 UNK     1      22.752  -3.487  16.898  1.00  0.00     0.089 A 
HETATM   12  C13 UNK     1      22.759  -4.163  18.111  1.00  0.00     0.038 A 
HETATM   13  C17 UNK     1      23.939  -4.757  18.560  1.00  0.00     0.003 A 
HETATM   14  C20 UNK     1      25.100  -4.671  17.792  1.00  0.00     0.000 A 
HETATM   15  C18 UNK     1      25.082  -3.991  16.575  1.00  0.00     0.003 A 
HETATM   16  C14 UNK     1      23.903  -3.395  16.126  1.00  0.00     0.038 A 
ENDBRANCH  10  11
ENDBRANCH   7  10
ENDBRANCH   1   7
BRANCH   2  17
HETATM   17  C6  UNK     1      18.688  -1.413  16.191  1.00  0.00     0.014 C 
HETATM   18  C8  UNK     1      18.578  -0.744  17.363  1.00  0.00     0.012 C 
BRANCH  18  19
HETATM   19  C9  UNK     1      18.948   0.648  17.572  1.00  0.00    -0.036 A 
HETATM   20  C11 UNK     1      19.182   1.481  16.478  1.00  0.00     0.011 A 
HETATM   21  C15 UNK     1      19.535   2.814  16.679  1.00  0.00     0.001 A 
HETATM   22  C19 UNK     1      19.655   3.316  17.975  1.00  0.00     0.000 A 
HETATM   23  C16 UNK     1      19.420   2.483  19.070  1.00  0.00     0.001 A 
HETATM   24  C12 UNK     1      19.067   1.148  18.868  1.00  0.00     0.011 A 
ENDBRANCH  18  19
ENDBRANCH   2  17
BRANCH   5  25
HETATM   25  N1  UNK     1      17.186  -6.825  15.445  1.00  0.00    -0.116 N 
HETATM   26  O4  UNK     1      17.431  -7.386  14.349  1.00  0.00    -0.532 OA
HETATM   27  O5  UNK     1      16.607  -7.424  16.384  1.00  0.00    -0.532 OA
ENDBRANCH   5  25
TORSDOF 6
ENDMDL
MODEL 5
REMARK VINA RESULT:      -8.2     23.414     25.266
REMARK  6 active torsions:
REMARK  status: ('A' for Active; 'I' for Inactive)
REMARK    1  A    between atoms: C1_8  and  S1_1 
REMARK    2  A    between atoms: O1_2  and  S1_1 
REMARK    3  A    between atoms: C10_17  and  O1_2 
REMARK    4  A    between atoms: C5_12  and  N1_7 
REMARK    5  A    between atoms: C2_9  and  C6_13 
REMARK    6  A    between atoms: C8_15  and  C9_16 
ROOT
HETATM    1  C1  UNK     1      11.433   6.432   8.768  1.00  0.00     0.099 A 
HETATM    2  C2  UNK     1      11.424   7.811   8.913  1.00  0.00    -0.012 A 
HETATM    3  C3  UNK     1      10.226   5.733   8.787  1.00  0.00     0.062 A 
HETATM    4  C4  UNK     1      10.235   8.507   9.078  1.00  0.00     0.015 A 
HETATM    5  C5  UNK     1       9.024   6.421   8.952  1.00  0.00     0.104 A 
HETATM    6  C7  UNK     1       9.029   7.809   9.097  1.00  0.00     0.037 A 
ENDROOT
BRANCH   1   7
HETATM    7  S1  UNK     1      12.916   5.522   8.558  1.00  0.00     0.304 S 
HETATM    8  O2  UNK     1      12.515   4.138   8.357  1.00  0.00    -0.193 OA
HETATM    9  O3  UNK     1      13.715   6.227   7.566  1.00  0.00    -0.193 OA
BRANCH   7  10
HETATM   10  O1  UNK     1      13.679   5.651   9.999  1.00  0.00    -0.229 OA
BRANCH  10  11
HETATM   11  C10 UNK     1      14.913   6.235  10.154  1.00  0.00     0.089 A 
HETATM   12  C13 UNK     1      15.078   7.244  11.093  1.00  0.00     0.038 A 
HETATM   13  C17 UNK     1      16.331   7.839  11.250  1.00  0.00     0.003 A 
HETATM   14  C20 UNK     1      17.406   7.419  10.466  1.00  0.00     0.000 A 
HETATM   15  C18 UNK     1      17.228   6.405   9.526  1.00  0.00     0.003 A 
HETATM   16  C14 UNK     1      15.976   5.811   9.368  1.00  0.00     0.038 A 
ENDBRANCH  10  11
ENDBRANCH   7  10
ENDBRANCH   1   7
BRANCH   2  17
HETATM   17  C6  UNK     1      12.675   8.590   8.898  1.00  0.00     0.014 C 
HETATM   18  C8  UNK     1      12.961   9.620   9.730  1.00  0.00     0.012 C 
BRANCH  18  19
HETATM   19  C9  UNK     1      14.203  10.378   9.728  1.00  0.00    -0.036 A 
HETATM   20  C11 UNK     1      14.519  11.204  10.807  1.00  0.00     0.011 A 
HETATM   21  C15 UNK     1      15.710  11.929  10.806  1.00  0.00     0.001 A 
HETATM   22  C19 UNK     1      16.587  11.827   9.726  1.00  0.00     0.000 A 
HETATM   23  C16 UNK     1      16.273  10.999   8.648  1.00  0.00     0.001 A 
HETATM   24  C12 UNK     1      15.080  10.274   8.649  1.00  0.00     0.011 A 
ENDBRANCH  18  19
ENDBRANCH   2  17
BRANCH   5  25
HETATM   25  N1  UNK     1       7.795   5.711   8.972  1.00  0.00    -0.116 N 
HETATM   26  O4  UNK     1       7.737   4.579   8.432  1.00  0.00    -0.532 OA
HETATM   27  O5  UNK     1       6.799   6.234   9.530  1.00  0.00    -0.532 OA
ENDBRANCH   5  25
TORSDOF 6
ENDMDL
MODEL 6
REMARK VINA RESULT:      -8.2     14.743     17.001
REMARK  6 active torsions:
REMARK  status: ('A' for Active; 'I' for Inactive)
REMARK    1  A    between atoms: C1_8  and  S1_1 
REMARK    2  A    between atoms: O1_2  and  S1_1 
REMARK    3  A    between atoms: C10_17  and  O1_2 
REMARK    4  A    between atoms: C5_12  and  N1_7 
REMARK    5  A    between atoms: C2_9  and  C6_13 
REMARK    6  A    between atoms: C8_15  and  C9_16 
ROOT
HETATM    1  C1  UNK     1      32.070  -7.098  32.210  1.00  0.00     0.099 A 
HETATM    2  C2  UNK     1      32.661  -6.902  33.449  1.00  0.00    -0.012 A 
HETATM    3  C3  UNK     1      32.876  -7.229  31.079  1.00  0.00     0.062 A 
HETATM    4  C4  UNK     1      34.040  -6.834  33.582  1.00  0.00     0.015 A 
HETATM    5  C5  UNK     1      34.264  -7.161  31.200  1.00  0.00     0.104 A 
HETATM    6  C7  UNK     1      34.846  -6.964  32.452  1.00  0.00     0.037 A 
ENDROOT
BRANCH   1   7
HETATM    7  S1  UNK     1      30.332  -7.189  32.006  1.00  0.00     0.304 S 
HETATM    8  O2  UNK     1      29.941  -8.514  32.461  1.00  0.00    -0.193 OA
HETATM    9  O3  UNK     1      29.766  -5.990  32.606  1.00  0.00    -0.193 OA
BRANCH   7  10
HETATM   10  O1  UNK     1      30.107  -7.094  30.389  1.00  0.00    -0.229 OA
BRANCH  10  11
HETATM   11  C10 UNK     1      29.602  -8.123  29.632  1.00  0.00     0.089 A 
HETATM   12  C13 UNK     1      30.437  -8.797  28.750  1.00  0.00     0.038 A 
HETATM   13  C17 UNK     1      29.924  -9.841  27.981  1.00  0.00     0.003 A 
HETATM   14  C20 UNK     1      28.582 -10.202  28.099  1.00  0.00     0.000 A 
HETATM   15  C18 UNK     1      27.752  -9.519  28.987  1.00  0.00     0.003 A 
HETATM   16  C14 UNK     1      28.264  -8.474  29.757  1.00  0.00     0.038 A 
ENDBRANCH  10  11
ENDBRANCH   7  10
ENDBRANCH   1   7
BRANCH   2  17
HETATM   17  C6  UNK     1      31.849  -6.759  34.670  1.00  0.00     0.014 C 
HETATM   18  C8  UNK     1      31.845  -5.675  35.481  1.00  0.00     0.012 C 
BRANCH  18  19
HETATM   19  C9  UNK     1      31.030  -5.525  36.677  1.00  0.00    -0.036 A 
HETATM   20  C11 UNK     1      30.741  -4.253  37.172  1.00  0.00     0.011 A 
HETATM   21  C15 UNK     1      29.959  -4.110  38.317  1.00  0.00     0.001 A 
HETATM   22  C19 UNK     1      29.463  -5.240  38.967  1.00  0.00     0.000 A 
HETATM   23  C16 UNK     1      29.750  -6.513  38.472  1.00  0.00     0.001 A 
HETATM   24  C12 UNK     1      30.534  -6.655  37.326  1.00  0.00     0.011 A 
ENDBRANCH  18  19
ENDBRANCH   2  17
BRANCH   5  25
HETATM   25  N1  UNK     1      35.085  -7.294  30.050  1.00  0.00    -0.116 N 
HETATM   26  O4  UNK     1      35.287  -8.438  29.575  1.00  0.00    -0.532 OA
HETATM   27  O5  UNK     1      35.587  -6.263  29.538  1.00  0.00    -0.532 OA
ENDBRANCH   5  25
TORSDOF 6
ENDMDL
MODEL 7
REMARK VINA RESULT:      -8.1     15.213     18.885
REMARK  6 active torsions:
REMARK  status: ('A' for Active; 'I' for Inactive)
REMARK    1  A    between atoms: C1_8  and  S1_1 
REMARK    2  A    between atoms: O1_2  and  S1_1 
REMARK    3  A    between atoms: C10_17  and  O1_2 
REMARK    4  A    between atoms: C5_12  and  N1_7 
REMARK    5  A    between atoms: C2_9  and  C6_13 
REMARK    6  A    between atoms: C8_15  and  C9_16 
ROOT
HETATM    1  C1  UNK     1      19.663  -3.854  15.749  1.00  0.00     0.099 A 
HETATM    2  C2  UNK     1      18.696  -2.910  16.058  1.00  0.00    -0.012 A 
HETATM    3  C3  UNK     1      19.274  -5.160  15.446  1.00  0.00     0.062 A 
HETATM    4  C4  UNK     1      17.349  -3.241  16.072  1.00  0.00     0.015 A 
HETATM    5  C5  UNK     1      17.923  -5.504  15.456  1.00  0.00     0.104 A 
HETATM    6  C7  UNK     1      16.960  -4.545  15.769  1.00  0.00     0.037 A 
ENDROOT
BRANCH   1   7
HETATM    7  S1  UNK     1      21.373  -3.470  15.723  1.00  0.00     0.304 S 
HETATM    8  O2  UNK     1      21.651  -2.782  16.974  1.00  0.00    -0.193 OA
HETATM    9  O3  UNK     1      22.080  -4.690  15.361  1.00  0.00    -0.193 OA
BRANCH   7  10
HETATM   10  O1  UNK     1      21.533  -2.412  14.486  1.00  0.00    -0.229 OA
BRANCH  10  11
HETATM   11  C10 UNK     1      20.754  -2.443  13.356  1.00  0.00     0.089 A 
HETATM   12  C13 UNK     1      20.676  -3.612  12.611  1.00  0.00     0.038 A 
HETATM   13  C17 UNK     1      19.885  -3.643  11.462  1.00  0.00     0.003 A 
HETATM   14  C20 UNK     1      19.180  -2.506  11.068  1.00  0.00     0.000 A 
HETATM   15  C18 UNK     1      19.266  -1.337  11.824  1.00  0.00     0.003 A 
HETATM   16  C14 UNK     1      20.057  -1.305  12.973  1.00  0.00     0.038 A 
ENDBRANCH  10  11
ENDBRANCH   7  10
ENDBRANCH   1   7
BRANCH   2  17
HETATM   17  C6  UNK     1      19.061  -1.520  16.384  1.00  0.00     0.014 C 
HETATM   18  C8  UNK     1      18.541  -0.796  17.403  1.00  0.00     0.012 C 
BRANCH  18  19
HETATM   19  C9  UNK     1      18.914   0.570  17.737  1.00  0.00    -0.036 A 
HETATM   20  C11 UNK     1      19.113   1.508  16.724  1.00  0.00     0.011 A 
HETATM   21  C15 UNK     1      19.469   2.817  17.044  1.00  0.00     0.001 A 
HETATM   22  C19 UNK     1      19.626   3.190  18.379  1.00  0.00     0.000 A 
HETATM   23  C16 UNK     1      19.426   2.253  19.393  1.00  0.00     0.001 A 
HETATM   24  C12 UNK     1      19.070   0.942  19.072  1.00  0.00     0.011 A 
ENDBRANCH  18  19
ENDBRANCH   2  17
BRANCH   5  25
HETATM   25  N1  UNK     1      17.526  -6.832  15.149  1.00  0.00    -0.116 N 
HETATM   26  O4  UNK     1      17.814  -7.309  14.024  1.00  0.00    -0.532 OA
HETATM   27  O5  UNK     1      16.897  -7.494  16.010  1.00  0.00    -0.532 OA
ENDBRANCH   5  25
TORSDOF 6
ENDMDL
MODEL 8
REMARK VINA RESULT:      -8.1     12.709     14.752
REMARK  6 active torsions:
REMARK  status: ('A' for Active; 'I' for Inactive)
REMARK    1  A    between atoms: C1_8  and  S1_1 
REMARK    2  A    between atoms: O1_2  and  S1_1 
REMARK    3  A    between atoms: C10_17  and  O1_2 
REMARK    4  A    between atoms: C5_12  and  N1_7 
REMARK    5  A    between atoms: C2_9  and  C6_13 
REMARK    6  A    between atoms: C8_15  and  C9_16 
ROOT
HETATM    1  C1  UNK     1      27.452  -7.846  38.659  1.00  0.00     0.099 A 
HETATM    2  C2  UNK     1      26.390  -6.957  38.723  1.00  0.00    -0.012 A 
HETATM    3  C3  UNK     1      28.758  -7.355  38.632  1.00  0.00     0.062 A 
HETATM    4  C4  UNK     1      26.604  -5.587  38.761  1.00  0.00     0.015 A 
HETATM    5  C5  UNK     1      28.986  -5.980  38.670  1.00  0.00     0.104 A 
HETATM    6  C7  UNK     1      27.909  -5.095  38.734  1.00  0.00     0.037 A 
ENDROOT
BRANCH   1   7
HETATM    7  S1  UNK     1      27.217  -9.583  38.610  1.00  0.00     0.304 S 
HETATM    8  O2  UNK     1      28.514 -10.173  38.904  1.00  0.00    -0.193 OA
HETATM    9  O3  UNK     1      26.050  -9.881  39.427  1.00  0.00    -0.193 OA
BRANCH   7  10
HETATM   10  O1  UNK     1      26.831  -9.897  37.052  1.00  0.00    -0.229 OA
BRANCH  10  11
HETATM   11  C10 UNK     1      25.614 -10.397  36.658  1.00  0.00     0.089 A 
HETATM   12  C13 UNK     1      25.511 -11.730  36.284  1.00  0.00     0.038 A 
HETATM   13  C17 UNK     1      24.275 -12.238  35.883  1.00  0.00     0.003 A 
HETATM   14  C20 UNK     1      23.154 -11.408  35.860  1.00  0.00     0.000 A 
HETATM   15  C18 UNK     1      23.269 -10.071  36.237  1.00  0.00     0.003 A 
HETATM   16  C14 UNK     1      24.505  -9.562  36.638  1.00  0.00     0.038 A 
ENDBRANCH  10  11
ENDBRANCH   7  10
ENDBRANCH   1   7
BRANCH   2  17
HETATM   17  C6  UNK     1      24.995  -7.431  38.754  1.00  0.00     0.014 C 
HETATM   18  C8  UNK     1      23.935  -6.707  39.185  1.00  0.00     0.012 C 
BRANCH  18  19
HETATM   19  C9  UNK     1      22.555  -7.168  39.198  1.00  0.00    -0.036 A 
HETATM   20  C11 UNK     1      21.522  -6.289  38.871  1.00  0.00     0.011 A 
HETATM   21  C15 UNK     1      20.200  -6.732  38.882  1.00  0.00     0.001 A 
HETATM   22  C19 UNK     1      19.910  -8.054  39.220  1.00  0.00     0.000 A 
HETATM   23  C16 UNK     1      20.943  -8.933  39.546  1.00  0.00     0.001 A 
HETATM   24  C12 UNK     1      22.266  -8.489  39.535  1.00  0.00     0.011 A 
ENDBRANCH  18  19
ENDBRANCH   2  17
BRANCH   5  25
HETATM   25  N1  UNK     1      30.314  -5.478  38.643  1.00  0.00    -0.116 N 
HETATM   26  O4  UNK     1      30.534  -4.318  39.066  1.00  0.00    -0.532 OA
HETATM   27  O5  UNK     1      31.231  -6.210  38.196  1.00  0.00    -0.532 OA
ENDBRANCH   5  25
TORSDOF 6
ENDMDL
MODEL 9
REMARK VINA RESULT:      -8.1     14.140     17.099
REMARK  6 active torsions:
REMARK  status: ('A' for Active; 'I' for Inactive)
REMARK    1  A    between atoms: C1_8  and  S1_1 
REMARK    2  A    between atoms: O1_2  and  S1_1 
REMARK    3  A    between atoms: C10_17  and  O1_2 
REMARK    4  A    between atoms: C5_12  and  N1_7 
REMARK    5  A    between atoms: C2_9  and  C6_13 
REMARK    6  A    between atoms: C8_15  and  C9_16 
ROOT
HETATM    1  C1  UNK     1      31.978  -8.440  30.073  1.00  0.00     0.099 A 
HETATM    2  C2  UNK     1      32.093  -8.384  31.453  1.00  0.00    -0.012 A 
HETATM    3  C3  UNK     1      33.042  -8.013  29.278  1.00  0.00     0.062 A 
HETATM    4  C4  UNK     1      33.248  -7.911  32.058  1.00  0.00     0.015 A 
HETATM    5  C5  UNK     1      34.209  -7.534  29.874  1.00  0.00     0.104 A 
HETATM    6  C7  UNK     1      34.312  -7.483  31.265  1.00  0.00     0.037 A 
ENDROOT
BRANCH   1   7
HETATM    7  S1  UNK     1      30.533  -9.032  29.276  1.00  0.00     0.304 S 
HETATM    8  O2  UNK     1      30.948  -9.447  27.945  1.00  0.00    -0.193 OA
HETATM    9  O3  UNK     1      29.892  -9.966  30.190  1.00  0.00    -0.193 OA
BRANCH   7  10
HETATM   10  O1  UNK     1      29.571  -7.716  29.147  1.00  0.00    -0.229 OA
BRANCH  10  11
HETATM   11  C10 UNK     1      29.069  -7.035  30.229  1.00  0.00     0.089 A 
HETATM   12  C13 UNK     1      27.931  -7.510  30.869  1.00  0.00     0.038 A 
HETATM   13  C17 UNK     1      27.420  -6.818  31.967  1.00  0.00     0.003 A 
HETATM   14  C20 UNK     1      28.051  -5.658  32.416  1.00  0.00     0.000 A 
HETATM   15  C18 UNK     1      29.193  -5.189  31.766  1.00  0.00     0.003 A 
HETATM   16  C14 UNK     1      29.704  -5.881  30.668  1.00  0.00     0.038 A 
ENDBRANCH  10  11
ENDBRANCH   7  10
ENDBRANCH   1   7
BRANCH   2  17
HETATM   17  C6  UNK     1      30.994  -8.825  32.331  1.00  0.00     0.014 C 
HETATM   18  C8  UNK     1      30.610  -8.204  33.471  1.00  0.00     0.012 C 
BRANCH  18  19
HETATM   19  C9  UNK     1      29.514  -8.628  34.328  1.00  0.00    -0.036 A 
HETATM   20  C11 UNK     1      28.887  -9.855  34.107  1.00  0.00     0.011 A 
HETATM   21  C15 UNK     1      27.838 -10.261  34.930  1.00  0.00     0.001 A 
HETATM   22  C19 UNK     1      27.414  -9.441  35.976  1.00  0.00     0.000 A 
HETATM   23  C16 UNK     1      28.042  -8.215  36.199  1.00  0.00     0.001 A 
HETATM   24  C12 UNK     1      29.092  -7.808  35.374  1.00  0.00     0.011 A 
ENDBRANCH  18  19
ENDBRANCH   2  17
BRANCH   5  25
HETATM   25  N1  UNK     1      35.293  -7.099  29.067  1.00  0.00    -0.116 N 
HETATM   26  O4  UNK     1      35.545  -7.715  28.003  1.00  0.00    -0.532 OA
HETATM   27  O5  UNK     1      35.969  -6.109  29.440  1.00  0.00    -0.532 OA
ENDBRANCH   5  25
TORSDOF 6
ENDMDL
MODEL 10
REMARK VINA RESULT:      -8.0     15.681     17.591
REMARK  6 active torsions:
REMARK  status: ('A' for Active; 'I' for Inactive)
REMARK    1  A    between atoms: C1_8  and  S1_1 
REMARK    2  A    between atoms: O1_2  and  S1_1 
REMARK    3  A    between atoms: C10_17  and  O1_2 
REMARK    4  A    between atoms: C5_12  and  N1_7 
REMARK    5  A    between atoms: C2_9  and  C6_13 
REMARK    6  A    between atoms: C8_15  and  C9_16 
ROOT
HETATM    1  C1  UNK     1      34.175  -7.123  33.367  1.00  0.00     0.099 A 
HETATM    2  C2  UNK     1      32.844  -7.511  33.331  1.00  0.00    -0.012 A 
HETATM    3  C3  UNK     1      34.882  -6.986  32.172  1.00  0.00     0.062 A 
HETATM    4  C4  UNK     1      32.204  -7.767  32.127  1.00  0.00     0.015 A 
HETATM    5  C5  UNK     1      34.250  -7.241  30.956  1.00  0.00     0.104 A 
HETATM    6  C7  UNK     1      32.911  -7.631  30.933  1.00  0.00     0.037 A 
ENDROOT
BRANCH   1   7
HETATM    7  S1  UNK     1      35.013  -6.792  34.871  1.00  0.00     0.304 S 
HETATM    8  O2  UNK     1      34.514  -7.762  35.833  1.00  0.00    -0.193 OA
HETATM    9  O3  UNK     1      36.432  -6.703  34.559  1.00  0.00    -0.193 OA
BRANCH   7  10
HETATM   10  O1  UNK     1      34.500  -5.301  35.303  1.00  0.00    -0.229 OA
BRANCH  10  11
HETATM   11  C10 UNK     1      33.499  -5.079  36.217  1.00  0.00     0.089 A 
HETATM   12  C13 UNK     1      32.459  -4.217  35.895  1.00  0.00     0.038 A 
HETATM   13  C17 UNK     1      31.443  -3.990  36.824  1.00  0.00     0.003 A 
HETATM   14  C20 UNK     1      31.475  -4.627  38.065  1.00  0.00     0.000 A 
HETATM   15  C18 UNK     1      32.525  -5.491  38.377  1.00  0.00     0.003 A 
HETATM   16  C14 UNK     1      33.542  -5.717  37.449  1.00  0.00     0.038 A 
ENDBRANCH  10  11
ENDBRANCH   7  10
ENDBRANCH   1   7
BRANCH   2  17
HETATM   17  C6  UNK     1      32.058  -7.667  34.568  1.00  0.00     0.014 C 
HETATM   18  C8  UNK     1      30.815  -7.170  34.770  1.00  0.00     0.012 C 
BRANCH  18  19
HETATM   19  C9  UNK     1      30.031  -7.340  35.984  1.00  0.00    -0.036 A 
HETATM   20  C11 UNK     1      30.461  -8.221  36.976  1.00  0.00     0.011 A 
HETATM   21  C15 UNK     1      29.710  -8.382  38.140  1.00  0.00     0.001 A 
HETATM   22  C19 UNK     1      28.529  -7.660  38.313  1.00  0.00     0.000 A 
HETATM   23  C16 UNK     1      28.100  -6.777  37.321  1.00  0.00     0.001 A 
HETATM   24  C12 UNK     1      28.851  -6.617  36.156  1.00  0.00     0.011 A 
ENDBRANCH  18  19
ENDBRANCH   2  17
BRANCH   5  25
HETATM   25  N1  UNK     1      34.968  -7.103  29.739  1.00  0.00    -0.116 N 
HETATM   26  O4  UNK     1      35.695  -6.093  29.572  1.00  0.00    -0.532 OA
HETATM   27  O5  UNK     1      34.857  -7.995  28.862  1.00  0.00    -0.532 OA
ENDBRANCH   5  25
TORSDOF 6
ENDMDL
