MODEL 1
REMARK VINA RESULT:      -9.6      0.000      0.000
REMARK  8 active torsions:
REMARK  status: ('A' for Active; 'I' for Inactive)
REMARK    1  A    between atoms: C5_15  and  O2_2 
REMARK    2  A    between atoms: C7_17  and  O2_2 
REMARK    3  A    between atoms: C1_11  and  O3_3 
REMARK    4  A    between atoms: C2_12  and  O4_4 
REMARK    5  A    between atoms: C3_13  and  O5_5 
REMARK    6  A    between atoms: C6_16  and  O6_6 
REMARK    7  A    between atoms: C4_14  and  C6_16 
REMARK    8  A    between atoms: C13_23  and  C15_25 
ROOT
HETATM    1  O7  UNK     1      18.652   6.044  30.120  1.00  0.00    -0.321 OA
HETATM    2  O10 UNK     1      17.853   3.112  32.843  1.00  0.00    -0.286 OA
HETATM    3  C7  UNK     1      17.281   8.094  32.802  1.00  0.00     0.074 A 
HETATM    4  C8  UNK     1      17.843   7.710  31.584  1.00  0.00     0.075 A 
HETATM    5  C9  UNK     1      16.976   7.133  33.767  1.00  0.00     0.038 A 
HETATM    6  C10 UNK     1      18.099   6.361  31.333  1.00  0.00     0.091 A 
HETATM    7  C11 UNK     1      17.794   5.401  32.297  1.00  0.00     0.049 A 
HETATM    8  C12 UNK     1      17.232   5.784  33.519  1.00  0.00     0.021 A 
HETATM    9  C13 UNK     1      18.660   3.680  30.676  1.00  0.00     0.048 A 
HETATM   10  C14 UNK     1      18.078   3.983  32.013  1.00  0.00     0.197 A 
HETATM   11  C16 UNK     1      18.891   4.716  29.857  1.00  0.00     0.159 A 
ENDROOT
BRANCH   3  12
HETATM   12  O2  UNK     1      17.028   9.411  33.050  1.00  0.00    -0.318 OA
BRANCH  12  13
HETATM   13  C5  UNK     1      15.795   9.717  33.694  1.00  0.00     0.298 C 
HETATM   14  C3  UNK     1      16.079  10.618  34.896  1.00  0.00     0.205 C 
HETATM   15  C1  UNK     1      14.769  10.979  35.594  1.00  0.00     0.183 C 
HETATM   16  C2  UNK     1      13.763  11.561  34.597  1.00  0.00     0.180 C 
HETATM   17  C4  UNK     1      13.625  10.642  33.376  1.00  0.00     0.179 C 
HETATM   18  O1  UNK     1      14.904  10.375  32.791  1.00  0.00    -0.348 OA
BRANCH  14  19
HETATM   19  O5  UNK     1      16.714  11.809  34.421  1.00  0.00    -0.388 OA
HETATM   20  H10 UNK     1      16.291  12.573  34.848  1.00  0.00     0.210 HD
ENDBRANCH  14  19
BRANCH  15  21
HETATM   21  O3  UNK     1      15.011  11.932  36.626  1.00  0.00    -0.390 OA
HETATM   22  H8  UNK     1      14.967  12.815  36.223  1.00  0.00     0.210 HD
ENDBRANCH  15  21
BRANCH  16  23
HETATM   23  O4  UNK     1      12.493  11.692  35.230  1.00  0.00    -0.390 OA
HETATM   24  H9  UNK     1      12.456  12.566  35.656  1.00  0.00     0.210 HD
ENDBRANCH  16  23
BRANCH  17  25
HETATM   25  C6  UNK     1      12.750  11.271  32.297  1.00  0.00     0.198 C 
BRANCH  25  26
HETATM   26  O6  UNK     1      11.486  10.632  32.312  1.00  0.00    -0.398 OA
HETATM   27  H11 UNK     1      11.362  10.249  33.198  1.00  0.00     0.209 HD
ENDBRANCH  25  26
ENDBRANCH  17  25
ENDBRANCH  12  13
ENDBRANCH   3  12
BRANCH   9  28
HETATM   28  C15 UNK     1      18.954   2.302  30.249  1.00  0.00    -0.017 A 
HETATM   29  C18 UNK     1      19.634   1.437  31.107  1.00  0.00     0.052 A 
HETATM   30  C17 UNK     1      19.905   0.130  30.702  1.00  0.00     0.102 A 
HETATM   31  O8  UNK     1      20.557  -0.679  31.596  1.00  0.00    -0.346 OA
HETATM   32  C19 UNK     1      19.521  -0.303  29.430  1.00  0.00     0.102 A 
HETATM   33  C22 UNK     1      20.473  -2.058  31.228  1.00  0.00     0.202 C 
HETATM   34  C23 UNK     1      20.777  -2.228  29.752  1.00  0.00     0.202 C 
HETATM   35  O9  UNK     1      19.787  -1.564  28.962  1.00  0.00    -0.346 OA
HETATM   36  C21 UNK     1      18.829   0.558  28.579  1.00  0.00     0.040 A 
HETATM   37  C20 UNK     1      18.547   1.861  28.989  1.00  0.00     0.015 A 
ENDBRANCH   9  28
TORSDOF 8
ENDMDL
MODEL 2
REMARK VINA RESULT:      -9.5     12.328     17.098
REMARK  8 active torsions:
REMARK  status: ('A' for Active; 'I' for Inactive)
REMARK    1  A    between atoms: C5_15  and  O2_2 
REMARK    2  A    between atoms: C7_17  and  O2_2 
REMARK    3  A    between atoms: C1_11  and  O3_3 
REMARK    4  A    between atoms: C2_12  and  O4_4 
REMARK    5  A    between atoms: C3_13  and  O5_5 
REMARK    6  A    between atoms: C6_16  and  O6_6 
REMARK    7  A    between atoms: C4_14  and  C6_16 
REMARK    8  A    between atoms: C13_23  and  C15_25 
ROOT
HETATM    1  O7  UNK     1      26.831  -4.635  38.870  1.00  0.00    -0.321 OA
HETATM    2  O10 UNK     1      28.641  -8.138  37.818  1.00  0.00    -0.286 OA
HETATM    3  C7  UNK     1      23.956  -6.865  39.077  1.00  0.00     0.074 A 
HETATM    4  C8  UNK     1      24.747  -5.717  39.124  1.00  0.00     0.075 A 
HETATM    5  C9  UNK     1      24.519  -8.089  38.713  1.00  0.00     0.038 A 
HETATM    6  C10 UNK     1      26.104  -5.795  38.805  1.00  0.00     0.091 A 
HETATM    7  C11 UNK     1      26.666  -7.018  38.441  1.00  0.00     0.049 A 
HETATM    8  C12 UNK     1      25.875  -8.170  38.395  1.00  0.00     0.021 A 
HETATM    9  C13 UNK     1      28.850  -5.793  38.177  1.00  0.00     0.048 A 
HETATM   10  C14 UNK     1      28.102  -7.079  38.114  1.00  0.00     0.197 A 
HETATM   11  C16 UNK     1      28.163  -4.700  38.540  1.00  0.00     0.159 A 
ENDROOT
BRANCH   3  12
HETATM   12  O2  UNK     1      22.630  -6.791  39.387  1.00  0.00    -0.318 OA
BRANCH  12  13
HETATM   13  C5  UNK     1      21.715  -6.819  38.296  1.00  0.00     0.298 C 
HETATM   14  C3  UNK     1      20.497  -7.650  38.698  1.00  0.00     0.205 C 
HETATM   15  C1  UNK     1      19.487  -7.680  37.551  1.00  0.00     0.183 C 
HETATM   16  C2  UNK     1      19.153  -6.261  37.084  1.00  0.00     0.180 C 
HETATM   17  C4  UNK     1      20.438  -5.470  36.808  1.00  0.00     0.179 C 
HETATM   18  O1  UNK     1      21.308  -5.495  37.944  1.00  0.00    -0.348 OA
BRANCH  14  19
HETATM   19  O5  UNK     1      19.900  -7.041  39.847  1.00  0.00    -0.388 OA
HETATM   20  H10 UNK     1      20.216  -7.506  40.640  1.00  0.00     0.210 HD
ENDBRANCH  14  19
BRANCH  15  21
HETATM   21  O3  UNK     1      18.290  -8.330  37.969  1.00  0.00    -0.390 OA
HETATM   22  H8  UNK     1      18.451  -9.288  37.932  1.00  0.00     0.210 HD
ENDBRANCH  15  21
BRANCH  16  23
HETATM   23  O4  UNK     1      18.379  -6.327  35.889  1.00  0.00    -0.390 OA
HETATM   24  H9  UNK     1      18.992  -6.349  35.134  1.00  0.00     0.210 HD
ENDBRANCH  16  23
BRANCH  17  25
HETATM   25  C6  UNK     1      20.140  -4.008  36.491  1.00  0.00     0.198 C 
BRANCH  25  26
HETATM   26  O6  UNK     1      20.046  -3.861  35.086  1.00  0.00    -0.398 OA
HETATM   27  H11 UNK     1      20.936  -3.650  34.753  1.00  0.00     0.209 HD
ENDBRANCH  25  26
ENDBRANCH  17  25
ENDBRANCH  12  13
ENDBRANCH   3  12
BRANCH   9  28
HETATM   28  C15 UNK     1      30.279  -5.705  37.835  1.00  0.00    -0.017 A 
HETATM   29  C18 UNK     1      30.680  -5.028  36.683  1.00  0.00     0.052 A 
HETATM   30  C17 UNK     1      32.035  -4.940  36.366  1.00  0.00     0.102 A 
HETATM   31  O8  UNK     1      32.369  -4.244  35.233  1.00  0.00    -0.346 OA
HETATM   32  C19 UNK     1      32.987  -5.554  37.184  1.00  0.00     0.102 A 
HETATM   33  C22 UNK     1      33.762  -3.925  35.193  1.00  0.00     0.202 C 
HETATM   34  C23 UNK     1      34.591  -5.140  35.559  1.00  0.00     0.202 C 
HETATM   35  O9  UNK     1      34.330  -5.531  36.909  1.00  0.00    -0.346 OA
HETATM   36  C21 UNK     1      32.587  -6.219  38.343  1.00  0.00     0.040 A 
HETATM   37  C20 UNK     1      31.232  -6.295  38.667  1.00  0.00     0.015 A 
ENDBRANCH   9  28
TORSDOF 8
ENDMDL
MODEL 3
REMARK VINA RESULT:      -9.4     23.289     25.410
REMARK  8 active torsions:
REMARK  status: ('A' for Active; 'I' for Inactive)
REMARK    1  A    between atoms: C5_15  and  O2_2 
REMARK    2  A    between atoms: C7_17  and  O2_2 
REMARK    3  A    between atoms: C1_11  and  O3_3 
REMARK    4  A    between atoms: C2_12  and  O4_4 
REMARK    5  A    between atoms: C3_13  and  O5_5 
REMARK    6  A    between atoms: C6_16  and  O6_6 
REMARK    7  A    between atoms: C4_14  and  C6_16 
REMARK    8  A    between atoms: C13_23  and  C15_25 
ROOT
HETATM    1  O7  UNK     1      11.296   8.471  10.100  1.00  0.00    -0.321 OA
HETATM    2  O10 UNK     1      13.651   7.446   6.929  1.00  0.00    -0.286 OA
HETATM    3  C7  UNK     1       8.924   6.413   8.251  1.00  0.00     0.074 A 
HETATM    4  C8  UNK     1       9.483   7.229   9.234  1.00  0.00     0.075 A 
HETATM    5  C9  UNK     1       9.679   6.040   7.138  1.00  0.00     0.038 A 
HETATM    6  C10 UNK     1      10.800   7.672   9.102  1.00  0.00     0.091 A 
HETATM    7  C11 UNK     1      11.554   7.299   7.990  1.00  0.00     0.049 A 
HETATM    8  C12 UNK     1      10.996   6.481   7.004  1.00  0.00     0.021 A 
HETATM    9  C13 UNK     1      13.437   8.655   8.969  1.00  0.00     0.048 A 
HETATM   10  C14 UNK     1      12.945   7.774   7.874  1.00  0.00     0.197 A 
HETATM   11  C16 UNK     1      12.586   8.925   9.970  1.00  0.00     0.159 A 
ENDROOT
BRANCH   3  12
HETATM   12  O2  UNK     1       7.637   5.980   8.376  1.00  0.00    -0.318 OA
BRANCH  12  13
HETATM   13  C5  UNK     1       7.427   4.818   9.172  1.00  0.00     0.298 C 
HETATM   14  C3  UNK     1       6.604   5.206  10.401  1.00  0.00     0.205 C 
HETATM   15  C1  UNK     1       6.345   3.971  11.263  1.00  0.00     0.183 C 
HETATM   16  C2  UNK     1       5.734   2.842  10.428  1.00  0.00     0.180 C 
HETATM   17  C4  UNK     1       6.567   2.598   9.163  1.00  0.00     0.179 C 
HETATM   18  O1  UNK     1       6.742   3.811   8.424  1.00  0.00    -0.348 OA
BRANCH  14  19
HETATM   19  O5  UNK     1       5.358   5.746   9.951  1.00  0.00    -0.388 OA
HETATM   20  H10 UNK     1       4.907   5.073   9.415  1.00  0.00     0.210 HD
ENDBRANCH  14  19
BRANCH  15  21
HETATM   21  O3  UNK     1       5.460   4.296  12.331  1.00  0.00    -0.390 OA
HETATM   22  H8  UNK     1       4.842   3.552  12.434  1.00  0.00     0.210 HD
ENDBRANCH  15  21
BRANCH  16  23
HETATM   23  O4  UNK     1       5.699   1.647  11.203  1.00  0.00    -0.390 OA
HETATM   24  H9  UNK     1       5.294   1.856  12.062  1.00  0.00     0.210 HD
ENDBRANCH  16  23
BRANCH  17  25
HETATM   25  C6  UNK     1       5.898   1.589   8.236  1.00  0.00     0.198 C 
BRANCH  25  26
HETATM   26  O6  UNK     1       6.493   1.688   6.955  1.00  0.00    -0.398 OA
HETATM   27  H11 UNK     1       6.307   2.580   6.613  1.00  0.00     0.209 HD
ENDBRANCH  25  26
ENDBRANCH  17  25
ENDBRANCH  12  13
ENDBRANCH   3  12
BRANCH   9  28
HETATM   28  C15 UNK     1      14.792   9.231   8.957  1.00  0.00    -0.017 A 
HETATM   29  C18 UNK     1      15.054  10.377   8.205  1.00  0.00     0.052 A 
HETATM   30  C17 UNK     1      16.338  10.924   8.200  1.00  0.00     0.102 A 
HETATM   31  O8  UNK     1      16.530  12.062   7.460  1.00  0.00    -0.346 OA
HETATM   32  C19 UNK     1      17.363  10.311   8.925  1.00  0.00     0.102 A 
HETATM   33  C22 UNK     1      17.754  12.718   7.797  1.00  0.00     0.202 C 
HETATM   34  C23 UNK     1      18.886  11.713   7.875  1.00  0.00     0.202 C 
HETATM   35  O9  UNK     1      18.651  10.781   8.934  1.00  0.00    -0.346 OA
HETATM   36  C21 UNK     1      17.096   9.174   9.687  1.00  0.00     0.040 A 
HETATM   37  C20 UNK     1      15.810   8.635   9.701  1.00  0.00     0.015 A 
ENDBRANCH   9  28
TORSDOF 8
ENDMDL
MODEL 4
REMARK VINA RESULT:      -9.4     23.091     25.793
REMARK  8 active torsions:
REMARK  status: ('A' for Active; 'I' for Inactive)
REMARK    1  A    between atoms: C5_15  and  O2_2 
REMARK    2  A    between atoms: C7_17  and  O2_2 
REMARK    3  A    between atoms: C1_11  and  O3_3 
REMARK    4  A    between atoms: C2_12  and  O4_4 
REMARK    5  A    between atoms: C3_13  and  O5_5 
REMARK    6  A    between atoms: C6_16  and  O6_6 
REMARK    7  A    between atoms: C4_14  and  C6_16 
REMARK    8  A    between atoms: C13_23  and  C15_25 
ROOT
HETATM    1  O7  UNK     1      15.268  11.302   7.645  1.00  0.00    -0.321 OA
HETATM    2  O10 UNK     1      19.102  10.914   8.988  1.00  0.00    -0.286 OA
HETATM    3  C7  UNK     1      14.796   8.540   9.975  1.00  0.00     0.074 A 
HETATM    4  C8  UNK     1      14.539   9.534   9.030  1.00  0.00     0.075 A 
HETATM    5  C9  UNK     1      16.091   8.354  10.461  1.00  0.00     0.038 A 
HETATM    6  C10 UNK     1      15.581  10.342   8.572  1.00  0.00     0.091 A 
HETATM    7  C11 UNK     1      16.875  10.156   9.058  1.00  0.00     0.049 A 
HETATM    8  C12 UNK     1      17.134   9.161  10.006  1.00  0.00     0.021 A 
HETATM    9  C13 UNK     1      17.579  12.040   7.544  1.00  0.00     0.048 A 
HETATM   10  C14 UNK     1      17.958  11.025   8.565  1.00  0.00     0.197 A 
HETATM   11  C16 UNK     1      16.291  12.090   7.176  1.00  0.00     0.159 A 
ENDROOT
BRANCH   3  12
HETATM   12  O2  UNK     1      13.780   7.748  10.423  1.00  0.00    -0.318 OA
BRANCH  12  13
HETATM   13  C5  UNK     1      12.852   7.283   9.447  1.00  0.00     0.298 C 
HETATM   14  C3  UNK     1      12.911   5.756   9.403  1.00  0.00     0.205 C 
HETATM   15  C1  UNK     1      11.908   5.228   8.378  1.00  0.00     0.183 C 
HETATM   16  C2  UNK     1      10.511   5.796   8.641  1.00  0.00     0.180 C 
HETATM   17  C4  UNK     1      10.569   7.323   8.777  1.00  0.00     0.179 C 
HETATM   18  O1  UNK     1      11.527   7.712   9.766  1.00  0.00    -0.348 OA
BRANCH  14  19
HETATM   19  O5  UNK     1      12.575   5.258  10.702  1.00  0.00    -0.388 OA
HETATM   20  H10 UNK     1      13.033   5.801  11.366  1.00  0.00     0.210 HD
ENDBRANCH  14  19
BRANCH  15  21
HETATM   21  O3  UNK     1      11.854   3.805   8.433  1.00  0.00    -0.390 OA
HETATM   22  H8  UNK     1      12.408   3.522   9.180  1.00  0.00     0.210 HD
ENDBRANCH  15  21
BRANCH  16  23
HETATM   23  O4  UNK     1       9.651   5.456   7.556  1.00  0.00    -0.390 OA
HETATM   24  H9  UNK     1       8.782   5.862   7.722  1.00  0.00     0.210 HD
ENDBRANCH  16  23
BRANCH  17  25
HETATM   25  C6  UNK     1       9.220   7.901   9.194  1.00  0.00     0.198 C 
BRANCH  25  26
HETATM   26  O6  UNK     1       8.514   6.915   9.926  1.00  0.00    -0.398 OA
HETATM   27  H11 UNK     1       8.892   6.050   9.693  1.00  0.00     0.209 HD
ENDBRANCH  25  26
ENDBRANCH  17  25
ENDBRANCH  12  13
ENDBRANCH   3  12
BRANCH   9  28
HETATM   28  C15 UNK     1      18.572  12.944   6.938  1.00  0.00    -0.017 A 
HETATM   29  C18 UNK     1      19.048  14.038   7.660  1.00  0.00     0.052 A 
HETATM   30  C17 UNK     1      19.994  14.889   7.087  1.00  0.00     0.102 A 
HETATM   31  O8  UNK     1      20.439  15.935   7.853  1.00  0.00    -0.346 OA
HETATM   32  C19 UNK     1      20.441  14.661   5.783  1.00  0.00     0.102 A 
HETATM   33  C22 UNK     1      21.630  16.519   7.317  1.00  0.00     0.202 C 
HETATM   34  C23 UNK     1      21.484  16.734   5.823  1.00  0.00     0.202 C 
HETATM   35  O9  UNK     1      21.343  15.479   5.153  1.00  0.00    -0.346 OA
HETATM   36  C21 UNK     1      19.974  13.559   5.067  1.00  0.00     0.040 A 
HETATM   37  C20 UNK     1      19.039  12.702   5.646  1.00  0.00     0.015 A 
ENDBRANCH   9  28
TORSDOF 8
ENDMDL
MODEL 5
REMARK VINA RESULT:      -9.4      5.311      9.082
REMARK  8 active torsions:
REMARK  status: ('A' for Active; 'I' for Inactive)
REMARK    1  A    between atoms: C5_15  and  O2_2 
REMARK    2  A    between atoms: C7_17  and  O2_2 
REMARK    3  A    between atoms: C1_11  and  O3_3 
REMARK    4  A    between atoms: C2_12  and  O4_4 
REMARK    5  A    between atoms: C3_13  and  O5_5 
REMARK    6  A    between atoms: C6_16  and  O6_6 
REMARK    7  A    between atoms: C4_14  and  C6_16 
REMARK    8  A    between atoms: C13_23  and  C15_25 
ROOT
HETATM    1  O7  UNK     1      18.291  -1.177  36.733  1.00  0.00    -0.321 OA
HETATM    2  O10 UNK     1      20.434  -3.509  34.161  1.00  0.00    -0.286 OA
HETATM    3  C7  UNK     1      18.060   0.889  33.740  1.00  0.00     0.074 A 
HETATM    4  C8  UNK     1      17.902   0.432  35.049  1.00  0.00     0.075 A 
HETATM    5  C9  UNK     1      18.793   0.138  32.820  1.00  0.00     0.038 A 
HETATM    6  C10 UNK     1      18.480  -0.779  35.435  1.00  0.00     0.091 A 
HETATM    7  C11 UNK     1      19.212  -1.529  34.516  1.00  0.00     0.049 A 
HETATM    8  C12 UNK     1      19.371  -1.073  33.204  1.00  0.00     0.021 A 
HETATM    9  C13 UNK     1      19.596  -3.192  36.367  1.00  0.00     0.048 A 
HETATM   10  C14 UNK     1      19.809  -2.807  34.945  1.00  0.00     0.197 A 
HETATM   11  C16 UNK     1      18.870  -2.359  37.127  1.00  0.00     0.159 A 
ENDROOT
BRANCH   3  12
HETATM   12  O2  UNK     1      17.498   2.072  33.360  1.00  0.00    -0.318 OA
BRANCH  12  13
HETATM   13  C5  UNK     1      18.333   2.976  32.642  1.00  0.00     0.298 C 
HETATM   14  C3  UNK     1      18.208   2.679  31.149  1.00  0.00     0.205 C 
HETATM   15  C1  UNK     1      19.078   3.650  30.352  1.00  0.00     0.183 C 
HETATM   16  C2  UNK     1      18.764   5.100  30.732  1.00  0.00     0.180 C 
HETATM   17  C4  UNK     1      18.808   5.276  32.256  1.00  0.00     0.179 C 
HETATM   18  O1  UNK     1      17.954   4.329  32.904  1.00  0.00    -0.348 OA
BRANCH  14  19
HETATM   19  O5  UNK     1      16.837   2.844  30.773  1.00  0.00    -0.388 OA
HETATM   20  H10 UNK     1      16.671   3.791  30.628  1.00  0.00     0.210 HD
ENDBRANCH  14  19
BRANCH  15  21
HETATM   21  O3  UNK     1      18.857   3.474  28.955  1.00  0.00    -0.390 OA
HETATM   22  H8  UNK     1      18.566   4.329  28.596  1.00  0.00     0.210 HD
ENDBRANCH  15  21
BRANCH  16  23
HETATM   23  O4  UNK     1      19.727   5.964  30.134  1.00  0.00    -0.390 OA
HETATM   24  H9  UNK     1      20.309   6.299  30.837  1.00  0.00     0.210 HD
ENDBRANCH  16  23
BRANCH  17  25
HETATM   25  C6  UNK     1      18.347   6.669  32.672  1.00  0.00     0.198 C 
BRANCH  25  26
HETATM   26  O6  UNK     1      17.520   7.195  31.650  1.00  0.00    -0.398 OA
HETATM   27  H11 UNK     1      16.599   6.984  31.881  1.00  0.00     0.209 HD
ENDBRANCH  25  26
ENDBRANCH  17  25
ENDBRANCH  12  13
ENDBRANCH   3  12
BRANCH   9  28
HETATM   28  C15 UNK     1      20.171  -4.422  36.935  1.00  0.00    -0.017 A 
HETATM   29  C18 UNK     1      21.435  -4.392  37.526  1.00  0.00     0.052 A 
HETATM   30  C17 UNK     1      21.974  -5.558  38.070  1.00  0.00     0.102 A 
HETATM   31  O8  UNK     1      23.210  -5.461  38.655  1.00  0.00    -0.346 OA
HETATM   32  C19 UNK     1      21.262  -6.758  37.998  1.00  0.00     0.102 A 
HETATM   33  C22 UNK     1      23.506  -6.600  39.468  1.00  0.00     0.202 C 
HETATM   34  C23 UNK     1      23.159  -7.878  38.730  1.00  0.00     0.202 C 
HETATM   35  O9  UNK     1      21.752  -7.943  38.485  1.00  0.00    -0.346 OA
HETATM   36  C21 UNK     1      19.993  -6.785  37.420  1.00  0.00     0.040 A 
HETATM   37  C20 UNK     1      19.450  -5.616  36.888  1.00  0.00     0.015 A 
ENDBRANCH   9  28
TORSDOF 8
ENDMDL
MODEL 6
REMARK VINA RESULT:      -9.4      5.466      9.228
REMARK  8 active torsions:
REMARK  status: ('A' for Active; 'I' for Inactive)
REMARK    1  A    between atoms: C5_15  and  O2_2 
REMARK    2  A    between atoms: C7_17  and  O2_2 
REMARK    3  A    between atoms: C1_11  and  O3_3 
REMARK    4  A    between atoms: C2_12  and  O4_4 
REMARK    5  A    between atoms: C3_13  and  O5_5 
REMARK    6  A    between atoms: C6_16  and  O6_6 
REMARK    7  A    between atoms: C4_14  and  C6_16 
REMARK    8  A    between atoms: C13_23  and  C15_25 
ROOT
HETATM    1  O7  UNK     1      18.275  -1.324  36.782  1.00  0.00    -0.321 OA
HETATM    2  O10 UNK     1      20.495  -3.678  34.296  1.00  0.00    -0.286 OA
HETATM    3  C7  UNK     1      18.011   0.642  33.726  1.00  0.00     0.074 A 
HETATM    4  C8  UNK     1      17.856   0.222  35.047  1.00  0.00     0.075 A 
HETATM    5  C9  UNK     1      18.769  -0.117  32.833  1.00  0.00     0.038 A 
HETATM    6  C10 UNK     1      18.462  -0.961  35.474  1.00  0.00     0.091 A 
HETATM    7  C11 UNK     1      19.220  -1.719  34.582  1.00  0.00     0.049 A 
HETATM    8  C12 UNK     1      19.375  -1.300  33.258  1.00  0.00     0.021 A 
HETATM    9  C13 UNK     1      19.634  -3.314  36.486  1.00  0.00     0.048 A 
HETATM   10  C14 UNK     1      19.846  -2.968  35.054  1.00  0.00     0.197 A 
HETATM   11  C16 UNK     1      18.882  -2.478  37.216  1.00  0.00     0.159 A 
ENDROOT
BRANCH   3  12
HETATM   12  O2  UNK     1      17.421   1.798  33.306  1.00  0.00    -0.318 OA
BRANCH  12  13
HETATM   13  C5  UNK     1      18.286   2.814  32.806  1.00  0.00     0.298 C 
HETATM   14  C3  UNK     1      18.304   2.736  31.280  1.00  0.00     0.205 C 
HETATM   15  C1  UNK     1      19.209   3.831  30.715  1.00  0.00     0.183 C 
HETATM   16  C2  UNK     1      18.816   5.203  31.270  1.00  0.00     0.180 C 
HETATM   17  C4  UNK     1      18.718   5.155  32.801  1.00  0.00     0.179 C 
HETATM   18  O1  UNK     1      17.841   4.106  33.224  1.00  0.00    -0.348 OA
BRANCH  14  19
HETATM   19  O5  UNK     1      16.967   2.929  30.807  1.00  0.00    -0.388 OA
HETATM   20  H10 UNK     1      16.437   2.155  31.063  1.00  0.00     0.210 HD
ENDBRANCH  14  19
BRANCH  15  21
HETATM   21  O3  UNK     1      19.118   3.857  29.294  1.00  0.00    -0.390 OA
HETATM   22  H8  UNK     1      19.040   4.787  29.024  1.00  0.00     0.210 HD
ENDBRANCH  15  21
BRANCH  16  23
HETATM   23  O4  UNK     1      19.799   6.164  30.895  1.00  0.00    -0.390 OA
HETATM   24  H9  UNK     1      20.675   5.795  31.102  1.00  0.00     0.210 HD
ENDBRANCH  16  23
BRANCH  17  25
HETATM   25  C6  UNK     1      18.177   6.462  33.370  1.00  0.00     0.198 C 
BRANCH  25  26
HETATM   26  O6  UNK     1      17.453   6.174  34.552  1.00  0.00    -0.398 OA
HETATM   27  H11 UNK     1      17.595   6.912  35.170  1.00  0.00     0.209 HD
ENDBRANCH  25  26
ENDBRANCH  17  25
ENDBRANCH  12  13
ENDBRANCH   3  12
BRANCH   9  28
HETATM   28  C15 UNK     1      20.237  -4.511  37.096  1.00  0.00    -0.017 A 
HETATM   29  C18 UNK     1      19.569  -5.735  37.034  1.00  0.00     0.052 A 
HETATM   30  C17 UNK     1      20.146  -6.869  37.606  1.00  0.00     0.102 A 
HETATM   31  O8  UNK     1      19.452  -8.046  37.496  1.00  0.00    -0.346 OA
HETATM   32  C19 UNK     1      21.375  -6.774  38.263  1.00  0.00     0.102 A 
HETATM   33  C22 UNK     1      20.272  -9.179  37.796  1.00  0.00     0.202 C 
HETATM   34  C23 UNK     1      21.068  -8.931  39.063  1.00  0.00     0.202 C 
HETATM   35  O9  UNK     1      21.977  -7.844  38.872  1.00  0.00    -0.346 OA
HETATM   36  C21 UNK     1      22.049  -5.554  38.311  1.00  0.00     0.040 A 
HETATM   37  C20 UNK     1      21.477  -4.423  37.728  1.00  0.00     0.015 A 
ENDBRANCH   9  28
TORSDOF 8
ENDMDL
MODEL 7
REMARK VINA RESULT:      -9.4     16.599     19.239
REMARK  8 active torsions:
REMARK  status: ('A' for Active; 'I' for Inactive)
REMARK    1  A    between atoms: C5_15  and  O2_2 
REMARK    2  A    between atoms: C7_17  and  O2_2 
REMARK    3  A    between atoms: C1_11  and  O3_3 
REMARK    4  A    between atoms: C2_12  and  O4_4 
REMARK    5  A    between atoms: C3_13  and  O5_5 
REMARK    6  A    between atoms: C6_16  and  O6_6 
REMARK    7  A    between atoms: C4_14  and  C6_16 
REMARK    8  A    between atoms: C13_23  and  C15_25 
ROOT
HETATM    1  O7  UNK     1      27.406  -8.445  38.580  1.00  0.00    -0.321 OA
HETATM    2  O10 UNK     1      24.763  -5.349  38.864  1.00  0.00    -0.286 OA
HETATM    3  C7  UNK     1      29.761  -5.665  38.606  1.00  0.00     0.074 A 
HETATM    4  C8  UNK     1      29.241  -6.959  38.570  1.00  0.00     0.075 A 
HETATM    5  C9  UNK     1      28.904  -4.567  38.691  1.00  0.00     0.038 A 
HETATM    6  C10 UNK     1      27.859  -7.152  38.619  1.00  0.00     0.091 A 
HETATM    7  C11 UNK     1      27.003  -6.055  38.704  1.00  0.00     0.049 A 
HETATM    8  C12 UNK     1      27.523  -4.758  38.741  1.00  0.00     0.021 A 
HETATM    9  C13 UNK     1      25.097  -7.701  38.695  1.00  0.00     0.048 A 
HETATM   10  C14 UNK     1      25.548  -6.283  38.759  1.00  0.00     0.197 A 
HETATM   11  C16 UNK     1      26.046  -8.644  38.610  1.00  0.00     0.159 A 
ENDROOT
BRANCH   3  12
HETATM   12  O2  UNK     1      31.111  -5.473  38.557  1.00  0.00    -0.318 OA
BRANCH  12  13
HETATM   13  C5  UNK     1      31.768  -5.846  37.349  1.00  0.00     0.298 C 
HETATM   14  C3  UNK     1      31.156  -5.054  36.194  1.00  0.00     0.205 C 
HETATM   15  C1  UNK     1      31.858  -5.419  34.886  1.00  0.00     0.183 C 
HETATM   16  C2  UNK     1      33.375  -5.263  35.021  1.00  0.00     0.180 C 
HETATM   17  C4  UNK     1      33.882  -6.001  36.267  1.00  0.00     0.179 C 
HETATM   18  O1  UNK     1      33.169  -5.581  37.435  1.00  0.00    -0.348 OA
BRANCH  14  19
HETATM   19  O5  UNK     1      31.337  -3.660  36.462  1.00  0.00    -0.388 OA
HETATM   20  H10 UNK     1      30.502  -3.304  36.810  1.00  0.00     0.210 HD
ENDBRANCH  14  19
BRANCH  15  21
HETATM   21  O3  UNK     1      31.393  -4.583  33.830  1.00  0.00    -0.390 OA
HETATM   22  H8  UNK     1      30.842  -5.131  33.246  1.00  0.00     0.210 HD
ENDBRANCH  15  21
BRANCH  16  23
HETATM   23  O4  UNK     1      34.010  -5.806  33.866  1.00  0.00    -0.390 OA
HETATM   24  H9  UNK     1      34.854  -5.338  33.739  1.00  0.00     0.210 HD
ENDBRANCH  16  23
BRANCH  17  25
HETATM   25  C6  UNK     1      35.363  -5.734  36.513  1.00  0.00     0.198 C 
BRANCH  25  26
HETATM   26  O6  UNK     1      36.120  -6.659  35.754  1.00  0.00    -0.398 OA
HETATM   27  H11 UNK     1      36.894  -6.913  36.286  1.00  0.00     0.209 HD
ENDBRANCH  25  26
ENDBRANCH  17  25
ENDBRANCH  12  13
ENDBRANCH   3  12
BRANCH   9  28
HETATM   28  C15 UNK     1      23.671  -8.066  38.700  1.00  0.00    -0.017 A 
HETATM   29  C18 UNK     1      23.111  -8.702  37.592  1.00  0.00     0.052 A 
HETATM   30  C17 UNK     1      21.761  -9.053  37.603  1.00  0.00     0.102 A 
HETATM   31  O8  UNK     1      21.272  -9.694  36.494  1.00  0.00    -0.346 OA
HETATM   32  C19 UNK     1      20.966  -8.744  38.710  1.00  0.00     0.102 A 
HETATM   33  C22 UNK     1      20.005 -10.305  36.746  1.00  0.00     0.202 C 
HETATM   34  C23 UNK     1      19.091  -9.341  37.478  1.00  0.00     0.202 C 
HETATM   35  O9  UNK     1      19.627  -9.033  38.768  1.00  0.00    -0.346 OA
HETATM   36  C21 UNK     1      21.530  -8.121  39.823  1.00  0.00     0.040 A 
HETATM   37  C20 UNK     1      22.883  -7.782  39.816  1.00  0.00     0.015 A 
ENDBRANCH   9  28
TORSDOF 8
ENDMDL
MODEL 8
REMARK VINA RESULT:      -9.3     23.273     26.003
REMARK  8 active torsions:
REMARK  status: ('A' for Active; 'I' for Inactive)
REMARK    1  A    between atoms: C5_15  and  O2_2 
REMARK    2  A    between atoms: C7_17  and  O2_2 
REMARK    3  A    between atoms: C1_11  and  O3_3 
REMARK    4  A    between atoms: C2_12  and  O4_4 
REMARK    5  A    between atoms: C3_13  and  O5_5 
REMARK    6  A    between atoms: C6_16  and  O6_6 
REMARK    7  A    between atoms: C4_14  and  C6_16 
REMARK    8  A    between atoms: C13_23  and  C15_25 
ROOT
HETATM    1  O7  UNK     1      15.037  10.960   7.864  1.00  0.00    -0.321 OA
HETATM    2  O10 UNK     1      18.624  10.378   9.719  1.00  0.00    -0.286 OA
HETATM    3  C7  UNK     1      14.294   7.851   9.613  1.00  0.00     0.074 A 
HETATM    4  C8  UNK     1      14.156   8.984   8.812  1.00  0.00     0.075 A 
HETATM    5  C9  UNK     1      15.502   7.594  10.263  1.00  0.00     0.038 A 
HETATM    6  C10 UNK     1      15.231   9.863   8.662  1.00  0.00     0.091 A 
HETATM    7  C11 UNK     1      16.438   9.607   9.311  1.00  0.00     0.049 A 
HETATM    8  C12 UNK     1      16.577   8.471  10.115  1.00  0.00     0.021 A 
HETATM    9  C13 UNK     1      17.311  11.718   8.252  1.00  0.00     0.048 A 
HETATM   10  C14 UNK     1      17.557  10.551   9.143  1.00  0.00     0.197 A 
HETATM   11  C16 UNK     1      16.095  11.820   7.696  1.00  0.00     0.159 A 
ENDROOT
BRANCH   3  12
HETATM   12  O2  UNK     1      13.246   6.990   9.760  1.00  0.00    -0.318 OA
BRANCH  12  13
HETATM   13  C5  UNK     1      12.177   7.116   8.826  1.00  0.00     0.298 C 
HETATM   14  C3  UNK     1      12.635   6.561   7.478  1.00  0.00     0.205 C 
HETATM   15  C1  UNK     1      11.498   6.665   6.461  1.00  0.00     0.183 C 
HETATM   16  C2  UNK     1      10.221   6.020   7.005  1.00  0.00     0.180 C 
HETATM   17  C4  UNK     1       9.901   6.560   8.406  1.00  0.00     0.179 C 
HETATM   18  O1  UNK     1      11.023   6.406   9.280  1.00  0.00    -0.348 OA
BRANCH  14  19
HETATM   19  O5  UNK     1      12.993   5.187   7.658  1.00  0.00    -0.388 OA
HETATM   20  H10 UNK     1      12.392   4.799   8.317  1.00  0.00     0.210 HD
ENDBRANCH  14  19
BRANCH  15  21
HETATM   21  O3  UNK     1      11.868   6.020   5.245  1.00  0.00    -0.390 OA
HETATM   22  H8  UNK     1      11.710   6.650   4.522  1.00  0.00     0.210 HD
ENDBRANCH  15  21
BRANCH  16  23
HETATM   23  O4  UNK     1       9.134   6.315   6.132  1.00  0.00    -0.390 OA
HETATM   24  H9  UNK     1       9.020   5.561   5.528  1.00  0.00     0.210 HD
ENDBRANCH  16  23
BRANCH  17  25
HETATM   25  C6  UNK     1       8.724   5.822   9.036  1.00  0.00     0.198 C 
BRANCH  25  26
HETATM   26  O6  UNK     1       7.534   6.240   8.392  1.00  0.00    -0.398 OA
HETATM   27  H11 UNK     1       6.792   6.036   8.987  1.00  0.00     0.209 HD
ENDBRANCH  25  26
ENDBRANCH  17  25
ENDBRANCH  12  13
ENDBRANCH   3  12
BRANCH   9  28
HETATM   28  C15 UNK     1      18.356  12.714   7.966  1.00  0.00    -0.017 A 
HETATM   29  C18 UNK     1      19.009  12.704   6.733  1.00  0.00     0.052 A 
HETATM   30  C17 UNK     1      19.994  13.654   6.462  1.00  0.00     0.102 A 
HETATM   31  O8  UNK     1      20.585  13.606   5.226  1.00  0.00    -0.346 OA
HETATM   32  C19 UNK     1      20.345  14.595   7.433  1.00  0.00     0.102 A 
HETATM   33  C22 UNK     1      21.306  14.806   4.933  1.00  0.00     0.202 C 
HETATM   34  C23 UNK     1      22.158  15.211   6.121  1.00  0.00     0.202 C 
HETATM   35  O9  UNK     1      21.327  15.532   7.240  1.00  0.00    -0.346 OA
HETATM   36  C21 UNK     1      19.683  14.613   8.660  1.00  0.00     0.040 A 
HETATM   37  C20 UNK     1      18.689  13.671   8.925  1.00  0.00     0.015 A 
ENDBRANCH   9  28
TORSDOF 8
ENDMDL
MODEL 9
REMARK VINA RESULT:      -9.3     22.689     24.960
REMARK  8 active torsions:
REMARK  status: ('A' for Active; 'I' for Inactive)
REMARK    1  A    between atoms: C5_15  and  O2_2 
REMARK    2  A    between atoms: C7_17  and  O2_2 
REMARK    3  A    between atoms: C1_11  and  O3_3 
REMARK    4  A    between atoms: C2_12  and  O4_4 
REMARK    5  A    between atoms: C3_13  and  O5_5 
REMARK    6  A    between atoms: C6_16  and  O6_6 
REMARK    7  A    between atoms: C4_14  and  C6_16 
REMARK    8  A    between atoms: C13_23  and  C15_25 
ROOT
HETATM    1  O7  UNK     1      14.252  10.043   9.754  1.00  0.00    -0.321 OA
HETATM    2  O10 UNK     1      17.950   8.324   9.909  1.00  0.00    -0.286 OA
HETATM    3  C7  UNK     1      13.265   6.537   9.837  1.00  0.00     0.074 A 
HETATM    4  C8  UNK     1      13.200   7.930   9.795  1.00  0.00     0.075 A 
HETATM    5  C9  UNK     1      14.502   5.894   9.879  1.00  0.00     0.038 A 
HETATM    6  C10 UNK     1      14.378   8.679   9.795  1.00  0.00     0.091 A 
HETATM    7  C11 UNK     1      15.615   8.036   9.838  1.00  0.00     0.049 A 
HETATM    8  C12 UNK     1      15.681   6.641   9.880  1.00  0.00     0.021 A 
HETATM    9  C13 UNK     1      16.664  10.324   9.777  1.00  0.00     0.048 A 
HETATM   10  C14 UNK     1      16.845   8.848   9.843  1.00  0.00     0.197 A 
HETATM   11  C16 UNK     1      15.407  10.788   9.737  1.00  0.00     0.159 A 
ENDROOT
BRANCH   3  12
HETATM   12  O2  UNK     1      12.116   5.802   9.835  1.00  0.00    -0.318 OA
BRANCH  12  13
HETATM   13  C5  UNK     1      10.993   6.370   9.165  1.00  0.00     0.298 C 
HETATM   14  C3  UNK     1      11.268   6.373   7.662  1.00  0.00     0.205 C 
HETATM   15  C1  UNK     1      10.069   6.958   6.917  1.00  0.00     0.183 C 
HETATM   16  C2  UNK     1       8.777   6.241   7.317  1.00  0.00     0.180 C 
HETATM   17  C4  UNK     1       8.641   6.193   8.845  1.00  0.00     0.179 C 
HETATM   18  O1  UNK     1       9.808   5.621   9.443  1.00  0.00    -0.348 OA
BRANCH  14  19
HETATM   19  O5  UNK     1      11.480   5.021   7.244  1.00  0.00    -0.388 OA
HETATM   20  H10 UNK     1      11.055   4.431   7.888  1.00  0.00     0.210 HD
ENDBRANCH  14  19
BRANCH  15  21
HETATM   21  O3  UNK     1      10.258   6.833   5.510  1.00  0.00    -0.390 OA
HETATM   22  H8  UNK     1       9.857   5.991   5.236  1.00  0.00     0.210 HD
ENDBRANCH  15  21
BRANCH  16  23
HETATM   23  O4  UNK     1       7.661   6.940   6.771  1.00  0.00    -0.390 OA
HETATM   24  H9  UNK     1       7.269   6.384   6.076  1.00  0.00     0.210 HD
ENDBRANCH  16  23
BRANCH  17  25
HETATM   25  C6  UNK     1       7.445   5.350   9.275  1.00  0.00     0.198 C 
BRANCH  25  26
HETATM   26  O6  UNK     1       7.243   4.330   8.314  1.00  0.00    -0.398 OA
HETATM   27  H11 UNK     1       6.333   4.416   7.981  1.00  0.00     0.209 HD
ENDBRANCH  25  26
ENDBRANCH  17  25
ENDBRANCH  12  13
ENDBRANCH   3  12
BRANCH   9  28
HETATM   28  C15 UNK     1      17.810  11.248   9.734  1.00  0.00    -0.017 A 
HETATM   29  C18 UNK     1      18.508  11.438   8.541  1.00  0.00     0.052 A 
HETATM   30  C17 UNK     1      19.588  12.319   8.502  1.00  0.00     0.102 A 
HETATM   31  O8  UNK     1      20.221  12.479   7.297  1.00  0.00    -0.346 OA
HETATM   32  C19 UNK     1      19.987  12.989   9.661  1.00  0.00     0.102 A 
HETATM   33  C22 UNK     1      21.064  13.635   7.286  1.00  0.00     0.202 C 
HETATM   34  C23 UNK     1      21.901  13.688   8.549  1.00  0.00     0.202 C 
HETATM   35  O9  UNK     1      21.060  13.842   9.695  1.00  0.00    -0.346 OA
HETATM   36  C21 UNK     1      19.281  12.810  10.850  1.00  0.00     0.040 A 
HETATM   37  C20 UNK     1      18.192  11.938  10.885  1.00  0.00     0.015 A 
ENDBRANCH   9  28
TORSDOF 8
ENDMDL
MODEL 10
REMARK VINA RESULT:      -9.2     16.184     20.118
REMARK  8 active torsions:
REMARK  status: ('A' for Active; 'I' for Inactive)
REMARK    1  A    between atoms: C5_15  and  O2_2 
REMARK    2  A    between atoms: C7_17  and  O2_2 
REMARK    3  A    between atoms: C1_11  and  O3_3 
REMARK    4  A    between atoms: C2_12  and  O4_4 
REMARK    5  A    between atoms: C3_13  and  O5_5 
REMARK    6  A    between atoms: C6_16  and  O6_6 
REMARK    7  A    between atoms: C4_14  and  C6_16 
REMARK    8  A    between atoms: C13_23  and  C15_25 
ROOT
HETATM    1  O7  UNK     1      27.523  -8.902  38.676  1.00  0.00    -0.321 OA
HETATM    2  O10 UNK     1      25.514  -5.350  38.645  1.00  0.00    -0.286 OA
HETATM    3  C7  UNK     1      30.364  -6.624  38.567  1.00  0.00     0.074 A 
HETATM    4  C8  UNK     1      29.607  -7.795  38.611  1.00  0.00     0.075 A 
HETATM    5  C9  UNK     1      29.731  -5.381  38.542  1.00  0.00     0.038 A 
HETATM    6  C10 UNK     1      28.213  -7.719  38.631  1.00  0.00     0.091 A 
HETATM    7  C11 UNK     1      27.581  -6.477  38.607  1.00  0.00     0.049 A 
HETATM    8  C12 UNK     1      28.338  -5.303  38.564  1.00  0.00     0.021 A 
HETATM    9  C13 UNK     1      25.396  -7.729  38.663  1.00  0.00     0.048 A 
HETATM   10  C14 UNK     1      26.108  -6.421  38.635  1.00  0.00     0.197 A 
HETATM   11  C16 UNK     1      26.150  -8.838  38.678  1.00  0.00     0.159 A 
ENDROOT
BRANCH   3  12
HETATM   12  O2  UNK     1      31.726  -6.695  38.545  1.00  0.00    -0.318 OA
BRANCH  12  13
HETATM   13  C5  UNK     1      32.355  -6.557  37.274  1.00  0.00     0.298 C 
HETATM   14  C3  UNK     1      33.812  -6.149  37.489  1.00  0.00     0.205 C 
HETATM   15  C1  UNK     1      34.518  -6.015  36.140  1.00  0.00     0.183 C 
HETATM   16  C2  UNK     1      34.337  -7.284  35.303  1.00  0.00     0.180 C 
HETATM   17  C4  UNK     1      32.855  -7.675  35.233  1.00  0.00     0.179 C 
HETATM   18  O1  UNK     1      32.294  -7.784  36.545  1.00  0.00    -0.348 OA
BRANCH  14  19
HETATM   19  O5  UNK     1      34.451  -7.168  38.265  1.00  0.00    -0.388 OA
HETATM   20  H10 UNK     1      34.950  -6.740  38.981  1.00  0.00     0.210 HD
ENDBRANCH  14  19
BRANCH  15  21
HETATM   21  O3  UNK     1      35.909  -5.776  36.337  1.00  0.00    -0.390 OA
HETATM   22  H8  UNK     1      36.001  -5.227  37.133  1.00  0.00     0.210 HD
ENDBRANCH  15  21
BRANCH  16  23
HETATM   23  O4  UNK     1      34.822  -7.051  33.982  1.00  0.00    -0.390 OA
HETATM   24  H9  UNK     1      35.752  -7.332  33.949  1.00  0.00     0.210 HD
ENDBRANCH  16  23
BRANCH  17  25
HETATM   25  C6  UNK     1      32.662  -9.018  34.538  1.00  0.00     0.198 C 
BRANCH  25  26
HETATM   26  O6  UNK     1      33.897  -9.711  34.544  1.00  0.00    -0.398 OA
HETATM   27  H11 UNK     1      34.341  -9.513  35.386  1.00  0.00     0.209 HD
ENDBRANCH  25  26
ENDBRANCH  17  25
ENDBRANCH  12  13
ENDBRANCH   3  12
BRANCH   9  28
HETATM   28  C15 UNK     1      23.927  -7.817  38.652  1.00  0.00    -0.017 A 
HETATM   29  C18 UNK     1      23.275  -8.442  37.589  1.00  0.00     0.052 A 
HETATM   30  C17 UNK     1      21.883  -8.531  37.584  1.00  0.00     0.102 A 
HETATM   31  O8  UNK     1      21.300  -9.174  36.523  1.00  0.00    -0.346 OA
HETATM   32  C19 UNK     1      21.142  -7.969  38.628  1.00  0.00     0.102 A 
HETATM   33  C22 UNK     1      19.935  -9.508  36.786  1.00  0.00     0.202 C 
HETATM   34  C23 UNK     1      19.210  -8.322  37.391  1.00  0.00     0.202 C 
HETATM   35  O9  UNK     1      19.772  -7.994  38.665  1.00  0.00    -0.346 OA
HETATM   36  C21 UNK     1      21.795  -7.356  39.697  1.00  0.00     0.040 A 
HETATM   37  C20 UNK     1      23.188  -7.280  39.707  1.00  0.00     0.015 A 
ENDBRANCH   9  28
TORSDOF 8
ENDMDL
