MODEL 1
REMARK VINA RESULT:      -8.1      0.000      0.000
REMARK  6 active torsions:
REMARK  status: ('A' for Active; 'I' for Inactive)
REMARK    1  A    between atoms: C12_19  and  O2_3 
REMARK    2  A    between atoms: C21_28  and  O2_3 
REMARK    3  A    between atoms: C1_8  and  C11_18 
REMARK    4  A    between atoms: C10_17  and  C4_11 
REMARK    5  A    between atoms: C12_19  and  C8_15 
REMARK    6  A    between atoms: C21_28  and  C23_30 
ROOT
HETATM    1  O1  UNK     1      27.659 -10.036  38.696  1.00  0.00    -0.293 OA
HETATM    2  N1  UNK     1      27.982  -5.330  38.246  1.00  0.00    -0.362 N 
HETATM    3  C1  UNK     1      24.996  -7.596  38.531  1.00  0.00     0.038 C 
HETATM    4  C2  UNK     1      27.868  -7.693  38.373  1.00  0.00     0.024 C 
HETATM    5  C3  UNK     1      25.804  -6.319  38.804  1.00  0.00     0.068 C 
HETATM    6  C4  UNK     1      29.337  -7.808  37.975  1.00  0.00     0.104 C 
HETATM    7  C5  UNK     1      27.263  -6.490  38.464  1.00  0.00     0.021 C 
HETATM    8  C6  UNK     1      25.673  -8.802  39.181  1.00  0.00     0.094 C 
HETATM    9  C7  UNK     1      27.109  -8.934  38.721  1.00  0.00     0.159 C 
HETATM   10  C8  UNK     1      30.038  -6.450  37.894  1.00  0.00     0.052 C 
HETATM   11  C9  UNK     1      29.348  -5.292  38.015  1.00  0.00     0.018 C 
HETATM   12  C13 UNK     1      29.938  -3.908  37.960  1.00  0.00     0.069 C 
HETATM   13  H7  UNK     1      27.494  -4.447  38.338  1.00  0.00     0.165 HD
ENDROOT
BRANCH   6  14
HETATM   14  C10 UNK     1      29.466  -8.539  36.665  1.00  0.00     0.029 A 
HETATM   15  C14 UNK     1      30.450  -9.646  36.565  1.00  0.00     0.194 A 
HETATM   16  O5  UNK     1      31.154  -9.979  37.509  1.00  0.00    -0.287 OA
HETATM   17  C17 UNK     1      30.536 -10.327  35.260  1.00  0.00     0.049 A 
HETATM   18  C19 UNK     1      29.710  -9.905  34.218  1.00  0.00     0.089 A 
HETATM   19  C22 UNK     1      31.432 -11.382  35.063  1.00  0.00     0.025 A 
HETATM   20  O3  UNK     1      28.813  -8.875  34.355  1.00  0.00    -0.321 OA
HETATM   21  C24 UNK     1      29.774 -10.535  32.975  1.00  0.00     0.039 A 
HETATM   22  C16 UNK     1      28.744  -8.251  35.575  1.00  0.00     0.154 A 
HETATM   23  C26 UNK     1      30.667 -11.589  32.777  1.00  0.00     0.009 A 
HETATM   24  C25 UNK     1      31.494 -12.010  33.819  1.00  0.00    -0.061 A 
HETATM   25  C29 UNK     1      32.446 -13.138  33.601  1.00  0.00     0.048 C 
ENDBRANCH   6  14
BRANCH  10  26
HETATM   26  C12 UNK     1      31.495  -6.476  37.684  1.00  0.00     0.292 C 
HETATM   27  O4  UNK     1      32.287  -6.818  38.541  1.00  0.00    -0.259 OA
BRANCH  26  28
HETATM   28  O2  UNK     1      31.751  -6.066  36.419  1.00  0.00    -0.317 OA
BRANCH  28  29
HETATM   29  C21 UNK     1      32.703  -6.862  35.705  1.00  0.00     0.183 C 
BRANCH  29  30
HETATM   30  C23 UNK     1      32.518  -6.668  34.197  1.00  0.00     0.002 C 
HETATM   31  C27 UNK     1      31.130  -6.104  33.900  1.00  0.00     0.011 C 
HETATM   32  C28 UNK     1      32.735  -7.976  33.435  1.00  0.00     0.011 C 
ENDBRANCH  29  30
ENDBRANCH  28  29
ENDBRANCH  26  28
ENDBRANCH  10  26
BRANCH   3  33
HETATM   33  C11 UNK     1      23.543  -7.453  38.960  1.00  0.00    -0.013 A 
HETATM   34  S1  UNK     1      22.693  -6.020  38.574  1.00  0.00    -0.106 SA
HETATM   35  C20 UNK     1      21.272  -6.600  39.333  1.00  0.00     0.050 A 
HETATM   36  C18 UNK     1      21.448  -7.857  39.868  1.00  0.00     0.008 A 
HETATM   37  C15 UNK     1      22.766  -8.351  39.651  1.00  0.00     0.015 A 
ENDBRANCH   3  33
TORSDOF 6
ENDMDL
MODEL 2
REMARK VINA RESULT:      -8.0      1.093      2.011
REMARK  6 active torsions:
REMARK  status: ('A' for Active; 'I' for Inactive)
REMARK    1  A    between atoms: C12_19  and  O2_3 
REMARK    2  A    between atoms: C21_28  and  O2_3 
REMARK    3  A    between atoms: C1_8  and  C11_18 
REMARK    4  A    between atoms: C10_17  and  C4_11 
REMARK    5  A    between atoms: C12_19  and  C8_15 
REMARK    6  A    between atoms: C21_28  and  C23_30 
ROOT
HETATM    1  O1  UNK     1      27.849 -10.079  38.681  1.00  0.00    -0.293 OA
HETATM    2  N1  UNK     1      27.999  -5.373  38.159  1.00  0.00    -0.362 N 
HETATM    3  C1  UNK     1      25.098  -7.755  38.360  1.00  0.00     0.038 C 
HETATM    4  C2  UNK     1      27.976  -7.735  38.325  1.00  0.00     0.024 C 
HETATM    5  C3  UNK     1      25.842  -6.442  38.643  1.00  0.00     0.068 C 
HETATM    6  C4  UNK     1      29.464  -7.797  37.990  1.00  0.00     0.104 C 
HETATM    7  C5  UNK     1      27.319  -6.557  38.369  1.00  0.00     0.021 C 
HETATM    8  C6  UNK     1      25.796  -8.922  39.059  1.00  0.00     0.094 C 
HETATM    9  C7  UNK     1      27.254  -9.001  38.663  1.00  0.00     0.159 C 
HETATM   10  C8  UNK     1      30.112  -6.412  37.914  1.00  0.00     0.052 C 
HETATM   11  C9  UNK     1      29.371  -5.282  37.985  1.00  0.00     0.018 C 
HETATM   12  C13 UNK     1      29.906  -3.876  37.930  1.00  0.00     0.069 C 
HETATM   13  H7  UNK     1      27.472  -4.509  38.215  1.00  0.00     0.165 HD
ENDROOT
BRANCH   6  14
HETATM   14  C10 UNK     1      29.678  -8.543  36.700  1.00  0.00     0.029 A 
HETATM   15  C14 UNK     1      28.981  -8.064  35.480  1.00  0.00     0.194 A 
HETATM   16  O5  UNK     1      28.243  -7.088  35.492  1.00  0.00    -0.287 OA
HETATM   17  C17 UNK     1      29.226  -8.831  34.245  1.00  0.00     0.049 A 
HETATM   18  C19 UNK     1      30.077  -9.936  34.289  1.00  0.00     0.089 A 
HETATM   19  C22 UNK     1      28.616  -8.461  33.043  1.00  0.00     0.025 A 
HETATM   20  O3  UNK     1      30.701 -10.344  35.441  1.00  0.00    -0.321 OA
HETATM   21  C24 UNK     1      30.322 -10.676  33.132  1.00  0.00     0.039 A 
HETATM   22  C16 UNK     1      30.464  -9.620  36.582  1.00  0.00     0.154 A 
HETATM   23  C26 UNK     1      29.715 -10.308  31.931  1.00  0.00     0.009 A 
HETATM   24  C25 UNK     1      28.863  -9.203  31.888  1.00  0.00    -0.061 A 
HETATM   25  C29 UNK     1      28.218  -8.814  30.600  1.00  0.00     0.048 C 
ENDBRANCH   6  14
BRANCH  10  26
HETATM   26  C12 UNK     1      31.576  -6.381  37.766  1.00  0.00     0.292 C 
HETATM   27  O4  UNK     1      32.344  -6.757  38.631  1.00  0.00    -0.259 OA
BRANCH  26  28
HETATM   28  O2  UNK     1      31.871  -5.879  36.543  1.00  0.00    -0.317 OA
BRANCH  28  29
HETATM   29  C21 UNK     1      32.643  -6.743  35.702  1.00  0.00     0.183 C 
BRANCH  29  30
HETATM   30  C23 UNK     1      32.500  -6.311  34.240  1.00  0.00     0.002 C 
HETATM   31  C27 UNK     1      31.168  -5.594  34.025  1.00  0.00     0.011 C 
HETATM   32  C28 UNK     1      32.619  -7.506  33.292  1.00  0.00     0.011 C 
ENDBRANCH  29  30
ENDBRANCH  28  29
ENDBRANCH  26  28
ENDBRANCH  10  26
BRANCH   3  33
HETATM   33  C11 UNK     1      23.624  -7.666  38.726  1.00  0.00    -0.013 A 
HETATM   34  S1  UNK     1      22.472  -8.484  37.764  1.00  0.00    -0.106 SA
HETATM   35  C20 UNK     1      21.184  -7.932  38.748  1.00  0.00     0.050 A 
HETATM   36  C18 UNK     1      21.629  -7.142  39.785  1.00  0.00     0.008 A 
HETATM   37  C15 UNK     1      23.045  -6.988  39.772  1.00  0.00     0.015 A 
ENDBRANCH   3  33
TORSDOF 6
ENDMDL
MODEL 3
REMARK VINA RESULT:      -7.9      3.406      7.459
REMARK  6 active torsions:
REMARK  status: ('A' for Active; 'I' for Inactive)
REMARK    1  A    between atoms: C12_19  and  O2_3 
REMARK    2  A    between atoms: C21_28  and  O2_3 
REMARK    3  A    between atoms: C1_8  and  C11_18 
REMARK    4  A    between atoms: C10_17  and  C4_11 
REMARK    5  A    between atoms: C12_19  and  C8_15 
REMARK    6  A    between atoms: C21_28  and  C23_30 
ROOT
HETATM    1  O1  UNK     1      28.660  -9.304  32.466  1.00  0.00    -0.293 OA
HETATM    2  N1  UNK     1      33.084  -9.294  34.159  1.00  0.00    -0.362 N 
HETATM    3  C1  UNK     1      30.906 -12.100  32.930  1.00  0.00     0.038 C 
HETATM    4  C2  UNK     1      30.838  -9.262  33.409  1.00  0.00     0.024 C 
HETATM    5  C3  UNK     1      32.227 -11.337  33.100  1.00  0.00     0.068 C 
HETATM    6  C4  UNK     1      30.656  -7.843  33.942  1.00  0.00     0.104 C 
HETATM    7  C5  UNK     1      32.008  -9.919  33.560  1.00  0.00     0.021 C 
HETATM    8  C6  UNK     1      29.930 -11.288  32.078  1.00  0.00     0.094 C 
HETATM    9  C7  UNK     1      29.715  -9.908  32.661  1.00  0.00     0.159 C 
HETATM   10  C8  UNK     1      31.960  -7.232  34.458  1.00  0.00     0.052 C 
HETATM   11  C9  UNK     1      33.093  -7.966  34.558  1.00  0.00     0.018 C 
HETATM   12  C13 UNK     1      34.426  -7.463  35.043  1.00  0.00     0.069 C 
HETATM   13  H7  UNK     1      33.949  -9.816  34.241  1.00  0.00     0.165 HD
ENDROOT
BRANCH   6  14
HETATM   14  C10 UNK     1      29.608  -7.823  35.022  1.00  0.00     0.029 A 
HETATM   15  C14 UNK     1      29.795  -8.696  36.208  1.00  0.00     0.194 A 
HETATM   16  O5  UNK     1      30.769  -9.427  36.332  1.00  0.00    -0.287 OA
HETATM   17  C17 UNK     1      28.739  -8.637  37.236  1.00  0.00     0.049 A 
HETATM   18  C19 UNK     1      27.650  -7.786  37.042  1.00  0.00     0.089 A 
HETATM   19  C22 UNK     1      28.822  -9.421  38.390  1.00  0.00     0.025 A 
HETATM   20  O3  UNK     1      27.517  -6.995  35.929  1.00  0.00    -0.321 OA
HETATM   21  C24 UNK     1      26.640  -7.714  38.002  1.00  0.00     0.039 A 
HETATM   22  C16 UNK     1      28.508  -7.061  34.982  1.00  0.00     0.154 A 
HETATM   23  C26 UNK     1      26.721  -8.496  39.155  1.00  0.00     0.009 A 
HETATM   24  C25 UNK     1      27.810  -9.347  39.347  1.00  0.00    -0.061 A 
HETATM   25  C29 UNK     1      27.892 -10.179  40.583  1.00  0.00     0.048 C 
ENDBRANCH   6  14
BRANCH  10  26
HETATM   26  C12 UNK     1      31.914  -5.809  34.832  1.00  0.00     0.292 C 
HETATM   27  O4  UNK     1      31.785  -4.909  34.023  1.00  0.00    -0.259 OA
BRANCH  26  28
HETATM   28  O2  UNK     1      32.036  -5.716  36.178  1.00  0.00    -0.317 OA
BRANCH  28  29
HETATM   29  C21 UNK     1      31.076  -4.869  36.817  1.00  0.00     0.183 C 
BRANCH  29  30
HETATM   30  C23 UNK     1      30.961  -5.238  38.299  1.00  0.00     0.002 C 
HETATM   31  C27 UNK     1      31.604  -6.599  38.559  1.00  0.00     0.011 C 
HETATM   32  C28 UNK     1      29.502  -5.243  38.761  1.00  0.00     0.011 C 
ENDBRANCH  29  30
ENDBRANCH  28  29
ENDBRANCH  26  28
ENDBRANCH  10  26
BRANCH   3  33
HETATM   33  C11 UNK     1      31.123 -13.500  32.378  1.00  0.00    -0.013 A 
HETATM   34  S1  UNK     1      31.544 -13.695  30.732  1.00  0.00    -0.106 SA
HETATM   35  C20 UNK     1      31.600 -15.399  30.897  1.00  0.00     0.050 A 
HETATM   36  C18 UNK     1      31.303 -15.804  32.179  1.00  0.00     0.008 A 
HETATM   37  C15 UNK     1      31.027 -14.702  33.038  1.00  0.00     0.015 A 
ENDBRANCH   3  33
TORSDOF 6
ENDMDL
MODEL 4
REMARK VINA RESULT:      -7.8      5.972      9.219
REMARK  6 active torsions:
REMARK  status: ('A' for Active; 'I' for Inactive)
REMARK    1  A    between atoms: C12_19  and  O2_3 
REMARK    2  A    between atoms: C21_28  and  O2_3 
REMARK    3  A    between atoms: C1_8  and  C11_18 
REMARK    4  A    between atoms: C10_17  and  C4_11 
REMARK    5  A    between atoms: C12_19  and  C8_15 
REMARK    6  A    between atoms: C21_28  and  C23_30 
ROOT
HETATM    1  O1  UNK     1      30.902 -10.947  33.698  1.00  0.00    -0.293 OA
HETATM    2  N1  UNK     1      29.931 -11.634  29.112  1.00  0.00    -0.362 N 
HETATM    3  C1  UNK     1      31.283 -13.961  31.737  1.00  0.00     0.038 C 
HETATM    4  C2  UNK     1      30.491 -11.217  31.375  1.00  0.00     0.024 C 
HETATM    5  C3  UNK     1      30.422 -13.583  30.523  1.00  0.00     0.068 C 
HETATM    6  C4  UNK     1      30.391  -9.711  31.147  1.00  0.00     0.104 C 
HETATM    7  C5  UNK     1      30.287 -12.090  30.367  1.00  0.00     0.021 C 
HETATM    8  C6  UNK     1      30.795 -13.222  32.983  1.00  0.00     0.094 C 
HETATM    9  C7  UNK     1      30.766 -11.726  32.755  1.00  0.00     0.159 C 
HETATM   10  C8  UNK     1      29.864  -9.356  29.755  1.00  0.00     0.052 C 
HETATM   11  C9  UNK     1      29.672 -10.306  28.810  1.00  0.00     0.018 C 
HETATM   12  C13 UNK     1      29.151 -10.068  27.418  1.00  0.00     0.069 C 
HETATM   13  H7  UNK     1      29.772 -12.323  28.386  1.00  0.00     0.165 HD
ENDROOT
BRANCH   6  14
HETATM   14  C10 UNK     1      31.728  -9.059  31.378  1.00  0.00     0.029 A 
HETATM   15  C14 UNK     1      31.859  -8.085  32.491  1.00  0.00     0.194 A 
HETATM   16  O5  UNK     1      30.919  -7.799  33.221  1.00  0.00    -0.287 OA
HETATM   17  C17 UNK     1      33.190  -7.476  32.673  1.00  0.00     0.049 A 
HETATM   18  C19 UNK     1      34.225  -7.838  31.811  1.00  0.00     0.089 A 
HETATM   19  C22 UNK     1      33.416  -6.547  33.693  1.00  0.00     0.025 A 
HETATM   20  O3  UNK     1      34.060  -8.743  30.793  1.00  0.00    -0.321 OA
HETATM   21  C24 UNK     1      35.492  -7.274  31.964  1.00  0.00     0.039 A 
HETATM   22  C16 UNK     1      32.816  -9.302  30.637  1.00  0.00     0.154 A 
HETATM   23  C26 UNK     1      35.720  -6.347  32.982  1.00  0.00     0.009 A 
HETATM   24  C25 UNK     1      34.683  -5.984  33.843  1.00  0.00    -0.061 A 
HETATM   25  C29 UNK     1      34.934  -4.994  34.931  1.00  0.00     0.048 C 
ENDBRANCH   6  14
BRANCH  10  26
HETATM   26  C12 UNK     1      29.573  -7.935  29.507  1.00  0.00     0.292 C 
HETATM   27  O4  UNK     1      30.364  -7.172  28.985  1.00  0.00    -0.259 OA
BRANCH  26  28
HETATM   28  O2  UNK     1      28.321  -7.671  29.952  1.00  0.00    -0.317 OA
BRANCH  28  29
HETATM   29  C21 UNK     1      28.095  -6.318  30.361  1.00  0.00     0.183 C 
BRANCH  29  30
HETATM   30  C23 UNK     1      28.747  -6.071  31.724  1.00  0.00     0.002 C 
HETATM   31  C27 UNK     1      27.683  -5.995  32.817  1.00  0.00     0.011 C 
HETATM   32  C28 UNK     1      29.592  -4.795  31.716  1.00  0.00     0.011 C 
ENDBRANCH  29  30
ENDBRANCH  28  29
ENDBRANCH  26  28
ENDBRANCH  10  26
BRANCH   3  33
HETATM   33  C11 UNK     1      31.342 -15.466  31.948  1.00  0.00    -0.013 A 
HETATM   34  S1  UNK     1      31.905 -16.467  30.681  1.00  0.00    -0.106 SA
HETATM   35  C20 UNK     1      31.682 -17.876  31.629  1.00  0.00     0.050 A 
HETATM   36  C18 UNK     1      31.189 -17.584  32.881  1.00  0.00     0.008 A 
HETATM   37  C15 UNK     1      30.992 -16.185  33.066  1.00  0.00     0.015 A 
ENDBRANCH   3  33
TORSDOF 6
ENDMDL
MODEL 5
REMARK VINA RESULT:      -7.7      4.794      9.480
REMARK  6 active torsions:
REMARK  status: ('A' for Active; 'I' for Inactive)
REMARK    1  A    between atoms: C12_19  and  O2_3 
REMARK    2  A    between atoms: C21_28  and  O2_3 
REMARK    3  A    between atoms: C1_8  and  C11_18 
REMARK    4  A    between atoms: C10_17  and  C4_11 
REMARK    5  A    between atoms: C12_19  and  C8_15 
REMARK    6  A    between atoms: C21_28  and  C23_30 
ROOT
HETATM    1  O1  UNK     1      34.034  -6.862  30.818  1.00  0.00    -0.293 OA
HETATM    2  N1  UNK     1      34.698  -8.079  35.348  1.00  0.00    -0.362 N 
HETATM    3  C1  UNK     1      36.244  -9.380  32.178  1.00  0.00     0.038 C 
HETATM    4  C2  UNK     1      34.262  -7.503  33.092  1.00  0.00     0.024 C 
HETATM    5  C3  UNK     1      36.247  -8.945  33.650  1.00  0.00     0.068 C 
HETATM    6  C4  UNK     1      33.002  -6.747  33.504  1.00  0.00     0.104 C 
HETATM    7  C5  UNK     1      35.022  -8.142  34.006  1.00  0.00     0.021 C 
HETATM    8  C6  UNK     1      35.972  -8.179  31.271  1.00  0.00     0.094 C 
HETATM    9  C7  UNK     1      34.685  -7.484  31.657  1.00  0.00     0.159 C 
HETATM   10  C8  UNK     1      32.839  -6.649  35.023  1.00  0.00     0.052 C 
HETATM   11  C9  UNK     1      33.664  -7.314  35.865  1.00  0.00     0.018 C 
HETATM   12  C13 UNK     1      33.597  -7.281  37.369  1.00  0.00     0.069 C 
HETATM   13  H7  UNK     1      35.302  -8.561  36.004  1.00  0.00     0.165 HD
ENDROOT
BRANCH   6  14
HETATM   14  C10 UNK     1      31.785  -7.387  32.891  1.00  0.00     0.029 A 
HETATM   15  C14 UNK     1      30.752  -6.510  32.285  1.00  0.00     0.194 A 
HETATM   16  O5  UNK     1      30.860  -5.291  32.269  1.00  0.00    -0.287 OA
HETATM   17  C17 UNK     1      29.581  -7.189  31.699  1.00  0.00     0.049 A 
HETATM   18  C19 UNK     1      29.511  -8.582  31.745  1.00  0.00     0.089 A 
HETATM   19  C22 UNK     1      28.553  -6.452  31.104  1.00  0.00     0.025 A 
HETATM   20  O3  UNK     1      30.490  -9.354  32.317  1.00  0.00    -0.321 OA
HETATM   21  C24 UNK     1      28.412  -9.245  31.197  1.00  0.00     0.039 A 
HETATM   22  C16 UNK     1      31.574  -8.708  32.858  1.00  0.00     0.154 A 
HETATM   23  C26 UNK     1      27.385  -8.511  30.602  1.00  0.00     0.009 A 
HETATM   24  C25 UNK     1      27.456  -7.118  30.557  1.00  0.00    -0.061 A 
HETATM   25  C29 UNK     1      26.355  -6.340  29.918  1.00  0.00     0.048 C 
ENDBRANCH   6  14
BRANCH  10  26
HETATM   26  C12 UNK     1      31.746  -5.792  35.511  1.00  0.00     0.292 C 
HETATM   27  O4  UNK     1      31.810  -4.578  35.539  1.00  0.00    -0.259 OA
BRANCH  26  28
HETATM   28  O2  UNK     1      30.720  -6.588  35.897  1.00  0.00    -0.317 OA
BRANCH  28  29
HETATM   29  C21 UNK     1      29.693  -5.932  36.649  1.00  0.00     0.183 C 
BRANCH  29  30
HETATM   30  C23 UNK     1      30.007  -6.018  38.145  1.00  0.00     0.002 C 
HETATM   31  C27 UNK     1      28.951  -6.857  38.862  1.00  0.00     0.011 C 
HETATM   32  C28 UNK     1      30.101  -4.628  38.776  1.00  0.00     0.011 C 
ENDBRANCH  29  30
ENDBRANCH  28  29
ENDBRANCH  26  28
ENDBRANCH  10  26
BRANCH   3  33
HETATM   33  C11 UNK     1      37.523 -10.110  31.796  1.00  0.00    -0.013 A 
HETATM   34  S1  UNK     1      37.719 -10.675  30.194  1.00  0.00    -0.106 SA
HETATM   35  C20 UNK     1      39.265 -11.315  30.556  1.00  0.00     0.050 A 
HETATM   36  C18 UNK     1      39.618 -11.102  31.871  1.00  0.00     0.008 A 
HETATM   37  C15 UNK     1      38.607 -10.401  32.589  1.00  0.00     0.015 A 
ENDBRANCH   3  33
TORSDOF 6
ENDMDL
MODEL 6
REMARK VINA RESULT:      -7.7      4.961      9.850
REMARK  6 active torsions:
REMARK  status: ('A' for Active; 'I' for Inactive)
REMARK    1  A    between atoms: C12_19  and  O2_3 
REMARK    2  A    between atoms: C21_28  and  O2_3 
REMARK    3  A    between atoms: C1_8  and  C11_18 
REMARK    4  A    between atoms: C10_17  and  C4_11 
REMARK    5  A    between atoms: C12_19  and  C8_15 
REMARK    6  A    between atoms: C21_28  and  C23_30 
ROOT
HETATM    1  O1  UNK     1      32.917  -9.607  34.478  1.00  0.00    -0.293 OA
HETATM    2  N1  UNK     1      33.156  -7.663  30.165  1.00  0.00    -0.362 N 
HETATM    3  C1  UNK     1      35.799  -9.232  32.327  1.00  0.00     0.038 C 
HETATM    4  C2  UNK     1      33.006  -8.538  32.361  1.00  0.00     0.024 C 
HETATM    5  C3  UNK     1      35.088  -8.927  31.002  1.00  0.00     0.068 C 
HETATM    6  C4  UNK     1      31.628  -7.908  32.543  1.00  0.00     0.104 C 
HETATM    7  C5  UNK     1      33.703  -8.371  31.217  1.00  0.00     0.021 C 
HETATM    8  C6  UNK     1      34.899 -10.074  33.231  1.00  0.00     0.094 C 
HETATM    9  C7  UNK     1      33.562  -9.399  33.450  1.00  0.00     0.159 C 
HETATM   10  C8  UNK     1      31.093  -7.271  31.259  1.00  0.00     0.052 C 
HETATM   11  C9  UNK     1      31.863  -7.162  30.151  1.00  0.00     0.018 C 
HETATM   12  C13 UNK     1      31.435  -6.563  28.838  1.00  0.00     0.069 C 
HETATM   13  H7  UNK     1      33.706  -7.573  29.318  1.00  0.00     0.165 HD
ENDROOT
BRANCH   6  14
HETATM   14  C10 UNK     1      31.661  -6.892  33.653  1.00  0.00     0.029 A 
HETATM   15  C14 UNK     1      30.585  -6.924  34.676  1.00  0.00     0.194 A 
HETATM   16  O5  UNK     1      29.679  -7.745  34.642  1.00  0.00    -0.287 OA
HETATM   17  C17 UNK     1      30.666  -5.907  35.740  1.00  0.00     0.049 A 
HETATM   18  C19 UNK     1      31.722  -4.994  35.728  1.00  0.00     0.089 A 
HETATM   19  C22 UNK     1      29.701  -5.852  36.750  1.00  0.00     0.025 A 
HETATM   20  O3  UNK     1      32.696  -5.001  34.762  1.00  0.00    -0.321 OA
HETATM   21  C24 UNK     1      31.818  -4.023  36.726  1.00  0.00     0.039 A 
HETATM   22  C16 UNK     1      32.607  -5.954  33.778  1.00  0.00     0.154 A 
HETATM   23  C26 UNK     1      30.856  -3.967  37.735  1.00  0.00     0.009 A 
HETATM   24  C25 UNK     1      29.800  -4.880  37.745  1.00  0.00    -0.061 A 
HETATM   25  C29 UNK     1      28.775  -4.816  38.828  1.00  0.00     0.048 C 
ENDBRANCH   6  14
BRANCH  10  26
HETATM   26  C12 UNK     1      29.702  -6.791  31.295  1.00  0.00     0.292 C 
HETATM   27  O4  UNK     1      29.401  -5.612  31.310  1.00  0.00    -0.259 OA
BRANCH  26  28
HETATM   28  O2  UNK     1      28.879  -7.867  31.308  1.00  0.00    -0.317 OA
BRANCH  28  29
HETATM   29  C21 UNK     1      28.227  -8.147  30.065  1.00  0.00     0.183 C 
BRANCH  29  30
HETATM   30  C23 UNK     1      28.962  -9.274  29.334  1.00  0.00     0.002 C 
HETATM   31  C27 UNK     1      28.006 -10.016  28.402  1.00  0.00     0.011 C 
HETATM   32  C28 UNK     1      29.607 -10.251  30.320  1.00  0.00     0.011 C 
ENDBRANCH  29  30
ENDBRANCH  28  29
ENDBRANCH  26  28
ENDBRANCH  10  26
BRANCH   3  33
HETATM   33  C11 UNK     1      37.159  -9.879  32.109  1.00  0.00    -0.013 A 
HETATM   34  S1  UNK     1      37.536 -10.537  30.576  1.00  0.00    -0.106 SA
HETATM   35  C20 UNK     1      39.090 -11.020  31.111  1.00  0.00     0.050 A 
HETATM   36  C18 UNK     1      39.310 -10.685  32.429  1.00  0.00     0.008 A 
HETATM   37  C15 UNK     1      38.189 -10.022  33.007  1.00  0.00     0.015 A 
ENDBRANCH   3  33
TORSDOF 6
ENDMDL
MODEL 7
REMARK VINA RESULT:      -7.6      2.244      2.961
REMARK  6 active torsions:
REMARK  status: ('A' for Active; 'I' for Inactive)
REMARK    1  A    between atoms: C12_19  and  O2_3 
REMARK    2  A    between atoms: C21_28  and  O2_3 
REMARK    3  A    between atoms: C1_8  and  C11_18 
REMARK    4  A    between atoms: C10_17  and  C4_11 
REMARK    5  A    between atoms: C12_19  and  C8_15 
REMARK    6  A    between atoms: C21_28  and  C23_30 
ROOT
HETATM    1  O1  UNK     1      27.337 -10.077  35.684  1.00  0.00    -0.293 OA
HETATM    2  N1  UNK     1      28.126  -6.228  38.331  1.00  0.00    -0.362 N 
HETATM    3  C1  UNK     1      24.977  -8.161  37.642  1.00  0.00     0.038 C 
HETATM    4  C2  UNK     1      27.763  -8.095  36.920  1.00  0.00     0.024 C 
HETATM    5  C3  UNK     1      25.959  -7.367  38.516  1.00  0.00     0.068 C 
HETATM    6  C4  UNK     1      29.131  -7.903  36.273  1.00  0.00     0.104 C 
HETATM    7  C5  UNK     1      27.320  -7.255  37.879  1.00  0.00     0.021 C 
HETATM    8  C6  UNK     1      25.601  -9.489  37.215  1.00  0.00     0.094 C 
HETATM    9  C7  UNK     1      26.927  -9.269  36.518  1.00  0.00     0.159 C 
HETATM   10  C8  UNK     1      29.964  -6.817  36.959  1.00  0.00     0.052 C 
HETATM   11  C9  UNK     1      29.438  -6.031  37.927  1.00  0.00     0.018 C 
HETATM   12  C13 UNK     1      30.168  -4.943  38.669  1.00  0.00     0.069 C 
HETATM   13  H7  UNK     1      27.763  -5.628  39.062  1.00  0.00     0.165 HD
ENDROOT
BRANCH   6  14
HETATM   14  C10 UNK     1      28.977  -7.593  34.808  1.00  0.00     0.029 A 
HETATM   15  C14 UNK     1      29.697  -8.441  33.824  1.00  0.00     0.194 A 
HETATM   16  O5  UNK     1      30.406  -9.378  34.167  1.00  0.00    -0.287 OA
HETATM   17  C17 UNK     1      29.511  -8.094  32.403  1.00  0.00     0.049 A 
HETATM   18  C19 UNK     1      28.691  -7.015  32.070  1.00  0.00     0.089 A 
HETATM   19  C22 UNK     1      30.146  -8.831  31.400  1.00  0.00     0.025 A 
HETATM   20  O3  UNK     1      28.044  -6.257  33.013  1.00  0.00    -0.321 OA
HETATM   21  C24 UNK     1      28.501  -6.668  30.732  1.00  0.00     0.039 A 
HETATM   22  C16 UNK     1      28.227  -6.592  34.332  1.00  0.00     0.154 A 
HETATM   23  C26 UNK     1      29.133  -7.404  29.728  1.00  0.00     0.009 A 
HETATM   24  C25 UNK     1      29.954  -8.482  30.063  1.00  0.00    -0.061 A 
HETATM   25  C29 UNK     1      30.626  -9.265  28.985  1.00  0.00     0.048 C 
ENDBRANCH   6  14
BRANCH  10  26
HETATM   26  C12 UNK     1      31.360  -6.681  36.511  1.00  0.00     0.292 C 
HETATM   27  O4  UNK     1      32.243  -7.451  36.835  1.00  0.00    -0.259 OA
BRANCH  26  28
HETATM   28  O2  UNK     1      31.448  -5.589  35.714  1.00  0.00    -0.317 OA
BRANCH  28  29
HETATM   29  C21 UNK     1      32.480  -5.644  34.723  1.00  0.00     0.183 C 
BRANCH  29  30
HETATM   30  C23 UNK     1      33.460  -4.486  34.928  1.00  0.00     0.002 C 
HETATM   31  C27 UNK     1      34.805  -5.010  35.428  1.00  0.00     0.011 C 
HETATM   32  C28 UNK     1      32.900  -3.446  35.900  1.00  0.00     0.011 C 
ENDBRANCH  29  30
ENDBRANCH  28  29
ENDBRANCH  26  28
ENDBRANCH  10  26
BRANCH   3  33
HETATM   33  C11 UNK     1      23.632  -8.352  38.327  1.00  0.00    -0.013 A 
HETATM   34  S1  UNK     1      22.306  -8.937  37.419  1.00  0.00    -0.106 SA
HETATM   35  C20 UNK     1      21.277  -8.873  38.786  1.00  0.00     0.050 A 
HETATM   36  C18 UNK     1      21.935  -8.415  39.906  1.00  0.00     0.008 A 
HETATM   37  C15 UNK     1      23.301  -8.113  39.639  1.00  0.00     0.015 A 
ENDBRANCH   3  33
TORSDOF 6
ENDMDL
MODEL 8
REMARK VINA RESULT:      -7.6      4.563      8.617
REMARK  6 active torsions:
REMARK  status: ('A' for Active; 'I' for Inactive)
REMARK    1  A    between atoms: C12_19  and  O2_3 
REMARK    2  A    between atoms: C21_28  and  O2_3 
REMARK    3  A    between atoms: C1_8  and  C11_18 
REMARK    4  A    between atoms: C10_17  and  C4_11 
REMARK    5  A    between atoms: C12_19  and  C8_15 
REMARK    6  A    between atoms: C21_28  and  C23_30 
ROOT
HETATM    1  O1  UNK     1      29.763 -10.013  34.743  1.00  0.00    -0.293 OA
HETATM    2  N1  UNK     1      31.853  -8.752  30.683  1.00  0.00    -0.362 N 
HETATM    3  C1  UNK     1      32.349 -11.745  32.902  1.00  0.00     0.038 C 
HETATM    4  C2  UNK     1      30.849  -9.292  32.759  1.00  0.00     0.024 C 
HETATM    5  C3  UNK     1      32.233 -11.016  31.556  1.00  0.00     0.068 C 
HETATM    6  C4  UNK     1      30.286  -7.879  32.881  1.00  0.00     0.104 C 
HETATM    7  C5  UNK     1      31.610  -9.651  31.703  1.00  0.00     0.021 C 
HETATM    8  C6  UNK     1      31.007 -11.723  33.635  1.00  0.00     0.094 C 
HETATM    9  C7  UNK     1      30.500 -10.307  33.801  1.00  0.00     0.159 C 
HETATM   10  C8  UNK     1      30.520  -7.037  31.625  1.00  0.00     0.052 C 
HETATM   11  C9  UNK     1      31.288  -7.489  30.605  1.00  0.00     0.018 C 
HETATM   12  C13 UNK     1      31.575  -6.748  29.327  1.00  0.00     0.069 C 
HETATM   13  H7  UNK     1      32.418  -9.065  29.902  1.00  0.00     0.165 HD
ENDROOT
BRANCH   6  14
HETATM   14  C10 UNK     1      30.867  -7.189  34.086  1.00  0.00     0.029 A 
HETATM   15  C14 UNK     1      29.937  -6.595  35.080  1.00  0.00     0.194 A 
HETATM   16  O5  UNK     1      28.722  -6.651  34.949  1.00  0.00    -0.287 OA
HETATM   17  C17 UNK     1      30.559  -5.931  36.241  1.00  0.00     0.049 A 
HETATM   18  C19 UNK     1      31.951  -5.897  36.338  1.00  0.00     0.089 A 
HETATM   19  C22 UNK     1      29.770  -5.341  37.232  1.00  0.00     0.025 A 
HETATM   20  O3  UNK     1      32.773  -6.459  35.394  1.00  0.00    -0.321 OA
HETATM   21  C24 UNK     1      32.561  -5.274  37.427  1.00  0.00     0.039 A 
HETATM   22  C16 UNK     1      32.180  -7.074  34.320  1.00  0.00     0.154 A 
HETATM   23  C26 UNK     1      31.775  -4.685  38.418  1.00  0.00     0.009 A 
HETATM   24  C25 UNK     1      30.383  -4.719  38.320  1.00  0.00    -0.061 A 
HETATM   25  C29 UNK     1      29.549  -4.089  39.384  1.00  0.00     0.048 C 
ENDBRANCH   6  14
BRANCH  10  26
HETATM   26  C12 UNK     1      29.863  -5.720  31.587  1.00  0.00     0.292 C 
HETATM   27  O4  UNK     1      30.341  -4.720  32.088  1.00  0.00    -0.259 OA
BRANCH  26  28
HETATM   28  O2  UNK     1      28.691  -5.846  30.919  1.00  0.00    -0.317 OA
BRANCH  28  29
HETATM   29  C21 UNK     1      27.602  -6.355  31.696  1.00  0.00     0.183 C 
BRANCH  29  30
HETATM   30  C23 UNK     1      26.674  -7.188  30.809  1.00  0.00     0.002 C 
HETATM   31  C27 UNK     1      27.432  -8.369  30.206  1.00  0.00     0.011 C 
HETATM   32  C28 UNK     1      26.049  -6.337  29.701  1.00  0.00     0.011 C 
ENDBRANCH  29  30
ENDBRANCH  28  29
ENDBRANCH  26  28
ENDBRANCH  10  26
BRANCH   3  33
HETATM   33  C11 UNK     1      32.892 -13.157  32.741  1.00  0.00    -0.013 A 
HETATM   34  S1  UNK     1      31.834 -14.487  32.925  1.00  0.00    -0.106 SA
HETATM   35  C20 UNK     1      33.098 -15.600  32.617  1.00  0.00     0.050 A 
HETATM   36  C18 UNK     1      34.298 -14.966  32.381  1.00  0.00     0.008 A 
HETATM   37  C15 UNK     1      34.177 -13.548  32.452  1.00  0.00     0.015 A 
ENDBRANCH   3  33
TORSDOF 6
ENDMDL
MODEL 9
REMARK VINA RESULT:      -7.5      4.068      6.998
REMARK  6 active torsions:
REMARK  status: ('A' for Active; 'I' for Inactive)
REMARK    1  A    between atoms: C12_19  and  O2_3 
REMARK    2  A    between atoms: C21_28  and  O2_3 
REMARK    3  A    between atoms: C1_8  and  C11_18 
REMARK    4  A    between atoms: C10_17  and  C4_11 
REMARK    5  A    between atoms: C12_19  and  C8_15 
REMARK    6  A    between atoms: C21_28  and  C23_30 
ROOT
HETATM    1  O1  UNK     1      33.517  -5.940  33.936  1.00  0.00    -0.293 OA
HETATM    2  N1  UNK     1      29.134  -6.887  32.407  1.00  0.00    -0.362 N 
HETATM    3  C1  UNK     1      30.472  -6.251  35.861  1.00  0.00     0.038 C 
HETATM    4  C2  UNK     1      31.356  -6.511  33.134  1.00  0.00     0.024 C 
HETATM    5  C3  UNK     1      29.443  -6.144  34.727  1.00  0.00     0.068 C 
HETATM    6  C4  UNK     1      31.900  -6.954  31.778  1.00  0.00     0.104 C 
HETATM    7  C5  UNK     1      30.031  -6.521  33.391  1.00  0.00     0.021 C 
HETATM    8  C6  UNK     1      31.754  -5.507  35.487  1.00  0.00     0.094 C 
HETATM    9  C7  UNK     1      32.310  -6.007  34.171  1.00  0.00     0.159 C 
HETATM   10  C8  UNK     1      30.795  -7.202  30.749  1.00  0.00     0.052 C 
HETATM   11  C9  UNK     1      29.487  -7.174  31.097  1.00  0.00     0.018 C 
HETATM   12  C13 UNK     1      28.325  -7.396  30.166  1.00  0.00     0.069 C 
HETATM   13  H7  UNK     1      28.146  -6.868  32.636  1.00  0.00     0.165 HD
ENDROOT
BRANCH   6  14
HETATM   14  C10 UNK     1      32.752  -8.185  31.935  1.00  0.00     0.029 A 
HETATM   15  C14 UNK     1      34.123  -8.176  31.365  1.00  0.00     0.194 A 
HETATM   16  O5  UNK     1      34.577  -7.204  30.776  1.00  0.00    -0.287 OA
HETATM   17  C17 UNK     1      34.913  -9.407  31.546  1.00  0.00     0.049 A 
HETATM   18  C19 UNK     1      34.344 -10.485  32.224  1.00  0.00     0.089 A 
HETATM   19  C22 UNK     1      36.215  -9.499  31.045  1.00  0.00     0.025 A 
HETATM   20  O3  UNK     1      33.072 -10.451  32.736  1.00  0.00    -0.321 OA
HETATM   21  C24 UNK     1      35.075 -11.660  32.407  1.00  0.00     0.039 A 
HETATM   22  C16 UNK     1      32.348  -9.298  32.560  1.00  0.00     0.154 A 
HETATM   23  C26 UNK     1      36.375 -11.754  31.909  1.00  0.00     0.009 A 
HETATM   24  C25 UNK     1      36.943 -10.675  31.229  1.00  0.00    -0.061 A 
HETATM   25  C29 UNK     1      38.334 -10.781  30.701  1.00  0.00     0.048 C 
ENDBRANCH   6  14
BRANCH  10  26
HETATM   26  C12 UNK     1      31.232  -7.466  29.369  1.00  0.00     0.292 C 
HETATM   27  O4  UNK     1      31.415  -6.589  28.546  1.00  0.00    -0.259 OA
BRANCH  26  28
HETATM   28  O2  UNK     1      31.380  -8.804  29.216  1.00  0.00    -0.317 OA
BRANCH  28  29
HETATM   29  C21 UNK     1      30.706  -9.363  28.083  1.00  0.00     0.183 C 
BRANCH  29  30
HETATM   30  C23 UNK     1      29.896 -10.589  28.512  1.00  0.00     0.002 C 
HETATM   31  C27 UNK     1      28.406 -10.352  28.275  1.00  0.00     0.011 C 
HETATM   32  C28 UNK     1      30.151 -10.941  29.980  1.00  0.00     0.011 C 
ENDBRANCH  29  30
ENDBRANCH  28  29
ENDBRANCH  26  28
ENDBRANCH  10  26
BRANCH   3  33
HETATM   33  C11 UNK     1      29.904  -5.781  37.192  1.00  0.00    -0.013 A 
HETATM   34  S1  UNK     1      28.987  -6.868  38.141  1.00  0.00    -0.106 SA
HETATM   35  C20 UNK     1      28.743  -5.683  39.353  1.00  0.00     0.050 A 
HETATM   36  C18 UNK     1      29.349  -4.487  39.035  1.00  0.00     0.008 A 
HETATM   37  C15 UNK     1      30.023  -4.545  37.781  1.00  0.00     0.015 A 
ENDBRANCH   3  33
TORSDOF 6
ENDMDL
MODEL 10
REMARK VINA RESULT:      -7.5      4.506      8.133
REMARK  6 active torsions:
REMARK  status: ('A' for Active; 'I' for Inactive)
REMARK    1  A    between atoms: C12_19  and  O2_3 
REMARK    2  A    between atoms: C21_28  and  O2_3 
REMARK    3  A    between atoms: C1_8  and  C11_18 
REMARK    4  A    between atoms: C10_17  and  C4_11 
REMARK    5  A    between atoms: C12_19  and  C8_15 
REMARK    6  A    between atoms: C21_28  and  C23_30 
ROOT
HETATM    1  O1  UNK     1      29.816  -5.330  32.318  1.00  0.00    -0.293 OA
HETATM    2  N1  UNK     1      33.591  -8.173  31.984  1.00  0.00    -0.362 N 
HETATM    3  C1  UNK     1      30.138  -8.454  30.526  1.00  0.00     0.038 C 
HETATM    4  C2  UNK     1      31.703  -6.770  32.259  1.00  0.00     0.024 C 
HETATM    5  C3  UNK     1      31.668  -8.582  30.513  1.00  0.00     0.068 C 
HETATM    6  C4  UNK     1      32.382  -6.042  33.415  1.00  0.00     0.104 C 
HETATM    7  C5  UNK     1      32.312  -7.795  31.626  1.00  0.00     0.021 C 
HETATM    8  C6  UNK     1      29.729  -6.983  30.597  1.00  0.00     0.094 C 
HETATM    9  C7  UNK     1      30.363  -6.298  31.788  1.00  0.00     0.159 C 
HETATM   10  C8  UNK     1      33.837  -6.474  33.614  1.00  0.00     0.052 C 
HETATM   11  C9  UNK     1      34.368  -7.507  32.919  1.00  0.00     0.018 C 
HETATM   12  C13 UNK     1      35.784  -8.006  33.032  1.00  0.00     0.069 C 
HETATM   13  H7  UNK     1      34.018  -8.939  31.475  1.00  0.00     0.165 HD
ENDROOT
BRANCH   6  14
HETATM   14  C10 UNK     1      31.602  -6.241  34.687  1.00  0.00     0.029 A 
HETATM   15  C14 UNK     1      31.360  -5.065  35.561  1.00  0.00     0.194 A 
HETATM   16  O5  UNK     1      31.774  -3.948  35.280  1.00  0.00    -0.287 OA
HETATM   17  C17 UNK     1      30.591  -5.315  36.794  1.00  0.00     0.049 A 
HETATM   18  C19 UNK     1      30.145  -6.609  37.065  1.00  0.00     0.089 A 
HETATM   19  C22 UNK     1      30.310  -4.274  37.684  1.00  0.00     0.025 A 
HETATM   20  O3  UNK     1      30.391  -7.668  36.228  1.00  0.00    -0.321 OA
HETATM   21  C24 UNK     1      29.415  -6.869  38.225  1.00  0.00     0.039 A 
HETATM   22  C16 UNK     1      31.108  -7.420  35.084  1.00  0.00     0.154 A 
HETATM   23  C26 UNK     1      29.134  -5.831  39.114  1.00  0.00     0.009 A 
HETATM   24  C25 UNK     1      29.581  -4.537  38.843  1.00  0.00    -0.061 A 
HETATM   25  C29 UNK     1      29.275  -3.431  39.797  1.00  0.00     0.048 C 
ENDBRANCH   6  14
BRANCH  10  26
HETATM   26  C12 UNK     1      34.621  -5.704  34.594  1.00  0.00     0.292 C 
HETATM   27  O4  UNK     1      34.977  -4.556  34.411  1.00  0.00    -0.259 OA
BRANCH  26  28
HETATM   28  O2  UNK     1      34.847  -6.491  35.673  1.00  0.00    -0.317 OA
BRANCH  28  29
HETATM   29  C21 UNK     1      35.107  -5.789  36.893  1.00  0.00     0.183 C 
BRANCH  29  30
HETATM   30  C23 UNK     1      34.319  -6.427  38.040  1.00  0.00     0.002 C 
HETATM   31  C27 UNK     1      33.595  -7.681  37.554  1.00  0.00     0.011 C 
HETATM   32  C28 UNK     1      33.322  -5.440  38.649  1.00  0.00     0.011 C 
ENDBRANCH  29  30
ENDBRANCH  28  29
ENDBRANCH  26  28
ENDBRANCH  10  26
BRANCH   3  33
HETATM   33  C11 UNK     1      29.496  -9.172  29.348  1.00  0.00    -0.013 A 
HETATM   34  S1  UNK     1      30.474  -9.670  28.037  1.00  0.00    -0.106 SA
HETATM   35  C20 UNK     1      29.124 -10.332  27.217  1.00  0.00     0.050 A 
HETATM   36  C18 UNK     1      27.957 -10.173  27.931  1.00  0.00     0.008 A 
HETATM   37  C15 UNK     1      28.173  -9.500  29.168  1.00  0.00     0.015 A 
ENDBRANCH   3  33
TORSDOF 6
ENDMDL
