MODEL 1
REMARK VINA RESULT:      -7.8      0.000      0.000
REMARK  4 active torsions:
REMARK  status: ('A' for Active; 'I' for Inactive)
REMARK    1  A    between atoms: C15_21  and  O2_2 
REMARK    2  A    between atoms: C5_11  and  N1_4 
REMARK    3  A    between atoms: C7_13  and  N2_5 
REMARK    4  A    between atoms: C5_11  and  C6_12 
ROOT
HETATM    1  N3  UNK     1      17.691   2.187  28.035  1.00  0.00    -0.195 NA
HETATM    2  C7  UNK     1      19.079   2.020  30.258  1.00  0.00     0.395 C 
HETATM    3  C13 UNK     1      18.303   2.116  29.017  1.00  0.00     0.089 C 
ENDROOT
BRANCH   2   4
HETATM    4  N2  UNK     1      19.122   3.299  30.966  1.00  0.00     0.104 N 
HETATM    5  C3  UNK     1      19.033   4.420  30.023  1.00  0.00     0.303 C 
HETATM    6  C1  UNK     1      19.074   5.761  30.763  1.00  0.00     0.303 C 
HETATM    7  N1  UNK     1      17.999   5.841  31.760  1.00  0.00     0.096 N 
HETATM    8  C2  UNK     1      18.090   4.720  32.703  1.00  0.00     0.303 C 
HETATM    9  C4  UNK     1      18.047   3.380  31.962  1.00  0.00     0.303 C 
BRANCH   7  10
HETATM   10  C5  UNK     1      18.041   7.120  32.466  1.00  0.00     0.312 C 
BRANCH  10  11
HETATM   11  C6  UNK     1      16.684   7.704  32.653  1.00  0.00    -0.011 A 
HETATM   12  C8  UNK     1      16.535   9.042  33.241  1.00  0.00     0.009 A 
HETATM   13  C10 UNK     1      15.251   9.562  33.402  1.00  0.00     0.090 A 
HETATM   14  C11 UNK     1      17.614   9.835  33.651  1.00  0.00     0.051 A 
HETATM   15  O1  UNK     1      14.112   8.827  33.014  1.00  0.00    -0.275 OA
HETATM   16  C14 UNK     1      15.021  10.825  33.952  1.00  0.00     0.041 A 
HETATM   17  C12 UNK     1      14.222   7.562  32.457  1.00  0.00     0.288 A 
HETATM   18  O3  UNK     1      13.238   6.914  32.116  1.00  0.00    -0.260 OA
HETATM   19  C9  UNK     1      15.584   7.028  32.293  1.00  0.00     0.092 A 
HETATM   20  C16 UNK     1      16.104  11.598  34.353  1.00  0.00     0.039 A 
HETATM   21  C15 UNK     1      17.400  11.104  34.204  1.00  0.00     0.069 A 
BRANCH  21  22
HETATM   22  O2  UNK     1      18.463  11.859  34.596  1.00  0.00    -0.356 OA
HETATM   23  C17 UNK     1      18.278  13.274  34.621  1.00  0.00     0.210 C 
ENDBRANCH  21  22
ENDBRANCH  10  11
ENDBRANCH   7  10
ENDBRANCH   2   4
TORSDOF 4
ENDMDL
MODEL 2
REMARK VINA RESULT:      -7.7      9.564     12.664
REMARK  4 active torsions:
REMARK  status: ('A' for Active; 'I' for Inactive)
REMARK    1  A    between atoms: C15_21  and  O2_2 
REMARK    2  A    between atoms: C5_11  and  N1_4 
REMARK    3  A    between atoms: C7_13  and  N2_5 
REMARK    4  A    between atoms: C5_11  and  C6_12 
ROOT
HETATM    1  N3  UNK     1      20.486 -11.014  37.475  1.00  0.00    -0.195 NA
HETATM    2  C7  UNK     1      19.047  -8.862  37.918  1.00  0.00     0.395 C 
HETATM    3  C13 UNK     1      19.853 -10.062  37.670  1.00  0.00     0.089 C 
ENDROOT
BRANCH   2   4
HETATM    4  N2  UNK     1      19.737  -7.650  37.478  1.00  0.00     0.104 N 
HETATM    5  C3  UNK     1      19.015  -7.015  36.369  1.00  0.00     0.303 C 
HETATM    6  C1  UNK     1      19.733  -5.742  35.907  1.00  0.00     0.303 C 
HETATM    7  N1  UNK     1      19.896  -4.800  37.021  1.00  0.00     0.096 N 
HETATM    8  C2  UNK     1      20.619  -5.437  38.129  1.00  0.00     0.303 C 
HETATM    9  C4  UNK     1      19.900  -6.708  38.591  1.00  0.00     0.303 C 
BRANCH   7  10
HETATM   10  C5  UNK     1      20.583  -3.588  36.580  1.00  0.00     0.312 C 
BRANCH  10  11
HETATM   11  C6  UNK     1      19.632  -2.491  36.250  1.00  0.00    -0.011 A 
HETATM   12  C8  UNK     1      19.515  -2.013  34.866  1.00  0.00     0.009 A 
HETATM   13  C10 UNK     1      18.614  -0.984  34.588  1.00  0.00     0.090 A 
HETATM   14  C11 UNK     1      20.258  -2.531  33.798  1.00  0.00     0.051 A 
HETATM   15  O1  UNK     1      17.827  -0.409  35.607  1.00  0.00    -0.275 OA
HETATM   16  C14 UNK     1      18.441  -0.471  33.301  1.00  0.00     0.041 A 
HETATM   17  C12 UNK     1      17.916  -0.840  36.922  1.00  0.00     0.288 A 
HETATM   18  O3  UNK     1      17.237  -0.347  37.815  1.00  0.00    -0.260 OA
HETATM   19  C9  UNK     1      18.871  -1.926  37.198  1.00  0.00     0.092 A 
HETATM   20  C16 UNK     1      19.188  -0.998  32.254  1.00  0.00     0.039 A 
HETATM   21  C15 UNK     1      20.097  -2.027  32.502  1.00  0.00     0.069 A 
BRANCH  21  22
HETATM   22  O2  UNK     1      20.829  -2.545  31.478  1.00  0.00    -0.356 OA
HETATM   23  C17 UNK     1      20.428  -2.199  30.154  1.00  0.00     0.210 C 
ENDBRANCH  21  22
ENDBRANCH  10  11
ENDBRANCH   7  10
ENDBRANCH   2   4
TORSDOF 4
ENDMDL
MODEL 3
REMARK VINA RESULT:      -7.6     10.872     14.778
REMARK  4 active torsions:
REMARK  status: ('A' for Active; 'I' for Inactive)
REMARK    1  A    between atoms: C15_21  and  O2_2 
REMARK    2  A    between atoms: C5_11  and  N1_4 
REMARK    3  A    between atoms: C7_13  and  N2_5 
REMARK    4  A    between atoms: C5_11  and  C6_12 
ROOT
HETATM    1  N3  UNK     1      15.847   0.119  34.626  1.00  0.00    -0.195 NA
HETATM    2  C7  UNK     1      18.307   0.732  35.313  1.00  0.00     0.395 C 
HETATM    3  C13 UNK     1      16.934   0.387  34.930  1.00  0.00     0.089 C 
ENDROOT
BRANCH   2   4
HETATM    4  N2  UNK     1      19.006  -0.412  35.896  1.00  0.00     0.104 N 
HETATM    5  C3  UNK     1      18.221  -1.001  36.987  1.00  0.00     0.303 C 
HETATM    6  C1  UNK     1      18.951  -2.203  37.598  1.00  0.00     0.303 C 
HETATM    7  N1  UNK     1      19.244  -3.212  36.574  1.00  0.00     0.096 N 
HETATM    8  C2  UNK     1      20.030  -2.622  35.483  1.00  0.00     0.303 C 
HETATM    9  C4  UNK     1      19.300  -1.422  34.872  1.00  0.00     0.303 C 
BRANCH   7  10
HETATM   10  C5  UNK     1      19.941  -4.356  37.157  1.00  0.00     0.312 C 
BRANCH  10  11
HETATM   11  C6  UNK     1      19.339  -5.653  36.742  1.00  0.00    -0.011 A 
HETATM   12  C8  UNK     1      20.139  -6.884  36.794  1.00  0.00     0.009 A 
HETATM   13  C10 UNK     1      19.546  -8.084  36.399  1.00  0.00     0.090 A 
HETATM   14  C11 UNK     1      21.473  -6.927  37.220  1.00  0.00     0.051 A 
HETATM   15  O1  UNK     1      18.208  -8.126  35.959  1.00  0.00    -0.275 OA
HETATM   16  C14 UNK     1      20.235  -9.298  36.418  1.00  0.00     0.041 A 
HETATM   17  C12 UNK     1      17.429  -6.980  35.900  1.00  0.00     0.288 A 
HETATM   18  O3  UNK     1      16.264  -7.005  35.518  1.00  0.00    -0.260 OA
HETATM   19  C9  UNK     1      18.068  -5.723  36.319  1.00  0.00     0.092 A 
HETATM   20  C16 UNK     1      21.559  -9.321  36.843  1.00  0.00     0.039 A 
HETATM   21  C15 UNK     1      22.178  -8.137  37.244  1.00  0.00     0.069 A 
BRANCH  21  22
HETATM   22  O2  UNK     1      23.473  -8.157  37.661  1.00  0.00    -0.356 OA
HETATM   23  C17 UNK     1      23.727  -7.755  39.006  1.00  0.00     0.210 C 
ENDBRANCH  21  22
ENDBRANCH  10  11
ENDBRANCH   7  10
ENDBRANCH   2   4
TORSDOF 4
ENDMDL
MODEL 4
REMARK VINA RESULT:      -7.5     18.844     20.719
REMARK  4 active torsions:
REMARK  status: ('A' for Active; 'I' for Inactive)
REMARK    1  A    between atoms: C15_21  and  O2_2 
REMARK    2  A    between atoms: C5_11  and  N1_4 
REMARK    3  A    between atoms: C7_13  and  N2_5 
REMARK    4  A    between atoms: C5_11  and  C6_12 
ROOT
HETATM    1  N3  UNK     1      37.160  -8.418  34.011  1.00  0.00    -0.195 NA
HETATM    2  C7  UNK     1      36.091  -6.383  35.282  1.00  0.00     0.395 C 
HETATM    3  C13 UNK     1      36.686  -7.520  34.571  1.00  0.00     0.089 C 
ENDROOT
BRANCH   2   4
HETATM    4  N2  UNK     1      34.644  -6.320  35.082  1.00  0.00     0.104 N 
HETATM    5  C3  UNK     1      33.953  -7.246  35.988  1.00  0.00     0.303 C 
HETATM    6  C1  UNK     1      32.435  -7.179  35.783  1.00  0.00     0.303 C 
HETATM    7  N1  UNK     1      31.942  -5.809  35.973  1.00  0.00     0.096 N 
HETATM    8  C2  UNK     1      32.633  -4.885  35.066  1.00  0.00     0.303 C 
HETATM    9  C4  UNK     1      34.150  -4.951  35.273  1.00  0.00     0.303 C 
BRANCH   7  10
HETATM   10  C5  UNK     1      30.495  -5.747  35.775  1.00  0.00     0.312 C 
BRANCH  10  11
HETATM   11  C6  UNK     1      29.756  -5.650  37.064  1.00  0.00    -0.011 A 
HETATM   12  C8  UNK     1      28.731  -6.649  37.398  1.00  0.00     0.009 A 
HETATM   13  C10 UNK     1      28.056  -6.532  38.613  1.00  0.00     0.090 A 
HETATM   14  C11 UNK     1      28.389  -7.721  36.565  1.00  0.00     0.051 A 
HETATM   15  O1  UNK     1      28.342  -5.482  39.509  1.00  0.00    -0.275 OA
HETATM   16  C14 UNK     1      27.068  -7.437  39.008  1.00  0.00     0.041 A 
HETATM   17  C12 UNK     1      29.304  -4.526  39.220  1.00  0.00     0.288 A 
HETATM   18  O3  UNK     1      29.560  -3.608  39.992  1.00  0.00    -0.260 OA
HETATM   19  C9  UNK     1      30.007  -4.663  37.935  1.00  0.00     0.092 A 
HETATM   20  C16 UNK     1      26.742  -8.495  38.167  1.00  0.00     0.039 A 
HETATM   21  C15 UNK     1      27.401  -8.637  36.946  1.00  0.00     0.069 A 
BRANCH  21  22
HETATM   22  O2  UNK     1      27.083  -9.673  36.121  1.00  0.00    -0.356 OA
HETATM   23  C17 UNK     1      26.076 -10.576  36.573  1.00  0.00     0.210 C 
ENDBRANCH  21  22
ENDBRANCH  10  11
ENDBRANCH   7  10
ENDBRANCH   2   4
TORSDOF 4
ENDMDL
MODEL 5
REMARK VINA RESULT:      -7.5      4.776      6.885
REMARK  4 active torsions:
REMARK  status: ('A' for Active; 'I' for Inactive)
REMARK    1  A    between atoms: C15_21  and  O2_2 
REMARK    2  A    between atoms: C5_11  and  N1_4 
REMARK    3  A    between atoms: C7_13  and  N2_5 
REMARK    4  A    between atoms: C5_11  and  C6_12 
ROOT
HETATM    1  N3  UNK     1      20.489  -3.304  36.278  1.00  0.00    -0.195 NA
HETATM    2  C7  UNK     1      18.090  -2.377  36.811  1.00  0.00     0.395 C 
HETATM    3  C13 UNK     1      19.430  -2.893  36.512  1.00  0.00     0.089 C 
ENDROOT
BRANCH   2   4
HETATM    4  N2  UNK     1      17.928  -0.999  36.351  1.00  0.00     0.104 N 
HETATM    5  C3  UNK     1      19.221  -0.425  35.960  1.00  0.00     0.303 C 
HETATM    6  C1  UNK     1      19.054   1.019  35.474  1.00  0.00     0.303 C 
HETATM    7  N1  UNK     1      18.102   1.087  34.358  1.00  0.00     0.096 N 
HETATM    8  C2  UNK     1      16.810   0.515  34.751  1.00  0.00     0.303 C 
HETATM    9  C4  UNK     1      16.977  -0.929  35.235  1.00  0.00     0.303 C 
BRANCH   7  10
HETATM   10  C5  UNK     1      17.943   2.465  33.897  1.00  0.00     0.312 C 
BRANCH  10  11
HETATM   11  C6  UNK     1      18.324   2.627  32.466  1.00  0.00    -0.011 A 
HETATM   12  C8  UNK     1      18.426   3.971  31.882  1.00  0.00     0.009 A 
HETATM   13  C10 UNK     1      18.786   4.090  30.539  1.00  0.00     0.090 A 
HETATM   14  C11 UNK     1      18.183   5.151  32.597  1.00  0.00     0.051 A 
HETATM   15  O1  UNK     1      19.049   2.952  29.751  1.00  0.00    -0.275 OA
HETATM   16  C14 UNK     1      18.906   5.329  29.906  1.00  0.00     0.041 A 
HETATM   17  C12 UNK     1      18.961   1.672  30.276  1.00  0.00     0.288 A 
HETATM   18  O3  UNK     1      19.187   0.674  29.598  1.00  0.00    -0.260 OA
HETATM   19  C9  UNK     1      18.580   1.562  31.693  1.00  0.00     0.092 A 
HETATM   20  C16 UNK     1      18.660   6.489  30.633  1.00  0.00     0.039 A 
HETATM   21  C15 UNK     1      18.299   6.401  31.976  1.00  0.00     0.069 A 
BRANCH  21  22
HETATM   22  O2  UNK     1      18.058   7.535  32.689  1.00  0.00    -0.356 OA
HETATM   23  C17 UNK     1      17.613   7.373  34.035  1.00  0.00     0.210 C 
ENDBRANCH  21  22
ENDBRANCH  10  11
ENDBRANCH   7  10
ENDBRANCH   2   4
TORSDOF 4
ENDMDL
MODEL 6
REMARK VINA RESULT:      -7.3     22.525     24.010
REMARK  4 active torsions:
REMARK  status: ('A' for Active; 'I' for Inactive)
REMARK    1  A    between atoms: C15_21  and  O2_2 
REMARK    2  A    between atoms: C5_11  and  N1_4 
REMARK    3  A    between atoms: C7_13  and  N2_5 
REMARK    4  A    between atoms: C5_11  and  C6_12 
ROOT
HETATM    1  N3  UNK     1      17.751   7.682  10.282  1.00  0.00    -0.195 NA
HETATM    2  C7  UNK     1      15.947   5.838   9.792  1.00  0.00     0.395 C 
HETATM    3  C13 UNK     1      16.953   6.870  10.064  1.00  0.00     0.089 C 
ENDROOT
BRANCH   2   4
HETATM    4  N2  UNK     1      14.824   6.371   9.022  1.00  0.00     0.104 N 
HETATM    5  C3  UNK     1      13.840   5.319   8.740  1.00  0.00     0.303 C 
HETATM    6  C1  UNK     1      12.660   5.876   7.936  1.00  0.00     0.303 C 
HETATM    7  N1  UNK     1      12.027   6.996   8.644  1.00  0.00     0.096 N 
HETATM    8  C2  UNK     1      13.011   8.047   8.924  1.00  0.00     0.303 C 
HETATM    9  C4  UNK     1      14.190   7.490   9.729  1.00  0.00     0.303 C 
BRANCH   7  10
HETATM   10  C5  UNK     1      10.903   7.526   7.875  1.00  0.00     0.312 C 
BRANCH  10  11
HETATM   11  C6  UNK     1       9.591   7.064   8.405  1.00  0.00    -0.011 A 
HETATM   12  C8  UNK     1       8.849   7.900   9.358  1.00  0.00     0.009 A 
HETATM   13  C10 UNK     1       7.621   7.440   9.836  1.00  0.00     0.090 A 
HETATM   14  C11 UNK     1       9.301   9.143   9.819  1.00  0.00     0.051 A 
HETATM   15  O1  UNK     1       7.094   6.200   9.420  1.00  0.00    -0.275 OA
HETATM   16  C14 UNK     1       6.852   8.172  10.743  1.00  0.00     0.041 A 
HETATM   17  C12 UNK     1       7.773   5.391   8.521  1.00  0.00     0.288 A 
HETATM   18  O3  UNK     1       7.324   4.310   8.153  1.00  0.00    -0.260 OA
HETATM   19  C9  UNK     1       9.066   5.890   8.026  1.00  0.00     0.092 A 
HETATM   20  C16 UNK     1       7.318   9.403  11.190  1.00  0.00     0.039 A 
HETATM   21  C15 UNK     1       8.542   9.889  10.729  1.00  0.00     0.069 A 
BRANCH  21  22
HETATM   22  O2  UNK     1       9.000  11.094  11.165  1.00  0.00    -0.356 OA
HETATM   23  C17 UNK     1       9.662  11.920  10.209  1.00  0.00     0.210 C 
ENDBRANCH  21  22
ENDBRANCH  10  11
ENDBRANCH   7  10
ENDBRANCH   2   4
TORSDOF 4
ENDMDL
MODEL 7
REMARK VINA RESULT:      -7.1     16.179     19.828
REMARK  4 active torsions:
REMARK  status: ('A' for Active; 'I' for Inactive)
REMARK    1  A    between atoms: C15_21  and  O2_2 
REMARK    2  A    between atoms: C5_11  and  N1_4 
REMARK    3  A    between atoms: C7_13  and  N2_5 
REMARK    4  A    between atoms: C5_11  and  C6_12 
ROOT
HETATM    1  N3  UNK     1      32.648  -7.849  38.164  1.00  0.00    -0.195 NA
HETATM    2  C7  UNK     1      30.826  -9.725  38.406  1.00  0.00     0.395 C 
HETATM    3  C13 UNK     1      31.842  -8.676  38.271  1.00  0.00     0.089 C 
ENDROOT
BRANCH   2   4
HETATM    4  N2  UNK     1      29.473  -9.183  38.290  1.00  0.00     0.104 N 
HETATM    5  C3  UNK     1      29.034  -9.175  36.890  1.00  0.00     0.303 C 
HETATM    6  C1  UNK     1      27.614  -8.610  36.766  1.00  0.00     0.303 C 
HETATM    7  N1  UNK     1      26.674  -9.374  37.595  1.00  0.00     0.096 N 
HETATM    8  C2  UNK     1      27.114  -9.380  38.995  1.00  0.00     0.303 C 
HETATM    9  C4  UNK     1      28.532  -9.946  39.119  1.00  0.00     0.303 C 
BRANCH   7  10
HETATM   10  C5  UNK     1      25.321  -8.833  37.477  1.00  0.00     0.312 C 
BRANCH  10  11
HETATM   11  C6  UNK     1      24.392  -9.784  36.807  1.00  0.00    -0.011 A 
HETATM   12  C8  UNK     1      22.953  -9.492  36.757  1.00  0.00     0.009 A 
HETATM   13  C10 UNK     1      22.108 -10.402  36.121  1.00  0.00     0.090 A 
HETATM   14  C11 UNK     1      22.373  -8.345  37.313  1.00  0.00     0.051 A 
HETATM   15  O1  UNK     1      22.613 -11.581  35.535  1.00  0.00    -0.275 OA
HETATM   16  C14 UNK     1      20.729 -10.201  36.029  1.00  0.00     0.041 A 
HETATM   17  C12 UNK     1      23.967 -11.882  35.566  1.00  0.00     0.288 A 
HETATM   18  O3  UNK     1      24.417 -12.904  35.060  1.00  0.00    -0.260 OA
HETATM   19  C9  UNK     1      24.845 -10.912  36.241  1.00  0.00     0.092 A 
HETATM   20  C16 UNK     1      20.171  -9.057  36.588  1.00  0.00     0.039 A 
HETATM   21  C15 UNK     1      20.991  -8.130  37.230  1.00  0.00     0.069 A 
BRANCH  21  22
HETATM   22  O2  UNK     1      20.447  -7.008  37.777  1.00  0.00    -0.356 OA
HETATM   23  C17 UNK     1      20.943  -5.754  37.312  1.00  0.00     0.210 C 
ENDBRANCH  21  22
ENDBRANCH  10  11
ENDBRANCH   7  10
ENDBRANCH   2   4
TORSDOF 4
ENDMDL
MODEL 8
REMARK VINA RESULT:      -7.1      2.794      4.750
REMARK  4 active torsions:
REMARK  status: ('A' for Active; 'I' for Inactive)
REMARK    1  A    between atoms: C15_21  and  O2_2 
REMARK    2  A    between atoms: C5_11  and  N1_4 
REMARK    3  A    between atoms: C7_13  and  N2_5 
REMARK    4  A    between atoms: C5_11  and  C6_12 
ROOT
HETATM    1  N3  UNK     1      20.586  -2.307  31.365  1.00  0.00    -0.195 NA
HETATM    2  C7  UNK     1      19.866  -0.699  29.417  1.00  0.00     0.395 C 
HETATM    3  C13 UNK     1      20.267  -1.595  30.507  1.00  0.00     0.089 C 
ENDROOT
BRANCH   2   4
HETATM    4  N2  UNK     1      19.067   0.422  29.909  1.00  0.00     0.104 N 
HETATM    5  C3  UNK     1      19.518   0.838  31.242  1.00  0.00     0.303 C 
HETATM    6  C1  UNK     1      18.684   2.016  31.759  1.00  0.00     0.303 C 
HETATM    7  N1  UNK     1      18.739   3.145  30.822  1.00  0.00     0.096 N 
HETATM    8  C2  UNK     1      18.286   2.728  29.490  1.00  0.00     0.303 C 
HETATM    9  C4  UNK     1      19.121   1.552  28.973  1.00  0.00     0.303 C 
BRANCH   7  10
HETATM   10  C5  UNK     1      17.941   4.266  31.315  1.00  0.00     0.312 C 
BRANCH  10  11
HETATM   11  C6  UNK     1      18.774   5.282  32.017  1.00  0.00    -0.011 A 
HETATM   12  C8  UNK     1      18.134   6.291  32.872  1.00  0.00     0.009 A 
HETATM   13  C10 UNK     1      18.941   7.229  33.517  1.00  0.00     0.090 A 
HETATM   14  C11 UNK     1      16.752   6.368  33.083  1.00  0.00     0.051 A 
HETATM   15  O1  UNK     1      20.342   7.218  33.359  1.00  0.00    -0.275 OA
HETATM   16  C14 UNK     1      18.414   8.221  34.348  1.00  0.00     0.041 A 
HETATM   17  C12 UNK     1      20.972   6.278  32.558  1.00  0.00     0.288 A 
HETATM   18  O3  UNK     1      22.190   6.260  32.413  1.00  0.00    -0.260 OA
HETATM   19  C9  UNK     1      20.108   5.296  31.885  1.00  0.00     0.092 A 
HETATM   20  C16 UNK     1      17.039   8.282  34.544  1.00  0.00     0.039 A 
HETATM   21  C15 UNK     1      16.208   7.357  33.912  1.00  0.00     0.069 A 
BRANCH  21  22
HETATM   22  O2  UNK     1      14.861   7.415  34.103  1.00  0.00    -0.356 OA
HETATM   23  C17 UNK     1      14.170   8.517  33.518  1.00  0.00     0.210 C 
ENDBRANCH  21  22
ENDBRANCH  10  11
ENDBRANCH   7  10
ENDBRANCH   2   4
TORSDOF 4
ENDMDL
MODEL 9
REMARK VINA RESULT:      -7.1     18.685     19.691
REMARK  4 active torsions:
REMARK  status: ('A' for Active; 'I' for Inactive)
REMARK    1  A    between atoms: C15_21  and  O2_2 
REMARK    2  A    between atoms: C5_11  and  N1_4 
REMARK    3  A    between atoms: C7_13  and  N2_5 
REMARK    4  A    between atoms: C5_11  and  C6_12 
ROOT
HETATM    1  N3  UNK     1      30.658  -9.863  27.522  1.00  0.00    -0.195 NA
HETATM    2  C7  UNK     1      31.212  -7.618  28.768  1.00  0.00     0.395 C 
HETATM    3  C13 UNK     1      30.901  -8.873  28.074  1.00  0.00     0.089 C 
ENDROOT
BRANCH   2   4
HETATM    4  N2  UNK     1      30.656  -7.599  30.120  1.00  0.00     0.104 N 
HETATM    5  C3  UNK     1      31.598  -8.188  31.079  1.00  0.00     0.303 C 
HETATM    6  C1  UNK     1      31.020  -8.166  32.498  1.00  0.00     0.303 C 
HETATM    7  N1  UNK     1      30.667  -6.798  32.898  1.00  0.00     0.096 N 
HETATM    8  C2  UNK     1      29.724  -6.211  31.939  1.00  0.00     0.303 C 
HETATM    9  C4  UNK     1      30.304  -6.232  30.521  1.00  0.00     0.303 C 
BRANCH   7  10
HETATM   10  C5  UNK     1      30.114  -6.779  34.250  1.00  0.00     0.312 C 
BRANCH  10  11
HETATM   11  C6  UNK     1      30.837  -5.829  35.140  1.00  0.00    -0.011 A 
HETATM   12  C8  UNK     1      30.313  -5.537  36.481  1.00  0.00     0.009 A 
HETATM   13  C10 UNK     1      31.014  -4.643  37.292  1.00  0.00     0.090 A 
HETATM   14  C11 UNK     1      29.145  -6.108  37.002  1.00  0.00     0.051 A 
HETATM   15  O1  UNK     1      32.200  -4.027  36.844  1.00  0.00    -0.275 OA
HETATM   16  C14 UNK     1      30.586  -4.311  38.579  1.00  0.00     0.041 A 
HETATM   17  C12 UNK     1      32.717  -4.283  35.583  1.00  0.00     0.288 A 
HETATM   18  O3  UNK     1      33.747  -3.752  35.183  1.00  0.00    -0.260 OA
HETATM   19  C9  UNK     1      31.967  -5.228  34.740  1.00  0.00     0.092 A 
HETATM   20  C16 UNK     1      29.423  -4.887  39.078  1.00  0.00     0.039 A 
HETATM   21  C15 UNK     1      28.703  -5.785  38.290  1.00  0.00     0.069 A 
BRANCH  21  22
HETATM   22  O2  UNK     1      27.564  -6.350  38.777  1.00  0.00    -0.356 OA
HETATM   23  C17 UNK     1      27.595  -7.754  39.029  1.00  0.00     0.210 C 
ENDBRANCH  21  22
ENDBRANCH  10  11
ENDBRANCH   7  10
ENDBRANCH   2   4
TORSDOF 4
ENDMDL
MODEL 10
REMARK VINA RESULT:      -7.1      9.308     11.976
REMARK  4 active torsions:
REMARK  status: ('A' for Active; 'I' for Inactive)
REMARK    1  A    between atoms: C15_21  and  O2_2 
REMARK    2  A    between atoms: C5_11  and  N1_4 
REMARK    3  A    between atoms: C7_13  and  N2_5 
REMARK    4  A    between atoms: C5_11  and  C6_12 
ROOT
HETATM    1  N3  UNK     1      22.611  -9.102  35.924  1.00  0.00    -0.195 NA
HETATM    2  C7  UNK     1      20.814  -8.672  37.790  1.00  0.00     0.395 C 
HETATM    3  C13 UNK     1      21.818  -8.909  36.747  1.00  0.00     0.089 C 
ENDROOT
BRANCH   2   4
HETATM    4  N2  UNK     1      20.456  -7.257  37.881  1.00  0.00     0.104 N 
HETATM    5  C3  UNK     1      21.655  -6.413  37.833  1.00  0.00     0.303 C 
HETATM    6  C1  UNK     1      21.283  -4.929  37.924  1.00  0.00     0.303 C 
HETATM    7  N1  UNK     1      20.349  -4.557  36.853  1.00  0.00     0.096 N 
HETATM    8  C2  UNK     1      19.150  -5.402  36.903  1.00  0.00     0.303 C 
HETATM    9  C4  UNK     1      19.523  -6.885  36.810  1.00  0.00     0.303 C 
BRANCH   7  10
HETATM   10  C5  UNK     1      19.994  -3.143  36.943  1.00  0.00     0.312 C 
BRANCH  10  11
HETATM   11  C6  UNK     1      19.842  -2.515  35.601  1.00  0.00    -0.011 A 
HETATM   12  C8  UNK     1      18.972  -1.343  35.434  1.00  0.00     0.009 A 
HETATM   13  C10 UNK     1      18.851  -0.777  34.164  1.00  0.00     0.090 A 
HETATM   14  C11 UNK     1      18.251  -0.754  36.479  1.00  0.00     0.051 A 
HETATM   15  O1  UNK     1      19.545  -1.310  33.058  1.00  0.00    -0.275 OA
HETATM   16  C14 UNK     1      18.046   0.337  33.918  1.00  0.00     0.041 A 
HETATM   17  C12 UNK     1      20.373  -2.414  33.188  1.00  0.00     0.288 A 
HETATM   18  O3  UNK     1      20.980  -2.886  32.232  1.00  0.00    -0.260 OA
HETATM   19  C9  UNK     1      20.490  -3.000  34.533  1.00  0.00     0.092 A 
HETATM   20  C16 UNK     1      17.337   0.908  34.969  1.00  0.00     0.039 A 
HETATM   21  C15 UNK     1      17.439   0.364  36.249  1.00  0.00     0.069 A 
BRANCH  21  22
HETATM   22  O2  UNK     1      16.746   0.922  37.279  1.00  0.00    -0.356 OA
HETATM   23  C17 UNK     1      17.505   1.379  38.397  1.00  0.00     0.210 C 
ENDBRANCH  21  22
ENDBRANCH  10  11
ENDBRANCH   7  10
ENDBRANCH   2   4
TORSDOF 4
ENDMDL
