MODEL 1
REMARK VINA RESULT:      -8.7      0.000      0.000
REMARK  1 active torsions:
REMARK  status: ('A' for Active; 'I' for Inactive)
REMARK       I    between atoms: C6_12  and  N1_6 
REMARK    1  A    between atoms: C6_12  and  C9_15 
ROOT
HETATM    1 Cl1  UNK     1      18.668   1.674  30.048  1.00  0.00    -0.081 Cl
HETATM    2 Cl2  UNK     1      18.311   0.245  35.229  1.00  0.00    -0.084 Cl
HETATM    3  O2  UNK     1      18.411   4.439  31.081  1.00  0.00    -0.272 OA
HETATM    4  O3  UNK     1      18.329   6.643  30.487  1.00  0.00    -0.259 OA
HETATM    5  C9  UNK     1      18.161   6.159  32.801  1.00  0.00     0.108 A 
HETATM    6  C12 UNK     1      18.134   5.232  33.764  1.00  0.00     0.037 A 
HETATM    7  C13 UNK     1      18.248   3.821  33.428  1.00  0.00     0.002 A 
HETATM    8  C14 UNK     1      18.304   5.796  31.373  1.00  0.00     0.304 A 
HETATM    9  C15 UNK     1      18.384   3.457  32.092  1.00  0.00     0.111 A 
HETATM   10  C16 UNK     1      18.226   2.819  34.401  1.00  0.00     0.038 A 
HETATM   11  C17 UNK     1      18.499   2.125  31.703  1.00  0.00     0.070 A 
HETATM   12  C18 UNK     1      18.339   1.477  34.026  1.00  0.00     0.036 A 
HETATM   13  C19 UNK     1      18.476   1.131  32.680  1.00  0.00     0.050 A 
ENDROOT
BRANCH   5  14
HETATM   14  C6  UNK     1      18.038   7.565  33.243  1.00  0.00     0.264 C 
HETATM   15  O1  UNK     1      19.082   8.203  33.380  1.00  0.00    -0.267 OA
HETATM   16  N1  UNK     1      16.755   8.032  33.482  1.00  0.00    -0.308 N 
HETATM   17  C1  UNK     1      15.462   7.294  33.329  1.00  0.00     0.093 C 
HETATM   18  C4  UNK     1      16.446   9.344  33.922  1.00  0.00     0.044 A 
HETATM   19  C2  UNK     1      14.402   8.118  34.088  1.00  0.00     0.066 C 
HETATM   20  C5  UNK     1      15.080   7.157  31.851  1.00  0.00     0.033 C 
HETATM   21  C3  UNK     1      15.087   9.439  34.235  1.00  0.00    -0.029 A 
HETATM   22  C7  UNK     1      14.530  10.623  34.693  1.00  0.00     0.009 A 
HETATM   23  C10 UNK     1      15.358  11.736  34.830  1.00  0.00     0.001 A 
HETATM   24  C11 UNK     1      16.722  11.646  34.520  1.00  0.00     0.002 A 
HETATM   25  C8  UNK     1      17.277  10.445  34.066  1.00  0.00     0.030 A 
ENDBRANCH   5  14
TORSDOF 1
ENDMDL
MODEL 2
REMARK VINA RESULT:      -8.6      8.375     13.017
REMARK  1 active torsions:
REMARK  status: ('A' for Active; 'I' for Inactive)
REMARK       I    between atoms: C6_12  and  N1_6 
REMARK    1  A    between atoms: C6_12  and  C9_15 
ROOT
HETATM    1 Cl1  UNK     1      17.550   0.742  34.191  1.00  0.00    -0.081 Cl
HETATM    2 Cl2  UNK     1      20.347  -1.588  30.222  1.00  0.00    -0.084 Cl
HETATM    3  O2  UNK     1      18.698  -1.402  35.883  1.00  0.00    -0.272 OA
HETATM    4  O3  UNK     1      18.774  -2.258  38.000  1.00  0.00    -0.259 OA
HETATM    5  C9  UNK     1      20.053  -3.384  36.352  1.00  0.00     0.108 A 
HETATM    6  C12 UNK     1      20.445  -3.453  35.075  1.00  0.00     0.037 A 
HETATM    7  C13 UNK     1      19.971  -2.474  34.108  1.00  0.00     0.002 A 
HETATM    8  C14 UNK     1      19.135  -2.325  36.830  1.00  0.00     0.304 A 
HETATM    9  C15 UNK     1      19.107  -1.470  34.536  1.00  0.00     0.111 A 
HETATM   10  C16 UNK     1      20.355  -2.507  32.766  1.00  0.00     0.038 A 
HETATM   11  C17 UNK     1      18.619  -0.501  33.662  1.00  0.00     0.070 A 
HETATM   12  C18 UNK     1      19.871  -1.542  31.876  1.00  0.00     0.036 A 
HETATM   13  C19 UNK     1      19.006  -0.541  32.324  1.00  0.00     0.050 A 
ENDROOT
BRANCH   5  14
HETATM   14  C6  UNK     1      20.588  -4.423  37.257  1.00  0.00     0.264 C 
HETATM   15  O1  UNK     1      21.470  -4.081  38.044  1.00  0.00    -0.267 OA
HETATM   16  N1  UNK     1      20.058  -5.697  37.122  1.00  0.00    -0.308 N 
HETATM   17  C1  UNK     1      18.989  -6.156  36.182  1.00  0.00     0.093 C 
HETATM   18  C4  UNK     1      20.457  -6.819  37.893  1.00  0.00     0.044 A 
HETATM   19  C2  UNK     1      19.062  -7.697  36.163  1.00  0.00     0.066 C 
HETATM   20  C5  UNK     1      17.607  -5.689  36.652  1.00  0.00     0.033 C 
HETATM   21  C3  UNK     1      19.863  -7.981  37.393  1.00  0.00    -0.029 A 
HETATM   22  C7  UNK     1      20.095  -9.220  37.971  1.00  0.00     0.009 A 
HETATM   23  C10 UNK     1      20.936  -9.286  39.082  1.00  0.00     0.001 A 
HETATM   24  C11 UNK     1      21.536  -8.124  39.585  1.00  0.00     0.002 A 
HETATM   25  C8  UNK     1      21.304  -6.880  38.990  1.00  0.00     0.030 A 
ENDBRANCH   5  14
TORSDOF 1
ENDMDL
MODEL 3
REMARK VINA RESULT:      -8.3      8.176     13.113
REMARK  1 active torsions:
REMARK  status: ('A' for Active; 'I' for Inactive)
REMARK       I    between atoms: C6_12  and  N1_6 
REMARK    1  A    between atoms: C6_12  and  C9_15 
ROOT
HETATM    1 Cl1  UNK     1      18.643   0.065  32.909  1.00  0.00    -0.081 Cl
HETATM    2 Cl2  UNK     1      16.571   1.699  37.604  1.00  0.00    -0.084 Cl
HETATM    3  O2  UNK     1      19.601  -2.269  34.462  1.00  0.00    -0.272 OA
HETATM    4  O3  UNK     1      20.755  -4.237  34.335  1.00  0.00    -0.259 OA
HETATM    5  C9  UNK     1      19.899  -3.642  36.464  1.00  0.00     0.108 A 
HETATM    6  C12 UNK     1      19.216  -2.760  37.203  1.00  0.00     0.037 A 
HETATM    7  C13 UNK     1      18.675  -1.555  36.595  1.00  0.00     0.002 A 
HETATM    8  C14 UNK     1      20.130  -3.431  35.017  1.00  0.00     0.304 A 
HETATM    9  C15 UNK     1      18.881  -1.337  35.235  1.00  0.00     0.111 A 
HETATM   10  C16 UNK     1      17.956  -0.608  37.328  1.00  0.00     0.038 A 
HETATM   11  C17 UNK     1      18.389  -0.205  34.591  1.00  0.00     0.070 A 
HETATM   12  C18 UNK     1      17.457   0.535  36.695  1.00  0.00     0.036 A 
HETATM   13  C19 UNK     1      17.673   0.736  35.330  1.00  0.00     0.050 A 
ENDROOT
BRANCH   5  14
HETATM   14  C6  UNK     1      20.408  -4.835  37.173  1.00  0.00     0.264 C 
HETATM   15  O1  UNK     1      21.369  -4.674  37.923  1.00  0.00    -0.267 OA
HETATM   16  N1  UNK     1      19.763  -6.035  36.912  1.00  0.00    -0.308 N 
HETATM   17  C1  UNK     1      18.594  -6.276  36.011  1.00  0.00     0.093 C 
HETATM   18  C4  UNK     1      20.119  -7.280  37.489  1.00  0.00     0.044 A 
HETATM   19  C2  UNK     1      18.534  -7.800  35.779  1.00  0.00     0.066 C 
HETATM   20  C5  UNK     1      17.294  -5.778  36.652  1.00  0.00     0.033 C 
HETATM   21  C3  UNK     1      19.394  -8.313  36.888  1.00  0.00    -0.029 A 
HETATM   22  C7  UNK     1      19.561  -9.634  37.274  1.00  0.00     0.009 A 
HETATM   23  C10 UNK     1      20.471  -9.919  38.291  1.00  0.00     0.001 A 
HETATM   24  C11 UNK     1      21.203  -8.887  38.895  1.00  0.00     0.002 A 
HETATM   25  C8  UNK     1      21.034  -7.558  38.494  1.00  0.00     0.030 A 
ENDBRANCH   5  14
TORSDOF 1
ENDMDL
MODEL 4
REMARK VINA RESULT:      -8.2      1.830      3.038
REMARK  1 active torsions:
REMARK  status: ('A' for Active; 'I' for Inactive)
REMARK       I    between atoms: C6_12  and  N1_6 
REMARK    1  A    between atoms: C6_12  and  C9_15 
ROOT
HETATM    1 Cl1  UNK     1      20.154   0.170  29.470  1.00  0.00    -0.081 Cl
HETATM    2 Cl2  UNK     1      18.655  -1.533  34.354  1.00  0.00    -0.084 Cl
HETATM    3  O2  UNK     1      19.073   2.783  30.355  1.00  0.00    -0.272 OA
HETATM    4  O3  UNK     1      18.723   4.953  29.735  1.00  0.00    -0.259 OA
HETATM    5  C9  UNK     1      18.014   4.342  31.912  1.00  0.00     0.108 A 
HETATM    6  C12 UNK     1      17.905   3.385  32.840  1.00  0.00     0.037 A 
HETATM    7  C13 UNK     1      18.387   2.040  32.567  1.00  0.00     0.002 A 
HETATM    8  C14 UNK     1      18.621   4.079  30.588  1.00  0.00     0.304 A 
HETATM    9  C15 UNK     1      18.961   1.770  31.328  1.00  0.00     0.111 A 
HETATM   10  C16 UNK     1      18.294   1.010  33.506  1.00  0.00     0.038 A 
HETATM   11  C17 UNK     1      19.444   0.504  31.003  1.00  0.00     0.070 A 
HETATM   12  C18 UNK     1      18.773  -0.267  33.194  1.00  0.00     0.036 A 
HETATM   13  C19 UNK     1      19.346  -0.518  31.945  1.00  0.00     0.050 A 
ENDROOT
BRANCH   5  14
HETATM   14  C6  UNK     1      17.496   5.676  32.285  1.00  0.00     0.264 C 
HETATM   15  O1  UNK     1      16.321   5.917  32.013  1.00  0.00    -0.267 OA
HETATM   16  N1  UNK     1      18.392   6.543  32.893  1.00  0.00    -0.308 N 
HETATM   17  C1  UNK     1      19.824   6.293  33.242  1.00  0.00     0.093 C 
HETATM   18  C4  UNK     1      18.078   7.862  33.307  1.00  0.00     0.044 A 
HETATM   19  C2  UNK     1      20.450   7.675  33.519  1.00  0.00     0.066 C 
HETATM   20  C5  UNK     1      19.940   5.393  34.477  1.00  0.00     0.033 C 
HETATM   21  C3  UNK     1      19.237   8.526  33.718  1.00  0.00    -0.029 A 
HETATM   22  C7  UNK     1      19.200   9.837  34.168  1.00  0.00     0.009 A 
HETATM   23  C10 UNK     1      17.968  10.488  34.215  1.00  0.00     0.001 A 
HETATM   24  C11 UNK     1      16.803   9.828  33.801  1.00  0.00     0.002 A 
HETATM   25  C8  UNK     1      16.851   8.508  33.340  1.00  0.00     0.030 A 
ENDBRANCH   5  14
TORSDOF 1
ENDMDL
MODEL 5
REMARK VINA RESULT:      -8.1     17.854     19.475
REMARK  1 active torsions:
REMARK  status: ('A' for Active; 'I' for Inactive)
REMARK       I    between atoms: C6_12  and  N1_6 
REMARK    1  A    between atoms: C6_12  and  C9_15 
ROOT
HETATM    1 Cl1  UNK     1      29.520  -4.004  39.377  1.00  0.00    -0.081 Cl
HETATM    2 Cl2  UNK     1      27.172  -8.833  39.798  1.00  0.00    -0.084 Cl
HETATM    3  O2  UNK     1      30.694  -5.102  36.888  1.00  0.00    -0.272 OA
HETATM    4  O3  UNK     1      32.061  -4.637  35.117  1.00  0.00    -0.259 OA
HETATM    5  C9  UNK     1      31.096  -6.800  35.175  1.00  0.00     0.108 A 
HETATM    6  C12 UNK     1      30.303  -7.670  35.812  1.00  0.00     0.037 A 
HETATM    7  C13 UNK     1      29.646  -7.290  37.053  1.00  0.00     0.002 A 
HETATM    8  C14 UNK     1      31.335  -5.436  35.698  1.00  0.00     0.304 A 
HETATM    9  C15 UNK     1      29.858  -6.012  37.563  1.00  0.00     0.111 A 
HETATM   10  C16 UNK     1      28.810  -8.165  37.751  1.00  0.00     0.038 A 
HETATM   11  C17 UNK     1      29.258  -5.586  38.746  1.00  0.00     0.070 A 
HETATM   12  C18 UNK     1      28.202  -7.751  38.941  1.00  0.00     0.036 A 
HETATM   13  C19 UNK     1      28.426  -6.465  39.436  1.00  0.00     0.050 A 
ENDROOT
BRANCH   5  14
HETATM   14  C6  UNK     1      31.717  -7.279  33.922  1.00  0.00     0.264 C 
HETATM   15  O1  UNK     1      32.719  -7.985  34.027  1.00  0.00    -0.267 OA
HETATM   16  N1  UNK     1      31.121  -6.871  32.738  1.00  0.00    -0.308 N 
HETATM   17  C1  UNK     1      29.906  -6.017  32.564  1.00  0.00     0.093 C 
HETATM   18  C4  UNK     1      31.584  -7.221  31.444  1.00  0.00     0.044 A 
HETATM   19  C2  UNK     1      29.912  -5.550  31.094  1.00  0.00     0.066 C 
HETATM   20  C5  UNK     1      28.630  -6.807  32.872  1.00  0.00     0.033 C 
HETATM   21  C3  UNK     1      30.875  -6.510  30.472  1.00  0.00    -0.029 A 
HETATM   22  C7  UNK     1      31.140  -6.670  29.120  1.00  0.00     0.009 A 
HETATM   23  C10 UNK     1      32.133  -7.572  28.741  1.00  0.00     0.001 A 
HETATM   24  C11 UNK     1      32.849  -8.285  29.712  1.00  0.00     0.002 A 
HETATM   25  C8  UNK     1      32.581  -8.111  31.074  1.00  0.00     0.030 A 
ENDBRANCH   5  14
TORSDOF 1
ENDMDL
MODEL 6
REMARK VINA RESULT:      -8.0     18.896     21.291
REMARK  1 active torsions:
REMARK  status: ('A' for Active; 'I' for Inactive)
REMARK       I    between atoms: C6_12  and  N1_6 
REMARK    1  A    between atoms: C6_12  and  C9_15 
ROOT
HETATM    1 Cl1  UNK     1      37.527  -7.302  34.473  1.00  0.00    -0.081 Cl
HETATM    2 Cl2  UNK     1      34.639  -7.408  29.928  1.00  0.00    -0.084 Cl
HETATM    3  O2  UNK     1      34.891  -7.135  35.815  1.00  0.00    -0.272 OA
HETATM    4  O3  UNK     1      33.844  -6.998  37.841  1.00  0.00    -0.259 OA
HETATM    5  C9  UNK     1      32.450  -7.036  35.925  1.00  0.00     0.108 A 
HETATM    6  C12 UNK     1      32.360  -7.096  34.592  1.00  0.00     0.037 A 
HETATM    7  C13 UNK     1      33.563  -7.181  33.778  1.00  0.00     0.002 A 
HETATM    8  C14 UNK     1      33.757  -7.053  36.620  1.00  0.00     0.304 A 
HETATM    9  C15 UNK     1      34.803  -7.199  34.411  1.00  0.00     0.111 A 
HETATM   10  C16 UNK     1      33.516  -7.247  32.384  1.00  0.00     0.038 A 
HETATM   11  C17 UNK     1      35.992  -7.281  33.691  1.00  0.00     0.070 A 
HETATM   12  C18 UNK     1      34.702  -7.328  31.647  1.00  0.00     0.036 A 
HETATM   13  C19 UNK     1      35.937  -7.345  32.299  1.00  0.00     0.050 A 
ENDROOT
BRANCH   5  14
HETATM   14  C6  UNK     1      31.172  -6.952  36.663  1.00  0.00     0.264 C 
HETATM   15  O1  UNK     1      30.605  -5.860  36.681  1.00  0.00    -0.267 OA
HETATM   16  N1  UNK     1      30.737  -8.112  37.287  1.00  0.00    -0.308 N 
HETATM   17  C1  UNK     1      31.391  -9.456  37.291  1.00  0.00     0.093 C 
HETATM   18  C4  UNK     1      29.545  -8.217  38.047  1.00  0.00     0.044 A 
HETATM   19  C2  UNK     1      30.726 -10.257  38.430  1.00  0.00     0.066 C 
HETATM   20  C5  UNK     1      31.195 -10.168  35.948  1.00  0.00     0.033 C 
HETATM   21  C3  UNK     1      29.487  -9.460  38.682  1.00  0.00    -0.029 A 
HETATM   22  C7  UNK     1      28.418  -9.811  39.492  1.00  0.00     0.009 A 
HETATM   23  C10 UNK     1      27.382  -8.894  39.657  1.00  0.00     0.001 A 
HETATM   24  C11 UNK     1      27.436  -7.644  39.025  1.00  0.00     0.002 A 
HETATM   25  C8  UNK     1      28.522  -7.294  38.217  1.00  0.00     0.030 A 
ENDBRANCH   5  14
TORSDOF 1
ENDMDL
MODEL 7
REMARK VINA RESULT:      -7.9      4.607      8.305
REMARK  1 active torsions:
REMARK  status: ('A' for Active; 'I' for Inactive)
REMARK       I    between atoms: C6_12  and  N1_6 
REMARK    1  A    between atoms: C6_12  and  C9_15 
ROOT
HETATM    1 Cl1  UNK     1      12.775  11.728  37.268  1.00  0.00    -0.081 Cl
HETATM    2 Cl2  UNK     1      16.126  15.613  35.632  1.00  0.00    -0.084 Cl
HETATM    3  O2  UNK     1      14.133  10.077  35.217  1.00  0.00    -0.272 OA
HETATM    4  O3  UNK     1      14.211   8.007  34.253  1.00  0.00    -0.259 OA
HETATM    5  C9  UNK     1      15.743   9.620  33.434  1.00  0.00     0.108 A 
HETATM    6  C12 UNK     1      16.217  10.869  33.504  1.00  0.00     0.037 A 
HETATM    7  C13 UNK     1      15.659  11.813  34.460  1.00  0.00     0.002 A 
HETATM    8  C14 UNK     1      14.648   9.151  34.313  1.00  0.00     0.304 A 
HETATM    9  C15 UNK     1      14.628  11.394  35.296  1.00  0.00     0.111 A 
HETATM   10  C16 UNK     1      16.122  13.126  34.568  1.00  0.00     0.038 A 
HETATM   11  C17 UNK     1      14.051  12.247  36.234  1.00  0.00     0.070 A 
HETATM   12  C18 UNK     1      15.552  13.995  35.503  1.00  0.00     0.036 A 
HETATM   13  C19 UNK     1      14.519  13.556  36.334  1.00  0.00     0.050 A 
ENDROOT
BRANCH   5  14
HETATM   14  C6  UNK     1      16.376   8.736  32.432  1.00  0.00     0.264 C 
HETATM   15  O1  UNK     1      15.788   8.591  31.361  1.00  0.00    -0.267 OA
HETATM   16  N1  UNK     1      17.570   8.134  32.800  1.00  0.00    -0.308 N 
HETATM   17  C1  UNK     1      18.318   8.281  34.086  1.00  0.00     0.093 C 
HETATM   18  C4  UNK     1      18.310   7.249  31.976  1.00  0.00     0.044 A 
HETATM   19  C2  UNK     1      19.334   7.120  34.131  1.00  0.00     0.066 C 
HETATM   20  C5  UNK     1      19.041   9.631  34.150  1.00  0.00     0.033 C 
HETATM   21  C3  UNK     1      19.362   6.683  32.702  1.00  0.00    -0.029 A 
HETATM   22  C7  UNK     1      20.237   5.777  32.122  1.00  0.00     0.009 A 
HETATM   23  C10 UNK     1      20.053   5.442  30.781  1.00  0.00     0.001 A 
HETATM   24  C11 UNK     1      18.998   6.004  30.050  1.00  0.00     0.002 A 
HETATM   25  C8  UNK     1      18.115   6.910  30.645  1.00  0.00     0.030 A 
ENDBRANCH   5  14
TORSDOF 1
ENDMDL
MODEL 8
REMARK VINA RESULT:      -7.9      3.251      7.548
REMARK  1 active torsions:
REMARK  status: ('A' for Active; 'I' for Inactive)
REMARK       I    between atoms: C6_12  and  N1_6 
REMARK    1  A    between atoms: C6_12  and  C9_15 
ROOT
HETATM    1 Cl1  UNK     1      19.007  10.428  34.081  1.00  0.00    -0.081 Cl
HETATM    2 Cl2  UNK     1      13.711   9.652  33.476  1.00  0.00    -0.084 Cl
HETATM    3  O2  UNK     1      19.241   7.625  33.151  1.00  0.00    -0.272 OA
HETATM    4  O3  UNK     1      20.712   5.942  32.677  1.00  0.00    -0.259 OA
HETATM    5  C9  UNK     1      18.413   5.462  32.366  1.00  0.00     0.108 A 
HETATM    6  C12 UNK     1      17.148   5.892  32.430  1.00  0.00     0.037 A 
HETATM    7  C13 UNK     1      16.855   7.248  32.869  1.00  0.00     0.002 A 
HETATM    8  C14 UNK     1      19.552   6.333  32.734  1.00  0.00     0.304 A 
HETATM    9  C15 UNK     1      17.911   8.084  33.220  1.00  0.00     0.111 A 
HETATM   10  C16 UNK     1      15.550   7.740  32.950  1.00  0.00     0.038 A 
HETATM   11  C17 UNK     1      17.700   9.393  33.647  1.00  0.00     0.070 A 
HETATM   12  C18 UNK     1      15.322   9.051  33.378  1.00  0.00     0.036 A 
HETATM   13  C19 UNK     1      16.394   9.876  33.725  1.00  0.00     0.050 A 
ENDROOT
BRANCH   5  14
HETATM   14  C6  UNK     1      18.607   4.070  31.908  1.00  0.00     0.264 C 
HETATM   15  O1  UNK     1      18.846   3.901  30.713  1.00  0.00    -0.267 OA
HETATM   16  N1  UNK     1      18.483   3.077  32.868  1.00  0.00    -0.308 N 
HETATM   17  C1  UNK     1      18.195   3.236  34.327  1.00  0.00     0.093 C 
HETATM   18  C4  UNK     1      18.624   1.689  32.611  1.00  0.00     0.044 A 
HETATM   19  C2  UNK     1      17.776   1.842  34.839  1.00  0.00     0.066 C 
HETATM   20  C5  UNK     1      19.433   3.735  35.080  1.00  0.00     0.033 C 
HETATM   21  C3  UNK     1      18.268   0.952  33.744  1.00  0.00    -0.029 A 
HETATM   22  C7  UNK     1      18.315  -0.433  33.751  1.00  0.00     0.009 A 
HETATM   23  C10 UNK     1      18.741  -1.089  32.596  1.00  0.00     0.001 A 
HETATM   24  C11 UNK     1      19.096  -0.355  31.457  1.00  0.00     0.002 A 
HETATM   25  C8  UNK     1      19.037   1.043  31.455  1.00  0.00     0.030 A 
ENDBRANCH   5  14
TORSDOF 1
ENDMDL
MODEL 9
REMARK VINA RESULT:      -7.9     18.087     19.791
REMARK  1 active torsions:
REMARK  status: ('A' for Active; 'I' for Inactive)
REMARK       I    between atoms: C6_12  and  N1_6 
REMARK    1  A    between atoms: C6_12  and  C9_15 
ROOT
HETATM    1 Cl1  UNK     1      30.742  -4.851  38.209  1.00  0.00    -0.081 Cl
HETATM    2 Cl2  UNK     1      27.595  -8.827  40.025  1.00  0.00    -0.084 Cl
HETATM    3  O2  UNK     1      29.995  -5.861  35.526  1.00  0.00    -0.272 OA
HETATM    4  O3  UNK     1      30.275  -5.549  33.280  1.00  0.00    -0.259 OA
HETATM    5  C9  UNK     1      28.864  -7.336  33.937  1.00  0.00     0.108 A 
HETATM    6  C12 UNK     1      28.305  -8.029  34.936  1.00  0.00     0.037 A 
HETATM    7  C13 UNK     1      28.568  -7.664  36.319  1.00  0.00     0.002 A 
HETATM    8  C14 UNK     1      29.761  -6.187  34.193  1.00  0.00     0.304 A 
HETATM    9  C15 UNK     1      29.409  -6.587  36.582  1.00  0.00     0.111 A 
HETATM   10  C16 UNK     1      28.006  -8.358  37.393  1.00  0.00     0.038 A 
HETATM   11  C17 UNK     1      29.701  -6.184  37.884  1.00  0.00     0.070 A 
HETATM   12  C18 UNK     1      28.291  -7.968  38.705  1.00  0.00     0.036 A 
HETATM   13  C19 UNK     1      29.136  -6.883  38.950  1.00  0.00     0.050 A 
ENDROOT
BRANCH   5  14
HETATM   14  C6  UNK     1      28.535  -7.784  32.567  1.00  0.00     0.264 C 
HETATM   15  O1  UNK     1      27.599  -7.220  32.003  1.00  0.00    -0.267 OA
HETATM   16  N1  UNK     1      29.304  -8.815  32.049  1.00  0.00    -0.308 N 
HETATM   17  C1  UNK     1      30.448  -9.527  32.697  1.00  0.00     0.093 C 
HETATM   18  C4  UNK     1      29.126  -9.381  30.761  1.00  0.00     0.044 A 
HETATM   19  C2  UNK     1      30.677 -10.814  31.878  1.00  0.00     0.066 C 
HETATM   20  C5  UNK     1      31.710  -8.657  32.694  1.00  0.00     0.033 C 
HETATM   21  C3  UNK     1      29.939 -10.509  30.615  1.00  0.00    -0.029 A 
HETATM   22  C7  UNK     1      29.948 -11.248  29.442  1.00  0.00     0.009 A 
HETATM   23  C10 UNK     1      29.128 -10.835  28.392  1.00  0.00     0.001 A 
HETATM   24  C11 UNK     1      28.310  -9.707  28.534  1.00  0.00     0.002 A 
HETATM   25  C8  UNK     1      28.300  -8.973  29.724  1.00  0.00     0.030 A 
ENDBRANCH   5  14
TORSDOF 1
ENDMDL
MODEL 10
REMARK VINA RESULT:      -7.8     17.710     19.156
REMARK  1 active torsions:
REMARK  status: ('A' for Active; 'I' for Inactive)
REMARK       I    between atoms: C6_12  and  N1_6 
REMARK    1  A    between atoms: C6_12  and  C9_15 
ROOT
HETATM    1 Cl1  UNK     1      29.341  -9.192  28.573  1.00  0.00    -0.081 Cl
HETATM    2 Cl2  UNK     1      30.962 -13.675  31.080  1.00  0.00    -0.084 Cl
HETATM    3  O2  UNK     1      28.872  -8.163  31.312  1.00  0.00    -0.272 OA
HETATM    4  O3  UNK     1      28.158  -6.362  32.522  1.00  0.00    -0.259 OA
HETATM    5  C9  UNK     1      28.842  -8.267  33.755  1.00  0.00     0.108 A 
HETATM    6  C12 UNK     1      29.315  -9.518  33.736  1.00  0.00     0.037 A 
HETATM    7  C13 UNK     1      29.599 -10.175  32.469  1.00  0.00     0.002 A 
HETATM    8  C14 UNK     1      28.591  -7.509  32.509  1.00  0.00     0.304 A 
HETATM    9  C15 UNK     1      29.371  -9.481  31.285  1.00  0.00     0.111 A 
HETATM   10  C16 UNK     1      30.095 -11.479  32.401  1.00  0.00     0.038 A 
HETATM   11  C17 UNK     1      29.624 -10.051  30.039  1.00  0.00     0.070 A 
HETATM   12  C18 UNK     1      30.352 -12.066  31.158  1.00  0.00     0.036 A 
HETATM   13  C19 UNK     1      30.117 -11.353  29.980  1.00  0.00     0.050 A 
ENDROOT
BRANCH   5  14
HETATM   14  C6  UNK     1      28.585  -7.686  35.090  1.00  0.00     0.264 C 
HETATM   15  O1  UNK     1      27.546  -8.021  35.657  1.00  0.00    -0.267 OA
HETATM   16  N1  UNK     1      29.534  -6.799  35.575  1.00  0.00    -0.308 N 
HETATM   17  C1  UNK     1      30.808  -6.364  34.923  1.00  0.00     0.093 C 
HETATM   18  C4  UNK     1      29.450  -6.137  36.826  1.00  0.00     0.044 A 
HETATM   19  C2  UNK     1      31.273  -5.103  35.679  1.00  0.00     0.066 C 
HETATM   20  C5  UNK     1      31.871  -7.465  35.007  1.00  0.00     0.033 C 
HETATM   21  C3  UNK     1      30.468  -5.185  36.936  1.00  0.00    -0.029 A 
HETATM   22  C7  UNK     1      30.603  -4.397  38.068  1.00  0.00     0.009 A 
HETATM   23  C10 UNK     1      29.701  -4.579  39.115  1.00  0.00     0.001 A 
HETATM   24  C11 UNK     1      28.677  -5.530  39.010  1.00  0.00     0.002 A 
HETATM   25  C8  UNK     1      28.542  -6.315  37.860  1.00  0.00     0.030 A 
ENDBRANCH   5  14
TORSDOF 1
ENDMDL
