MODEL 1
REMARK VINA RESULT:      -8.2      0.000      0.000
REMARK  6 active torsions:
REMARK  status: ('A' for Active; 'I' for Inactive)
REMARK    1  A    between atoms: C16_21  and  O2_2 
REMARK    2  A    between atoms: C6_11  and  O2_2 
REMARK    3  A    between atoms: C17_22  and  O3_3 
REMARK    4  A    between atoms: C8_13  and  O3_3 
REMARK    5  A    between atoms: C7_12  and  O4_4 
REMARK    6  A    between atoms: C1_6  and  C2_7 
ROOT
HETATM    1  O1  UNK     1      16.752   7.598  32.432  1.00  0.00    -0.306 OA
HETATM    2  O5  UNK     1      19.532   9.753  34.492  1.00  0.00    -0.284 OA
HETATM    3  C2  UNK     1      18.043   7.129  32.611  1.00  0.00     0.123 A 
HETATM    4  C3  UNK     1      17.316   9.591  33.698  1.00  0.00     0.051 A 
HETATM    5  C4  UNK     1      16.414   8.809  32.981  1.00  0.00     0.090 A 
HETATM    6  C7  UNK     1      19.011   7.790  33.272  1.00  0.00     0.152 A 
HETATM    7  C10 UNK     1      18.693   9.106  33.878  1.00  0.00     0.220 A 
HETATM    8  C12 UNK     1      16.915  10.818  34.234  1.00  0.00     0.018 A 
HETATM    9  C13 UNK     1      15.103   9.249  32.794  1.00  0.00     0.038 A 
HETATM   10  C14 UNK     1      15.604  11.255  34.047  1.00  0.00     0.001 A 
HETATM   11  C15 UNK     1      14.699  10.472  33.328  1.00  0.00     0.003 A 
ENDROOT
BRANCH   3  12
HETATM   12  C1  UNK     1      18.272   5.820  31.974  1.00  0.00     0.004 A 
HETATM   13  C5  UNK     1      17.901   4.648  32.633  1.00  0.00     0.054 A 
HETATM   14  C6  UNK     1      18.119   3.409  32.031  1.00  0.00     0.102 A 
HETATM   15  C8  UNK     1      18.709   3.342  30.769  1.00  0.00     0.102 A 
HETATM   16  C11 UNK     1      19.081   4.514  30.109  1.00  0.00     0.040 A 
HETATM   17  C9  UNK     1      18.862   5.752  30.711  1.00  0.00     0.017 A 
BRANCH  14  18
HETATM   18  O2  UNK     1      17.752   2.272  32.685  1.00  0.00    -0.349 OA
BRANCH  18  19
HETATM   19  C16 UNK     1      18.162   2.144  34.044  1.00  0.00     0.171 C 
HETATM   20  C18 UNK     1      17.517   0.911  34.640  1.00  0.00     0.034 C 
ENDBRANCH  18  19
ENDBRANCH  14  18
BRANCH  15  21
HETATM   21  O3  UNK     1      18.926   2.138  30.169  1.00  0.00    -0.349 OA
BRANCH  21  22
HETATM   22  C17 UNK     1      18.181   1.860  28.986  1.00  0.00     0.171 C 
HETATM   23  C19 UNK     1      18.636   0.533  28.417  1.00  0.00     0.034 C 
ENDBRANCH  21  22
ENDBRANCH  15  21
ENDBRANCH   3  12
BRANCH   6  24
HETATM   24  O4  UNK     1      20.296   7.309  33.403  1.00  0.00    -0.355 OA
HETATM   25  H12 UNK     1      20.597   7.418  34.319  1.00  0.00     0.218 HD
ENDBRANCH   6  24
TORSDOF 6
ENDMDL
MODEL 2
REMARK VINA RESULT:      -8.0      1.715      7.568
REMARK  6 active torsions:
REMARK  status: ('A' for Active; 'I' for Inactive)
REMARK    1  A    between atoms: C16_21  and  O2_2 
REMARK    2  A    between atoms: C6_11  and  O2_2 
REMARK    3  A    between atoms: C17_22  and  O3_3 
REMARK    4  A    between atoms: C8_13  and  O3_3 
REMARK    5  A    between atoms: C7_12  and  O4_4 
REMARK    6  A    between atoms: C1_6  and  C2_7 
ROOT
HETATM    1  O1  UNK     1      18.074   3.089  33.198  1.00  0.00    -0.306 OA
HETATM    2  O5  UNK     1      19.309   1.335  29.733  1.00  0.00    -0.284 OA
HETATM    3  C2  UNK     1      18.282   3.831  32.048  1.00  0.00     0.123 A 
HETATM    4  C3  UNK     1      18.695   1.074  31.995  1.00  0.00     0.051 A 
HETATM    5  C4  UNK     1      18.276   1.733  33.148  1.00  0.00     0.090 A 
HETATM    6  C7  UNK     1      18.696   3.319  30.873  1.00  0.00     0.152 A 
HETATM    7  C10 UNK     1      18.933   1.858  30.774  1.00  0.00     0.220 A 
HETATM    8  C12 UNK     1      18.886  -0.311  32.004  1.00  0.00     0.018 A 
HETATM    9  C13 UNK     1      18.047   1.012  34.321  1.00  0.00     0.038 A 
HETATM   10  C14 UNK     1      18.654  -1.030  33.176  1.00  0.00     0.001 A 
HETATM   11  C15 UNK     1      18.235  -0.370  34.333  1.00  0.00     0.003 A 
ENDROOT
BRANCH   3  12
HETATM   12  C1  UNK     1      18.029   5.269  32.237  1.00  0.00     0.004 A 
HETATM   13  C5  UNK     1      16.824   5.828  31.811  1.00  0.00     0.054 A 
HETATM   14  C6  UNK     1      16.583   7.190  31.989  1.00  0.00     0.102 A 
HETATM   15  C8  UNK     1      17.549   7.995  32.594  1.00  0.00     0.102 A 
HETATM   16  C11 UNK     1      18.754   7.437  33.021  1.00  0.00     0.040 A 
HETATM   17  C9  UNK     1      18.993   6.075  32.843  1.00  0.00     0.017 A 
BRANCH  14  18
HETATM   18  O2  UNK     1      15.402   7.724  31.568  1.00  0.00    -0.349 OA
BRANCH  18  19
HETATM   19  C16 UNK     1      14.210   7.195  32.145  1.00  0.00     0.171 C 
HETATM   20  C18 UNK     1      14.166   7.566  33.613  1.00  0.00     0.034 C 
ENDBRANCH  18  19
ENDBRANCH  14  18
BRANCH  15  21
HETATM   21  O3  UNK     1      17.325   9.326  32.776  1.00  0.00    -0.349 OA
BRANCH  21  22
HETATM   22  C17 UNK     1      17.527   9.844  34.089  1.00  0.00     0.171 C 
HETATM   23  C19 UNK     1      18.457  11.036  34.011  1.00  0.00     0.034 C 
ENDBRANCH  21  22
ENDBRANCH  15  21
ENDBRANCH   3  12
BRANCH   6  24
HETATM   24  O4  UNK     1      18.926   4.091  29.755  1.00  0.00    -0.355 OA
HETATM   25  H12 UNK     1      19.035   5.020  30.013  1.00  0.00     0.218 HD
ENDBRANCH   6  24
TORSDOF 6
ENDMDL
MODEL 3
REMARK VINA RESULT:      -7.9      1.474      2.642
REMARK  6 active torsions:
REMARK  status: ('A' for Active; 'I' for Inactive)
REMARK    1  A    between atoms: C16_21  and  O2_2 
REMARK    2  A    between atoms: C6_11  and  O2_2 
REMARK    3  A    between atoms: C17_22  and  O3_3 
REMARK    4  A    between atoms: C8_13  and  O3_3 
REMARK    5  A    between atoms: C7_12  and  O4_4 
REMARK    6  A    between atoms: C1_6  and  C2_7 
ROOT
HETATM    1  O1  UNK     1      19.319   6.789  32.976  1.00  0.00    -0.306 OA
HETATM    2  O5  UNK     1      15.957   9.078  32.718  1.00  0.00    -0.284 OA
HETATM    3  C2  UNK     1      18.167   6.315  32.372  1.00  0.00     0.123 A 
HETATM    4  C3  UNK     1      18.202   8.899  33.420  1.00  0.00     0.051 A 
HETATM    5  C4  UNK     1      19.316   8.066  33.479  1.00  0.00     0.090 A 
HETATM    6  C7  UNK     1      17.021   7.013  32.259  1.00  0.00     0.152 A 
HETATM    7  C10 UNK     1      16.970   8.395  32.793  1.00  0.00     0.220 A 
HETATM    8  C12 UNK     1      18.257  10.190  33.950  1.00  0.00     0.018 A 
HETATM    9  C13 UNK     1      20.496   8.519  34.071  1.00  0.00     0.038 A 
HETATM   10  C14 UNK     1      19.438  10.642  34.540  1.00  0.00     0.001 A 
HETATM   11  C15 UNK     1      20.556   9.808  34.600  1.00  0.00     0.003 A 
ENDROOT
BRANCH   3  12
HETATM   12  C1  UNK     1      18.304   4.935  31.875  1.00  0.00     0.004 A 
HETATM   13  C5  UNK     1      18.010   3.859  32.711  1.00  0.00     0.054 A 
HETATM   14  C6  UNK     1      18.141   2.552  32.241  1.00  0.00     0.102 A 
HETATM   15  C8  UNK     1      18.566   2.322  30.932  1.00  0.00     0.102 A 
HETATM   16  C11 UNK     1      18.860   3.398  30.095  1.00  0.00     0.040 A 
HETATM   17  C9  UNK     1      18.729   4.704  30.566  1.00  0.00     0.017 A 
BRANCH  14  18
HETATM   18  O2  UNK     1      17.850   1.509  33.068  1.00  0.00    -0.349 OA
BRANCH  18  19
HETATM   19  C16 UNK     1      18.104   1.694  34.458  1.00  0.00     0.171 C 
HETATM   20  C18 UNK     1      17.121   0.861  35.254  1.00  0.00     0.034 C 
ENDBRANCH  18  19
ENDBRANCH  14  18
BRANCH  15  21
HETATM   21  O3  UNK     1      18.696   1.051  30.460  1.00  0.00    -0.349 OA
BRANCH  21  22
HETATM   22  C17 UNK     1      19.127   0.902  29.109  1.00  0.00     0.171 C 
HETATM   23  C19 UNK     1      20.120  -0.238  29.031  1.00  0.00     0.034 C 
ENDBRANCH  21  22
ENDBRANCH  15  21
ENDBRANCH   3  12
BRANCH   6  24
HETATM   24  O4  UNK     1      15.881   6.498  31.680  1.00  0.00    -0.355 OA
HETATM   25  H12 UNK     1      15.567   5.735  32.191  1.00  0.00     0.218 HD
ENDBRANCH   6  24
TORSDOF 6
ENDMDL
MODEL 4
REMARK VINA RESULT:      -7.9      7.153     13.046
REMARK  6 active torsions:
REMARK  status: ('A' for Active; 'I' for Inactive)
REMARK    1  A    between atoms: C16_21  and  O2_2 
REMARK    2  A    between atoms: C6_11  and  O2_2 
REMARK    3  A    between atoms: C17_22  and  O3_3 
REMARK    4  A    between atoms: C8_13  and  O3_3 
REMARK    5  A    between atoms: C7_12  and  O4_4 
REMARK    6  A    between atoms: C1_6  and  C2_7 
ROOT
HETATM    1  O1  UNK     1      21.186  -4.678  37.513  1.00  0.00    -0.306 OA
HETATM    2  O5  UNK     1      18.584  -7.780  37.971  1.00  0.00    -0.284 OA
HETATM    3  C2  UNK     1      19.903  -4.627  36.992  1.00  0.00     0.123 A 
HETATM    4  C3  UNK     1      20.724  -6.888  38.403  1.00  0.00     0.051 A 
HETATM    5  C4  UNK     1      21.566  -5.796  38.209  1.00  0.00     0.090 A 
HETATM    6  C7  UNK     1      18.996  -5.617  37.100  1.00  0.00     0.152 A 
HETATM    7  C10 UNK     1      19.366  -6.848  37.839  1.00  0.00     0.220 A 
HETATM    8  C12 UNK     1      21.167  -8.003  39.120  1.00  0.00     0.018 A 
HETATM    9  C13 UNK     1      22.861  -5.812  38.731  1.00  0.00     0.038 A 
HETATM   10  C14 UNK     1      22.460  -8.015  39.642  1.00  0.00     0.001 A 
HETATM   11  C15 UNK     1      23.306  -6.922  39.448  1.00  0.00     0.003 A 
ENDROOT
BRANCH   3  12
HETATM   12  C1  UNK     1      19.623  -3.374  36.272  1.00  0.00     0.004 A 
HETATM   13  C5  UNK     1      20.171  -3.158  35.007  1.00  0.00     0.054 A 
HETATM   14  C6  UNK     1      19.906  -1.970  34.325  1.00  0.00     0.102 A 
HETATM   15  C8  UNK     1      19.094  -0.998  34.908  1.00  0.00     0.102 A 
HETATM   16  C11 UNK     1      18.546  -1.213  36.173  1.00  0.00     0.040 A 
HETATM   17  C9  UNK     1      18.810  -2.400  36.854  1.00  0.00     0.017 A 
BRANCH  14  18
HETATM   18  O2  UNK     1      20.447  -1.771  33.090  1.00  0.00    -0.349 OA
BRANCH  18  19
HETATM   19  C16 UNK     1      19.554  -1.800  31.979  1.00  0.00     0.171 C 
HETATM   20  C18 UNK     1      20.330  -2.163  30.732  1.00  0.00     0.034 C 
ENDBRANCH  18  19
ENDBRANCH  14  18
BRANCH  15  21
HETATM   21  O3  UNK     1      18.826   0.166  34.251  1.00  0.00    -0.349 OA
BRANCH  21  22
HETATM   22  C17 UNK     1      17.848   1.026  34.830  1.00  0.00     0.171 C 
HETATM   23  C19 UNK     1      18.485   2.366  35.131  1.00  0.00     0.034 C 
ENDBRANCH  21  22
ENDBRANCH  15  21
ENDBRANCH   3  12
BRANCH   6  24
HETATM   24  O4  UNK     1      17.739  -5.548  36.541  1.00  0.00    -0.355 OA
HETATM   25  H12 UNK     1      17.700  -4.818  35.903  1.00  0.00     0.218 HD
ENDBRANCH   6  24
TORSDOF 6
ENDMDL
MODEL 5
REMARK VINA RESULT:      -7.8     14.245     18.328
REMARK  6 active torsions:
REMARK  status: ('A' for Active; 'I' for Inactive)
REMARK    1  A    between atoms: C16_21  and  O2_2 
REMARK    2  A    between atoms: C6_11  and  O2_2 
REMARK    3  A    between atoms: C17_22  and  O3_3 
REMARK    4  A    between atoms: C8_13  and  O3_3 
REMARK    5  A    between atoms: C7_12  and  O4_4 
REMARK    6  A    between atoms: C1_6  and  C2_7 
ROOT
HETATM    1  O1  UNK     1      18.845  -0.981  17.732  1.00  0.00    -0.306 OA
HETATM    2  O5  UNK     1      19.376   2.415  15.543  1.00  0.00    -0.284 OA
HETATM    3  C2  UNK     1      19.058  -1.030  16.365  1.00  0.00     0.123 A 
HETATM    4  C3  UNK     1      19.010   1.439  17.660  1.00  0.00     0.051 A 
HETATM    5  C4  UNK     1      18.831   0.243  18.350  1.00  0.00     0.090 A 
HETATM    6  C7  UNK     1      19.234   0.051  15.581  1.00  0.00     0.152 A 
HETATM    7  C10 UNK     1      19.221   1.396  16.204  1.00  0.00     0.220 A 
HETATM    8  C12 UNK     1      18.985   2.659  18.342  1.00  0.00     0.018 A 
HETATM    9  C13 UNK     1      18.626   0.258  19.730  1.00  0.00     0.038 A 
HETATM   10  C14 UNK     1      18.781   2.671  19.722  1.00  0.00     0.001 A 
HETATM   11  C15 UNK     1      18.602   1.472  20.415  1.00  0.00     0.003 A 
ENDROOT
BRANCH   3  12
HETATM   12  C1  UNK     1      19.050  -2.401  15.829  1.00  0.00     0.004 A 
HETATM   13  C5  UNK     1      20.251  -3.089  15.652  1.00  0.00     0.054 A 
HETATM   14  C6  UNK     1      20.244  -4.388  15.144  1.00  0.00     0.102 A 
HETATM   15  C8  UNK     1      19.035  -5.000  14.813  1.00  0.00     0.102 A 
HETATM   16  C11 UNK     1      17.834  -4.314  14.991  1.00  0.00     0.040 A 
HETATM   17  C9  UNK     1      17.842  -3.015  15.499  1.00  0.00     0.017 A 
BRANCH  14  18
HETATM   18  O2  UNK     1      21.424  -5.049  14.975  1.00  0.00    -0.349 OA
BRANCH  18  19
HETATM   19  C16 UNK     1      21.995  -5.661  16.129  1.00  0.00     0.171 C 
HETATM   20  C18 UNK     1      23.121  -4.789  16.644  1.00  0.00     0.034 C 
ENDBRANCH  18  19
ENDBRANCH  14  18
BRANCH  15  21
HETATM   21  O3  UNK     1      19.015  -6.269  14.318  1.00  0.00    -0.349 OA
BRANCH  21  22
HETATM   22  C17 UNK     1      18.353  -6.467  13.071  1.00  0.00     0.171 C 
HETATM   23  C19 UNK     1      19.218  -5.913  11.959  1.00  0.00     0.034 C 
ENDBRANCH  21  22
ENDBRANCH  15  21
ENDBRANCH   3  12
BRANCH   6  24
HETATM   24  O4  UNK     1      19.411  -0.031  14.217  1.00  0.00    -0.355 OA
HETATM   25  H12 UNK     1      18.682  -0.532  13.819  1.00  0.00     0.218 HD
ENDBRANCH   6  24
TORSDOF 6
ENDMDL
MODEL 6
REMARK VINA RESULT:      -7.8      7.402     11.637
REMARK  6 active torsions:
REMARK  status: ('A' for Active; 'I' for Inactive)
REMARK    1  A    between atoms: C16_21  and  O2_2 
REMARK    2  A    between atoms: C6_11  and  O2_2 
REMARK    3  A    between atoms: C17_22  and  O3_3 
REMARK    4  A    between atoms: C8_13  and  O3_3 
REMARK    5  A    between atoms: C7_12  and  O4_4 
REMARK    6  A    between atoms: C1_6  and  C2_7 
ROOT
HETATM    1  O1  UNK     1      19.072  -2.391  37.205  1.00  0.00    -0.306 OA
HETATM    2  O5  UNK     1      19.331  -0.982  33.390  1.00  0.00    -0.284 OA
HETATM    3  C2  UNK     1      19.754  -3.089  36.222  1.00  0.00     0.123 A 
HETATM    4  C3  UNK     1      18.546  -0.657  35.591  1.00  0.00     0.051 A 
HETATM    5  C4  UNK     1      18.491  -1.194  36.874  1.00  0.00     0.090 A 
HETATM    6  C7  UNK     1      19.873  -2.687  34.943  1.00  0.00     0.152 A 
HETATM    7  C10 UNK     1      19.256  -1.400  34.538  1.00  0.00     0.220 A 
HETATM    8  C12 UNK     1      17.934   0.568  35.311  1.00  0.00     0.018 A 
HETATM    9  C13 UNK     1      17.822  -0.509  37.890  1.00  0.00     0.038 A 
HETATM   10  C14 UNK     1      17.267   1.252  36.327  1.00  0.00     0.001 A 
HETATM   11  C15 UNK     1      17.210   0.714  37.615  1.00  0.00     0.003 A 
ENDROOT
BRANCH   3  12
HETATM   12  C1  UNK     1      20.330  -4.354  36.709  1.00  0.00     0.004 A 
HETATM   13  C5  UNK     1      19.981  -5.560  36.101  1.00  0.00     0.054 A 
HETATM   14  C6  UNK     1      20.526  -6.758  36.563  1.00  0.00     0.102 A 
HETATM   15  C8  UNK     1      21.421  -6.751  37.634  1.00  0.00     0.102 A 
HETATM   16  C11 UNK     1      21.770  -5.545  38.242  1.00  0.00     0.040 A 
HETATM   17  C9  UNK     1      21.225  -4.348  37.780  1.00  0.00     0.017 A 
BRANCH  14  18
HETATM   18  O2  UNK     1      20.178  -7.930  35.961  1.00  0.00    -0.349 OA
BRANCH  18  19
HETATM   19  C16 UNK     1      20.972  -8.351  34.854  1.00  0.00     0.171 C 
HETATM   20  C18 UNK     1      21.581  -9.700  35.168  1.00  0.00     0.034 C 
ENDBRANCH  18  19
ENDBRANCH  14  18
BRANCH  15  21
HETATM   21  O3  UNK     1      21.961  -7.914  38.093  1.00  0.00    -0.349 OA
BRANCH  21  22
HETATM   22  C17 UNK     1      21.589  -8.327  39.406  1.00  0.00     0.171 C 
HETATM   23  C19 UNK     1      20.392  -9.249  39.312  1.00  0.00     0.034 C 
ENDBRANCH  21  22
ENDBRANCH  15  21
ENDBRANCH   3  12
BRANCH   6  24
HETATM   24  O4  UNK     1      20.531  -3.422  33.981  1.00  0.00    -0.355 OA
HETATM   25  H12 UNK     1      21.056  -2.833  33.417  1.00  0.00     0.218 HD
ENDBRANCH   6  24
TORSDOF 6
ENDMDL
MODEL 7
REMARK VINA RESULT:      -7.6      1.336      2.461
REMARK  6 active torsions:
REMARK  status: ('A' for Active; 'I' for Inactive)
REMARK    1  A    between atoms: C16_21  and  O2_2 
REMARK    2  A    between atoms: C6_11  and  O2_2 
REMARK    3  A    between atoms: C17_22  and  O3_3 
REMARK    4  A    between atoms: C8_13  and  O3_3 
REMARK    5  A    between atoms: C7_12  and  O4_4 
REMARK    6  A    between atoms: C1_6  and  C2_7 
ROOT
HETATM    1  O1  UNK     1      18.064   8.775  33.038  1.00  0.00    -0.306 OA
HETATM    2  O5  UNK     1      14.099   9.604  33.490  1.00  0.00    -0.284 OA
HETATM    3  C2  UNK     1      17.087   7.890  32.612  1.00  0.00     0.123 A 
HETATM    4  C3  UNK     1      16.333  10.303  33.787  1.00  0.00     0.051 A 
HETATM    5  C4  UNK     1      17.670   9.959  33.607  1.00  0.00     0.090 A 
HETATM    6  C7  UNK     1      15.763   8.096  32.737  1.00  0.00     0.152 A 
HETATM    7  C10 UNK     1      15.291   9.360  33.351  1.00  0.00     0.220 A 
HETATM    8  C12 UNK     1      15.991  11.524  34.375  1.00  0.00     0.018 A 
HETATM    9  C13 UNK     1      18.677  10.835  34.016  1.00  0.00     0.038 A 
HETATM   10  C14 UNK     1      16.998  12.398  34.780  1.00  0.00     0.001 A 
HETATM   11  C15 UNK     1      18.340  12.055  34.601  1.00  0.00     0.003 A 
ENDROOT
BRANCH   3  12
HETATM   12  C1  UNK     1      17.643   6.662  32.020  1.00  0.00     0.004 A 
HETATM   13  C5  UNK     1      17.526   5.446  32.693  1.00  0.00     0.054 A 
HETATM   14  C6  UNK     1      18.054   4.283  32.132  1.00  0.00     0.102 A 
HETATM   15  C8  UNK     1      18.699   4.335  30.896  1.00  0.00     0.102 A 
HETATM   16  C11 UNK     1      18.816   5.551  30.222  1.00  0.00     0.040 A 
HETATM   17  C9  UNK     1      18.289   6.713  30.783  1.00  0.00     0.017 A 
BRANCH  14  18
HETATM   18  O2  UNK     1      17.932   3.101  32.800  1.00  0.00    -0.349 OA
BRANCH  18  19
HETATM   19  C16 UNK     1      18.311   3.091  34.174  1.00  0.00     0.171 C 
HETATM   20  C18 UNK     1      18.172   1.684  34.714  1.00  0.00     0.034 C 
ENDBRANCH  18  19
ENDBRANCH  14  18
BRANCH  15  21
HETATM   21  O3  UNK     1      19.216   3.206  30.337  1.00  0.00    -0.349 OA
BRANCH  21  22
HETATM   22  C17 UNK     1      18.417   2.541  29.362  1.00  0.00     0.171 C 
HETATM   23  C19 UNK     1      18.928   1.126  29.187  1.00  0.00     0.034 C 
ENDBRANCH  21  22
ENDBRANCH  15  21
ENDBRANCH   3  12
BRANCH   6  24
HETATM   24  O4  UNK     1      14.817   7.179  32.332  1.00  0.00    -0.355 OA
HETATM   25  H12 UNK     1      15.065   6.292  32.638  1.00  0.00     0.218 HD
ENDBRANCH   6  24
TORSDOF 6
ENDMDL
MODEL 8
REMARK VINA RESULT:      -7.6      3.409      8.336
REMARK  6 active torsions:
REMARK  status: ('A' for Active; 'I' for Inactive)
REMARK    1  A    between atoms: C16_21  and  O2_2 
REMARK    2  A    between atoms: C6_11  and  O2_2 
REMARK    3  A    between atoms: C17_22  and  O3_3 
REMARK    4  A    between atoms: C8_13  and  O3_3 
REMARK    5  A    between atoms: C7_12  and  O4_4 
REMARK    6  A    between atoms: C1_6  and  C2_7 
ROOT
HETATM    1  O1  UNK     1      19.103  -0.008  34.575  1.00  0.00    -0.306 OA
HETATM    2  O5  UNK     1      17.691  -0.034  38.398  1.00  0.00    -0.284 OA
HETATM    3  C2  UNK     1      18.463   1.094  35.116  1.00  0.00     0.123 A 
HETATM    4  C3  UNK     1      18.815  -1.190  36.676  1.00  0.00     0.051 A 
HETATM    5  C4  UNK     1      19.271  -1.119  35.362  1.00  0.00     0.090 A 
HETATM    6  C7  UNK     1      17.967   1.152  36.366  1.00  0.00     0.152 A 
HETATM    7  C10 UNK     1      18.121  -0.028  37.252  1.00  0.00     0.220 A 
HETATM    8  C12 UNK     1      19.014  -2.349  37.430  1.00  0.00     0.018 A 
HETATM    9  C13 UNK     1      19.930  -2.209  34.792  1.00  0.00     0.038 A 
HETATM   10  C14 UNK     1      19.675  -3.437  36.860  1.00  0.00     0.001 A 
HETATM   11  C15 UNK     1      20.132  -3.367  35.542  1.00  0.00     0.003 A 
ENDROOT
BRANCH   3  12
HETATM   12  C1  UNK     1      18.350   2.216  34.169  1.00  0.00     0.004 A 
HETATM   13  C5  UNK     1      17.979   1.978  32.845  1.00  0.00     0.054 A 
HETATM   14  C6  UNK     1      17.872   3.040  31.948  1.00  0.00     0.102 A 
HETATM   15  C8  UNK     1      18.137   4.342  32.374  1.00  0.00     0.102 A 
HETATM   16  C11 UNK     1      18.507   4.581  33.697  1.00  0.00     0.040 A 
HETATM   17  C9  UNK     1      18.613   3.519  34.594  1.00  0.00     0.017 A 
BRANCH  14  18
HETATM   18  O2  UNK     1      17.509   2.795  30.657  1.00  0.00    -0.349 OA
BRANCH  18  19
HETATM   19  C16 UNK     1      18.538   2.379  29.762  1.00  0.00     0.171 C 
HETATM   20  C18 UNK     1      17.918   1.578  28.637  1.00  0.00     0.034 C 
ENDBRANCH  18  19
ENDBRANCH  14  18
BRANCH  15  21
HETATM   21  O3  UNK     1      18.035   5.388  31.507  1.00  0.00    -0.349 OA
BRANCH  21  22
HETATM   22  C17 UNK     1      19.182   6.222  31.360  1.00  0.00     0.171 C 
HETATM   23  C19 UNK     1      19.887   5.867  30.069  1.00  0.00     0.034 C 
ENDBRANCH  21  22
ENDBRANCH  15  21
ENDBRANCH   3  12
BRANCH   6  24
HETATM   24  O4  UNK     1      17.305   2.254  36.863  1.00  0.00    -0.355 OA
HETATM   25  H12 UNK     1      16.348   2.145  36.747  1.00  0.00     0.218 HD
ENDBRANCH   6  24
TORSDOF 6
ENDMDL
MODEL 9
REMARK VINA RESULT:      -7.5      1.672      7.550
REMARK  6 active torsions:
REMARK  status: ('A' for Active; 'I' for Inactive)
REMARK    1  A    between atoms: C16_21  and  O2_2 
REMARK    2  A    between atoms: C6_11  and  O2_2 
REMARK    3  A    between atoms: C17_22  and  O3_3 
REMARK    4  A    between atoms: C8_13  and  O3_3 
REMARK    5  A    between atoms: C7_12  and  O4_4 
REMARK    6  A    between atoms: C1_6  and  C2_7 
ROOT
HETATM    1  O1  UNK     1      18.560   3.570  31.044  1.00  0.00    -0.306 OA
HETATM    2  O5  UNK     1      18.640   0.880  34.105  1.00  0.00    -0.284 OA
HETATM    3  C2  UNK     1      18.329   3.959  32.353  1.00  0.00     0.123 A 
HETATM    4  C3  UNK     1      18.882   1.284  31.793  1.00  0.00     0.051 A 
HETATM    5  C4  UNK     1      18.837   2.251  30.792  1.00  0.00     0.090 A 
HETATM    6  C7  UNK     1      18.333   3.124  33.409  1.00  0.00     0.152 A 
HETATM    7  C10 UNK     1      18.622   1.687  33.184  1.00  0.00     0.220 A 
HETATM    8  C12 UNK     1      19.167  -0.047  31.476  1.00  0.00     0.018 A 
HETATM    9  C13 UNK     1      19.077   1.893  29.464  1.00  0.00     0.038 A 
HETATM   10  C14 UNK     1      19.409  -0.402  30.150  1.00  0.00     0.001 A 
HETATM   11  C15 UNK     1      19.363   0.566  29.144  1.00  0.00     0.003 A 
ENDROOT
BRANCH   3  12
HETATM   12  C1  UNK     1      18.047   5.398  32.485  1.00  0.00     0.004 A 
HETATM   13  C5  UNK     1      16.857   5.925  31.985  1.00  0.00     0.054 A 
HETATM   14  C6  UNK     1      16.590   7.289  32.109  1.00  0.00     0.102 A 
HETATM   15  C8  UNK     1      17.515   8.126  32.734  1.00  0.00     0.102 A 
HETATM   16  C11 UNK     1      18.705   7.599  33.235  1.00  0.00     0.040 A 
HETATM   17  C9  UNK     1      18.971   6.236  33.111  1.00  0.00     0.017 A 
BRANCH  14  18
HETATM   18  O2  UNK     1      15.424   7.792  31.616  1.00  0.00    -0.349 OA
BRANCH  18  19
HETATM   19  C16 UNK     1      14.218   7.149  32.021  1.00  0.00     0.171 C 
HETATM   20  C18 UNK     1      13.939   7.491  33.470  1.00  0.00     0.034 C 
ENDBRANCH  18  19
ENDBRANCH  14  18
BRANCH  15  21
HETATM   21  O3  UNK     1      17.265   9.459  32.863  1.00  0.00    -0.349 OA
BRANCH  21  22
HETATM   22  C17 UNK     1      17.256   9.991  34.186  1.00  0.00     0.171 C 
HETATM   23  C19 UNK     1      15.851  10.442  34.526  1.00  0.00     0.034 C 
ENDBRANCH  21  22
ENDBRANCH  15  21
ENDBRANCH   3  12
BRANCH   6  24
HETATM   24  O4  UNK     1      18.066   3.538  34.696  1.00  0.00    -0.355 OA
HETATM   25  H12 UNK     1      17.107   3.574  34.839  1.00  0.00     0.218 HD
ENDBRANCH   6  24
TORSDOF 6
ENDMDL
MODEL 10
REMARK VINA RESULT:      -7.5      7.797     11.994
REMARK  6 active torsions:
REMARK  status: ('A' for Active; 'I' for Inactive)
REMARK    1  A    between atoms: C16_21  and  O2_2 
REMARK    2  A    between atoms: C6_11  and  O2_2 
REMARK    3  A    between atoms: C17_22  and  O3_3 
REMARK    4  A    between atoms: C8_13  and  O3_3 
REMARK    5  A    between atoms: C7_12  and  O4_4 
REMARK    6  A    between atoms: C1_6  and  C2_7 
ROOT
HETATM    1  O1  UNK     1      18.862  -2.904  37.292  1.00  0.00    -0.306 OA
HETATM    2  O5  UNK     1      19.829  -1.306  33.669  1.00  0.00    -0.284 OA
HETATM    3  C2  UNK     1      19.485  -3.659  36.312  1.00  0.00     0.123 A 
HETATM    4  C3  UNK     1      18.894  -0.981  35.811  1.00  0.00     0.051 A 
HETATM    5  C4  UNK     1      18.587  -1.587  37.026  1.00  0.00     0.090 A 
HETATM    6  C7  UNK     1      19.825  -3.198  35.094  1.00  0.00     0.152 A 
HETATM    7  C10 UNK     1      19.542  -1.782  34.760  1.00  0.00     0.220 A 
HETATM    8  C12 UNK     1      18.588   0.366  35.596  1.00  0.00     0.018 A 
HETATM    9  C13 UNK     1      17.969  -0.849  38.038  1.00  0.00     0.038 A 
HETATM   10  C14 UNK     1      17.973   1.101  36.609  1.00  0.00     0.001 A 
HETATM   11  C15 UNK     1      17.664   0.495  37.828  1.00  0.00     0.003 A 
ENDROOT
BRANCH   3  12
HETATM   12  C1  UNK     1      19.725  -5.052  36.725  1.00  0.00     0.004 A 
HETATM   13  C5  UNK     1      20.988  -5.442  37.170  1.00  0.00     0.054 A 
HETATM   14  C6  UNK     1      21.215  -6.761  37.561  1.00  0.00     0.102 A 
HETATM   15  C8  UNK     1      20.178  -7.693  37.506  1.00  0.00     0.102 A 
HETATM   16  C11 UNK     1      18.914  -7.304  37.062  1.00  0.00     0.040 A 
HETATM   17  C9  UNK     1      18.688  -5.985  36.672  1.00  0.00     0.017 A 
BRANCH  14  18
HETATM   18  O2  UNK     1      22.454  -7.129  37.993  1.00  0.00    -0.349 OA
BRANCH  18  19
HETATM   19  C16 UNK     1      22.772  -6.856  39.356  1.00  0.00     0.171 C 
HETATM   20  C18 UNK     1      22.687  -8.143  40.149  1.00  0.00     0.034 C 
ENDBRANCH  18  19
ENDBRANCH  14  18
BRANCH  15  21
HETATM   21  O3  UNK     1      20.387  -8.984  37.887  1.00  0.00    -0.349 OA
BRANCH  21  22
HETATM   22  C17 UNK     1      20.318  -9.979  36.867  1.00  0.00     0.171 C 
HETATM   23  C19 UNK     1      21.725 -10.369  36.464  1.00  0.00     0.034 C 
ENDBRANCH  21  22
ENDBRANCH  15  21
ENDBRANCH   3  12
BRANCH   6  24
HETATM   24  O4  UNK     1      20.415  -3.987  34.129  1.00  0.00    -0.355 OA
HETATM   25  H12 UNK     1      21.376  -4.006  34.261  1.00  0.00     0.218 HD
ENDBRANCH   6  24
TORSDOF 6
ENDMDL
