MODEL 1
REMARK VINA RESULT:     -10.7      0.000      0.000
REMARK  3 active torsions:
REMARK  status: ('A' for Active; 'I' for Inactive)
REMARK    1  A    between atoms: C12_18  and  N1_5 
REMARK    2  A    between atoms: C2_8  and  N1_5 
REMARK    3  A    between atoms: C4_10  and  C6_12 
ROOT
HETATM    1  S1  UNK     1      19.201  -2.357  37.174  1.00  0.00    -0.061 SA
HETATM    2  N2  UNK     1      20.489  -3.381  35.179  1.00  0.00    -0.223 NA
HETATM    3  C6  UNK     1      19.804  -2.275  34.712  1.00  0.00     0.082 A 
HETATM    4  C12 UNK     1      20.243  -3.516  36.461  1.00  0.00     0.171 A 
HETATM    5  C17 UNK     1      19.051  -1.594  35.646  1.00  0.00     0.086 A 
ENDROOT
BRANCH   3   6
HETATM    6  C4  UNK     1      19.911  -1.914  33.321  1.00  0.00     0.070 A 
HETATM    7  C15 UNK     1      20.716  -2.794  32.421  1.00  0.00     0.301 A 
HETATM    8  O1  UNK     1      20.821  -2.411  31.087  1.00  0.00    -0.274 OA
HETATM    9  O2  UNK     1      21.264  -3.816  32.825  1.00  0.00    -0.259 OA
HETATM   10  C8  UNK     1      20.182  -1.264  30.583  1.00  0.00     0.089 A 
HETATM   11  C20 UNK     1      20.338  -0.973  29.229  1.00  0.00     0.039 A 
HETATM   12  C5  UNK     1      19.422  -0.459  31.421  1.00  0.00     0.000 A 
HETATM   13  C22 UNK     1      19.714   0.156  28.704  1.00  0.00     0.022 A 
HETATM   14  C21 UNK     1      18.945   0.976  29.533  1.00  0.00     0.011 A 
HETATM   15 Br1  UNK     1      18.104   2.511  28.816  1.00  0.00    -0.051 Br
HETATM   16  C16 UNK     1      18.798   0.672  30.888  1.00  0.00     0.033 A 
HETATM   17  C7  UNK     1      19.307  -0.822  32.824  1.00  0.00     0.034 A 
ENDBRANCH   3   6
BRANCH   4  18
HETATM   18  N1  UNK     1      20.764  -4.509  37.238  1.00  0.00    -0.334 N 
HETATM   19  H2  UNK     1      21.692  -4.341  37.614  1.00  0.00     0.168 HD
BRANCH  18  20
HETATM   20  C2  UNK     1      20.229  -5.779  37.567  1.00  0.00     0.045 A 
HETATM   21  C1  UNK     1      20.925  -6.682  38.387  1.00  0.00     0.001 A 
HETATM   22  C3  UNK     1      20.344  -7.937  38.683  1.00  0.00    -0.024 A 
HETATM   23  C10 UNK     1      22.186  -6.365  38.919  1.00  0.00     0.014 A 
HETATM   24  C11 UNK     1      19.084  -8.254  38.151  1.00  0.00     0.012 A 
HETATM   25  C13 UNK     1      21.041  -8.840  39.503  1.00  0.00     0.012 A 
HETATM   26  C14 UNK     1      18.406  -7.345  37.338  1.00  0.00     0.003 A 
HETATM   27  C9  UNK     1      18.977  -6.110  37.046  1.00  0.00     0.030 A 
HETATM   28  C19 UNK     1      22.292  -8.509  40.023  1.00  0.00     0.001 A 
HETATM   29  C18 UNK     1      22.863  -7.274  39.732  1.00  0.00     0.001 A 
ENDBRANCH  18  20
ENDBRANCH   4  18
TORSDOF 3
ENDMDL
MODEL 2
REMARK VINA RESULT:     -10.6      1.701      2.311
REMARK  3 active torsions:
REMARK  status: ('A' for Active; 'I' for Inactive)
REMARK    1  A    between atoms: C12_18  and  N1_5 
REMARK    2  A    between atoms: C2_8  and  N1_5 
REMARK    3  A    between atoms: C4_10  and  C6_12 
ROOT
HETATM    1  S1  UNK     1      20.191  -3.019  37.165  1.00  0.00    -0.061 SA
HETATM    2  N2  UNK     1      20.126  -4.242  34.887  1.00  0.00    -0.223 NA
HETATM    3  C6  UNK     1      20.200  -2.886  34.632  1.00  0.00     0.082 A 
HETATM    4  C12 UNK     1      20.116  -4.424  36.186  1.00  0.00     0.171 A 
HETATM    5  C17 UNK     1      20.242  -2.066  35.740  1.00  0.00     0.086 A 
ENDROOT
BRANCH   3   6
HETATM    6  C4  UNK     1      20.224  -2.424  33.267  1.00  0.00     0.070 A 
HETATM    7  C15 UNK     1      20.903  -3.276  32.244  1.00  0.00     0.301 A 
HETATM    8  O1  UNK     1      20.931  -2.798  30.937  1.00  0.00    -0.274 OA
HETATM    9  O2  UNK     1      21.414  -4.356  32.528  1.00  0.00    -0.259 OA
HETATM   10  C8  UNK     1      20.328  -1.581  30.570  1.00  0.00     0.089 A 
HETATM   11  C20 UNK     1      20.400  -1.196  29.234  1.00  0.00     0.039 A 
HETATM   12  C5  UNK     1      19.686  -0.802  31.523  1.00  0.00     0.000 A 
HETATM   13  C22 UNK     1      19.809   0.004  28.843  1.00  0.00     0.022 A 
HETATM   14  C21 UNK     1      19.158   0.800  29.788  1.00  0.00     0.011 A 
HETATM   15 Br1  UNK     1      18.363   2.431  29.254  1.00  0.00    -0.051 Br
HETATM   16  C16 UNK     1      19.096   0.401  31.125  1.00  0.00     0.033 A 
HETATM   17  C7  UNK     1      19.654  -1.265  32.900  1.00  0.00     0.034 A 
ENDBRANCH   3   6
BRANCH   4  18
HETATM   18  N1  UNK     1      20.051  -5.648  36.786  1.00  0.00    -0.334 N 
HETATM   19  H2  UNK     1      19.122  -6.046  36.889  1.00  0.00     0.168 HD
BRANCH  18  20
HETATM   20  C2  UNK     1      21.084  -6.441  37.345  1.00  0.00     0.045 A 
HETATM   21  C1  UNK     1      21.505  -7.635  36.738  1.00  0.00     0.001 A 
HETATM   22  C3  UNK     1      22.542  -8.388  37.338  1.00  0.00    -0.024 A 
HETATM   23  C10 UNK     1      20.921  -8.097  35.547  1.00  0.00     0.014 A 
HETATM   24  C11 UNK     1      23.126  -7.926  38.528  1.00  0.00     0.012 A 
HETATM   25  C13 UNK     1      22.963  -9.582  36.731  1.00  0.00     0.012 A 
HETATM   26  C14 UNK     1      22.694  -6.737  39.118  1.00  0.00     0.003 A 
HETATM   27  C9  UNK     1      21.675  -5.996  38.528  1.00  0.00     0.030 A 
HETATM   28  C19 UNK     1      22.371 -10.028  35.549  1.00  0.00     0.001 A 
HETATM   29  C18 UNK     1      21.352  -9.286  34.958  1.00  0.00     0.001 A 
ENDBRANCH  18  20
ENDBRANCH   4  18
TORSDOF 3
ENDMDL
MODEL 3
REMARK VINA RESULT:     -10.3      6.704      9.867
REMARK  3 active torsions:
REMARK  status: ('A' for Active; 'I' for Inactive)
REMARK    1  A    between atoms: C12_18  and  N1_5 
REMARK    2  A    between atoms: C2_8  and  N1_5 
REMARK    3  A    between atoms: C4_10  and  C6_12 
ROOT
HETATM    1  S1  UNK     1      18.939   3.605  29.376  1.00  0.00    -0.061 SA
HETATM    2  N2  UNK     1      18.054   4.036  31.767  1.00  0.00    -0.223 NA
HETATM    3  C6  UNK     1      18.307   5.264  31.187  1.00  0.00     0.082 A 
HETATM    4  C12 UNK     1      18.351   3.094  30.903  1.00  0.00     0.171 A 
HETATM    5  C17 UNK     1      18.792   5.232  29.896  1.00  0.00     0.086 A 
ENDROOT
BRANCH   3   6
HETATM    6  C4  UNK     1      18.060   6.466  31.943  1.00  0.00     0.070 A 
HETATM    7  C15 UNK     1      19.160   7.002  32.801  1.00  0.00     0.301 A 
HETATM    8  O1  UNK     1      18.889   8.151  33.537  1.00  0.00    -0.274 OA
HETATM    9  O2  UNK     1      20.262   6.464  32.861  1.00  0.00    -0.259 OA
HETATM   10  C8  UNK     1      17.648   8.811  33.468  1.00  0.00     0.089 A 
HETATM   11  C20 UNK     1      17.479   9.962  34.234  1.00  0.00     0.039 A 
HETATM   12  C5  UNK     1      16.635   8.316  32.657  1.00  0.00     0.000 A 
HETATM   13  C22 UNK     1      16.260  10.635  34.183  1.00  0.00     0.022 A 
HETATM   14  C21 UNK     1      15.231  10.153  33.371  1.00  0.00     0.011 A 
HETATM   15 Br1  UNK     1      13.577  11.068  33.309  1.00  0.00    -0.051 Br
HETATM   16  C16 UNK     1      15.416   8.996  32.610  1.00  0.00     0.033 A 
HETATM   17  C7  UNK     1      16.881   7.107  31.888  1.00  0.00     0.034 A 
ENDBRANCH   3   6
BRANCH   4  18
HETATM   18  N1  UNK     1      18.218   1.759  31.151  1.00  0.00    -0.334 N 
HETATM   19  H2  UNK     1      17.409   1.485  31.699  1.00  0.00     0.168 HD
BRANCH  18  20
HETATM   20  C2  UNK     1      19.071   0.683  30.804  1.00  0.00     0.045 A 
HETATM   21  C1  UNK     1      19.401  -0.322  31.727  1.00  0.00     0.001 A 
HETATM   22  C3  UNK     1      20.258  -1.375  31.327  1.00  0.00    -0.024 A 
HETATM   23  C10 UNK     1      18.899  -0.305  33.038  1.00  0.00     0.014 A 
HETATM   24  C11 UNK     1      20.760  -1.392  30.016  1.00  0.00     0.012 A 
HETATM   25  C13 UNK     1      20.588  -2.380  32.251  1.00  0.00     0.012 A 
HETATM   26  C14 UNK     1      20.422  -0.385  29.112  1.00  0.00     0.003 A 
HETATM   27  C9  UNK     1      19.580   0.651  29.504  1.00  0.00     0.030 A 
HETATM   28  C19 UNK     1      20.080  -2.348  33.551  1.00  0.00     0.001 A 
HETATM   29  C18 UNK     1      19.237  -1.312  33.943  1.00  0.00     0.001 A 
ENDBRANCH  18  20
ENDBRANCH   4  18
TORSDOF 3
ENDMDL
MODEL 4
REMARK VINA RESULT:     -10.3      8.428     10.110
REMARK  3 active torsions:
REMARK  status: ('A' for Active; 'I' for Inactive)
REMARK    1  A    between atoms: C12_18  and  N1_5 
REMARK    2  A    between atoms: C2_8  and  N1_5 
REMARK    3  A    between atoms: C4_10  and  C6_12 
ROOT
HETATM    1  S1  UNK     1      26.448  -9.334  39.358  1.00  0.00    -0.061 SA
HETATM    2  N2  UNK     1      26.510  -7.457  37.581  1.00  0.00    -0.223 NA
HETATM    3  C6  UNK     1      27.717  -7.436  38.254  1.00  0.00     0.082 A 
HETATM    4  C12 UNK     1      25.768  -8.417  38.080  1.00  0.00     0.171 A 
HETATM    5  C17 UNK     1      27.867  -8.377  39.251  1.00  0.00     0.086 A 
ENDROOT
BRANCH   3   6
HETATM    6  C4  UNK     1      28.713  -6.461  37.887  1.00  0.00     0.070 A 
HETATM    7  C15 UNK     1      28.565  -5.068  38.407  1.00  0.00     0.301 A 
HETATM    8  O1  UNK     1      29.528  -4.140  38.021  1.00  0.00    -0.274 OA
HETATM    9  O2  UNK     1      27.642  -4.741  39.147  1.00  0.00    -0.259 OA
HETATM   10  C8  UNK     1      30.616  -4.487  37.199  1.00  0.00     0.089 A 
HETATM   11  C20 UNK     1      31.534  -3.489  36.879  1.00  0.00     0.039 A 
HETATM   12  C5  UNK     1      30.756  -5.787  36.732  1.00  0.00     0.000 A 
HETATM   13  C22 UNK     1      32.622  -3.806  36.069  1.00  0.00     0.022 A 
HETATM   14  C21 UNK     1      32.780  -5.109  35.591  1.00  0.00     0.011 A 
HETATM   15 Br1  UNK     1      34.255  -5.533  34.487  1.00  0.00    -0.051 Br
HETATM   16  C16 UNK     1      31.850  -6.098  35.920  1.00  0.00     0.033 A 
HETATM   17  C7  UNK     1      29.757  -6.775  37.104  1.00  0.00     0.034 A 
ENDBRANCH   3   6
BRANCH   4  18
HETATM   18  N1  UNK     1      24.510  -8.716  37.645  1.00  0.00    -0.334 N 
HETATM   19  H2  UNK     1      24.451  -9.249  36.783  1.00  0.00     0.168 HD
BRANCH  18  20
HETATM   20  C2  UNK     1      23.252  -8.350  38.184  1.00  0.00     0.045 A 
HETATM   21  C1  UNK     1      22.073  -9.021  37.823  1.00  0.00     0.001 A 
HETATM   22  C3  UNK     1      20.843  -8.614  38.392  1.00  0.00    -0.024 A 
HETATM   23  C10 UNK     1      22.088 -10.088  36.910  1.00  0.00     0.014 A 
HETATM   24  C11 UNK     1      20.828  -7.547  39.305  1.00  0.00     0.012 A 
HETATM   25  C13 UNK     1      19.663  -9.286  38.031  1.00  0.00     0.012 A 
HETATM   26  C14 UNK     1      22.009  -6.891  39.652  1.00  0.00     0.003 A 
HETATM   27  C9  UNK     1      23.219  -7.291  39.092  1.00  0.00     0.030 A 
HETATM   28  C19 UNK     1      19.696 -10.344  37.122  1.00  0.00     0.001 A 
HETATM   29  C18 UNK     1      20.906 -10.744  36.563  1.00  0.00     0.001 A 
ENDBRANCH  18  20
ENDBRANCH   4  18
TORSDOF 3
ENDMDL
MODEL 5
REMARK VINA RESULT:     -10.1     27.898     29.763
REMARK  3 active torsions:
REMARK  status: ('A' for Active; 'I' for Inactive)
REMARK    1  A    between atoms: C12_18  and  N1_5 
REMARK    2  A    between atoms: C2_8  and  N1_5 
REMARK    3  A    between atoms: C4_10  and  C6_12 
ROOT
HETATM    1  S1  UNK     1      10.630   6.356   5.989  1.00  0.00    -0.061 SA
HETATM    2  N2  UNK     1      10.711   6.747   8.544  1.00  0.00    -0.223 NA
HETATM    3  C6  UNK     1       9.415   6.400   8.215  1.00  0.00     0.082 A 
HETATM    4  C12 UNK     1      11.435   6.754   7.449  1.00  0.00     0.171 A 
HETATM    5  C17 UNK     1       9.179   6.152   6.879  1.00  0.00     0.086 A 
ENDROOT
BRANCH   3   6
HETATM    6  C4  UNK     1       8.419   6.323   9.254  1.00  0.00     0.070 A 
HETATM    7  C15 UNK     1       8.302   5.052  10.031  1.00  0.00     0.301 A 
HETATM    8  O1  UNK     1       7.319   4.997  11.014  1.00  0.00    -0.274 OA
HETATM    9  O2  UNK     1       9.038   4.091   9.825  1.00  0.00    -0.259 OA
HETATM   10  C8  UNK     1       6.480   6.090  11.298  1.00  0.00     0.089 A 
HETATM   11  C20 UNK     1       5.535   5.939  12.310  1.00  0.00     0.039 A 
HETATM   12  C5  UNK     1       6.604   7.274  10.583  1.00  0.00     0.000 A 
HETATM   13  C22 UNK     1       4.693   7.006  12.613  1.00  0.00     0.022 A 
HETATM   14  C21 UNK     1       4.804   8.205  11.905  1.00  0.00     0.011 A 
HETATM   15 Br1  UNK     1       3.654   9.650  12.316  1.00  0.00    -0.051 Br
HETATM   16  C16 UNK     1       5.756   8.340  10.892  1.00  0.00     0.033 A 
HETATM   17  C7  UNK     1       7.610   7.357   9.537  1.00  0.00     0.034 A 
ENDBRANCH   3   6
BRANCH   4  18
HETATM   18  N1  UNK     1      12.765   7.054   7.414  1.00  0.00    -0.334 N 
HETATM   19  H2  UNK     1      13.092   7.535   6.582  1.00  0.00     0.168 HD
BRANCH  18  20
HETATM   20  C2  UNK     1      13.789   6.750   8.345  1.00  0.00     0.045 A 
HETATM   21  C1  UNK     1      14.559   7.759   8.948  1.00  0.00     0.001 A 
HETATM   22  C3  UNK     1      15.569   7.399   9.871  1.00  0.00    -0.024 A 
HETATM   23  C10 UNK     1      14.348   9.115   8.654  1.00  0.00     0.014 A 
HETATM   24  C11 UNK     1      15.780   6.042  10.165  1.00  0.00     0.012 A 
HETATM   25  C13 UNK     1      16.339   8.407  10.474  1.00  0.00     0.012 A 
HETATM   26  C14 UNK     1      15.005   5.054   9.557  1.00  0.00     0.003 A 
HETATM   27  C9  UNK     1      14.012   5.407   8.648  1.00  0.00     0.030 A 
HETATM   28  C19 UNK     1      16.116   9.751  10.170  1.00  0.00     0.001 A 
HETATM   29  C18 UNK     1      15.123  10.104   9.262  1.00  0.00     0.001 A 
ENDBRANCH  18  20
ENDBRANCH   4  18
TORSDOF 3
ENDMDL
MODEL 6
REMARK VINA RESULT:     -10.0     27.890     29.065
REMARK  3 active torsions:
REMARK  status: ('A' for Active; 'I' for Inactive)
REMARK    1  A    between atoms: C12_18  and  N1_5 
REMARK    2  A    between atoms: C2_8  and  N1_5 
REMARK    3  A    between atoms: C4_10  and  C6_12 
ROOT
HETATM    1  S1  UNK     1       8.517   6.498   6.825  1.00  0.00    -0.061 SA
HETATM    2  N2  UNK     1       9.764   5.612   8.909  1.00  0.00    -0.223 NA
HETATM    3  C6  UNK     1      10.701   6.192   8.076  1.00  0.00     0.082 A 
HETATM    4  C12 UNK     1       8.582   5.717   8.349  1.00  0.00     0.171 A 
HETATM    5  C17 UNK     1      10.214   6.725   6.900  1.00  0.00     0.086 A 
ENDROOT
BRANCH   3   6
HETATM    6  C4  UNK     1      12.087   6.203   8.471  1.00  0.00     0.070 A 
HETATM    7  C15 UNK     1      12.807   4.897   8.566  1.00  0.00     0.301 A 
HETATM    8  O1  UNK     1      14.138   4.933   8.970  1.00  0.00    -0.274 OA
HETATM    9  O2  UNK     1      12.262   3.830   8.297  1.00  0.00    -0.259 OA
HETATM   10  C8  UNK     1      14.803   6.140   9.256  1.00  0.00     0.089 A 
HETATM   11  C20 UNK     1      16.140   6.071   9.641  1.00  0.00     0.039 A 
HETATM   12  C5  UNK     1      14.132   7.351   9.152  1.00  0.00     0.000 A 
HETATM   13  C22 UNK     1      16.822   7.251   9.928  1.00  0.00     0.022 A 
HETATM   14  C21 UNK     1      16.164   8.479   9.827  1.00  0.00     0.011 A 
HETATM   15 Br1  UNK     1      17.093  10.078  10.223  1.00  0.00    -0.051 Br
HETATM   16  C16 UNK     1      14.822   8.531   9.440  1.00  0.00     0.033 A 
HETATM   17  C7  UNK     1      12.736   7.346   8.748  1.00  0.00     0.034 A 
ENDBRANCH   3   6
BRANCH   4  18
HETATM   18  N1  UNK     1       7.428   5.248   8.905  1.00  0.00    -0.334 N 
HETATM   19  H2  UNK     1       6.854   4.658   8.311  1.00  0.00     0.168 HD
BRANCH  18  20
HETATM   20  C2  UNK     1       6.869   5.500  10.182  1.00  0.00     0.045 A 
HETATM   21  C1  UNK     1       6.294   4.474  10.950  1.00  0.00     0.001 A 
HETATM   22  C3  UNK     1       5.750   4.781  12.219  1.00  0.00    -0.024 A 
HETATM   23  C10 UNK     1       6.250   3.150  10.485  1.00  0.00     0.014 A 
HETATM   24  C11 UNK     1       5.795   6.106  12.683  1.00  0.00     0.012 A 
HETATM   25  C13 UNK     1       5.176   3.755  12.987  1.00  0.00     0.012 A 
HETATM   26  C14 UNK     1       6.369   7.113  11.907  1.00  0.00     0.003 A 
HETATM   27  C9  UNK     1       6.904   6.811  10.659  1.00  0.00     0.030 A 
HETATM   28  C19 UNK     1       5.139   2.444  12.510  1.00  0.00     0.001 A 
HETATM   29  C18 UNK     1       5.675   2.142  11.262  1.00  0.00     0.001 A 
ENDBRANCH  18  20
ENDBRANCH   4  18
TORSDOF 3
ENDMDL
MODEL 7
REMARK VINA RESULT:      -9.9      8.375     10.693
REMARK  3 active torsions:
REMARK  status: ('A' for Active; 'I' for Inactive)
REMARK    1  A    between atoms: C12_18  and  N1_5 
REMARK    2  A    between atoms: C2_8  and  N1_5 
REMARK    3  A    between atoms: C4_10  and  C6_12 
ROOT
HETATM    1  S1  UNK     1      27.009  -8.778  39.455  1.00  0.00    -0.061 SA
HETATM    2  N2  UNK     1      27.179  -7.183  37.428  1.00  0.00    -0.223 NA
HETATM    3  C6  UNK     1      28.347  -7.060  38.155  1.00  0.00     0.082 A 
HETATM    4  C12 UNK     1      26.405  -8.060  38.021  1.00  0.00     0.171 A 
HETATM    5  C17 UNK     1      28.437  -7.844  39.286  1.00  0.00     0.086 A 
ENDROOT
BRANCH   3   6
HETATM    6  C4  UNK     1      29.367  -6.146  37.705  1.00  0.00     0.070 A 
HETATM    7  C15 UNK     1      29.295  -4.724  38.158  1.00  0.00     0.301 A 
HETATM    8  O1  UNK     1      30.280  -3.859  37.692  1.00  0.00    -0.274 OA
HETATM    9  O2  UNK     1      28.414  -4.324  38.914  1.00  0.00    -0.259 OA
HETATM   10  C8  UNK     1      31.321  -4.291  36.851  1.00  0.00     0.089 A 
HETATM   11  C20 UNK     1      32.266  -3.349  36.448  1.00  0.00     0.039 A 
HETATM   12  C5  UNK     1      31.391  -5.617  36.445  1.00  0.00     0.000 A 
HETATM   13  C22 UNK     1      33.309  -3.751  35.617  1.00  0.00     0.022 A 
HETATM   14  C21 UNK     1      33.396  -5.081  35.200  1.00  0.00     0.011 A 
HETATM   15 Br1  UNK     1      34.811  -5.621  34.067  1.00  0.00    -0.051 Br
HETATM   16  C16 UNK     1      32.440  -6.013  35.612  1.00  0.00     0.033 A 
HETATM   17  C7  UNK     1      30.368  -6.543  36.902  1.00  0.00     0.034 A 
ENDBRANCH   3   6
BRANCH   4  18
HETATM   18  N1  UNK     1      25.171  -8.423  37.565  1.00  0.00    -0.334 N 
HETATM   19  H2  UNK     1      24.420  -7.761  37.733  1.00  0.00     0.168 HD
BRANCH  18  20
HETATM   20  C2  UNK     1      24.754  -9.620  36.933  1.00  0.00     0.045 A 
HETATM   21  C1  UNK     1      23.422  -9.817  36.533  1.00  0.00     0.001 A 
HETATM   22  C3  UNK     1      23.060 -11.031  35.905  1.00  0.00    -0.024 A 
HETATM   23  C10 UNK     1      22.442  -8.833  36.743  1.00  0.00     0.014 A 
HETATM   24  C11 UNK     1      24.039 -12.015  35.695  1.00  0.00     0.012 A 
HETATM   25  C13 UNK     1      21.727 -11.228  35.506  1.00  0.00     0.012 A 
HETATM   26  C14 UNK     1      25.358 -11.803  36.098  1.00  0.00     0.003 A 
HETATM   27  C9  UNK     1      25.715 -10.609  36.716  1.00  0.00     0.030 A 
HETATM   28  C19 UNK     1      20.766 -10.239  35.723  1.00  0.00     0.001 A 
HETATM   29  C18 UNK     1      21.123  -9.044  36.340  1.00  0.00     0.001 A 
ENDBRANCH  18  20
ENDBRANCH   4  18
TORSDOF 3
ENDMDL
MODEL 8
REMARK VINA RESULT:      -9.9     27.832     29.692
REMARK  3 active torsions:
REMARK  status: ('A' for Active; 'I' for Inactive)
REMARK    1  A    between atoms: C12_18  and  N1_5 
REMARK    2  A    between atoms: C2_8  and  N1_5 
REMARK    3  A    between atoms: C4_10  and  C6_12 
ROOT
HETATM    1  S1  UNK     1      10.570   6.367   5.889  1.00  0.00    -0.061 SA
HETATM    2  N2  UNK     1      10.825   6.421   8.461  1.00  0.00    -0.223 NA
HETATM    3  C6  UNK     1       9.473   6.407   8.175  1.00  0.00     0.082 A 
HETATM    4  C12 UNK     1      11.493   6.402   7.333  1.00  0.00     0.171 A 
HETATM    5  C17 UNK     1       9.141   6.379   6.837  1.00  0.00     0.086 A 
ENDROOT
BRANCH   3   6
HETATM    6  C4  UNK     1       8.522   6.424   9.258  1.00  0.00     0.070 A 
HETATM    7  C15 UNK     1       8.158   7.743   9.859  1.00  0.00     0.301 A 
HETATM    8  O1  UNK     1       7.253   7.730  10.917  1.00  0.00    -0.274 OA
HETATM    9  O2  UNK     1       8.624   8.801   9.446  1.00  0.00    -0.259 OA
HETATM   10  C8  UNK     1       6.675   6.541  11.396  1.00  0.00     0.089 A 
HETATM   11  C20 UNK     1       5.771   6.635  12.451  1.00  0.00     0.039 A 
HETATM   12  C5  UNK     1       7.006   5.320  10.822  1.00  0.00     0.000 A 
HETATM   13  C22 UNK     1       5.182   5.472  12.943  1.00  0.00     0.022 A 
HETATM   14  C21 UNK     1       5.502   4.235  12.377  1.00  0.00     0.011 A 
HETATM   15 Br1  UNK     1       4.705   2.659  13.052  1.00  0.00    -0.051 Br
HETATM   16  C16 UNK     1       6.412   4.158  11.320  1.00  0.00     0.033 A 
HETATM   17  C7  UNK     1       7.961   5.298   9.727  1.00  0.00     0.034 A 
ENDBRANCH   3   6
BRANCH   4  18
HETATM   18  N1  UNK     1      12.855   6.407   7.250  1.00  0.00    -0.334 N 
HETATM   19  H2  UNK     1      13.245   6.428   6.313  1.00  0.00     0.168 HD
BRANCH  18  20
HETATM   20  C2  UNK     1      13.826   6.334   8.279  1.00  0.00     0.045 A 
HETATM   21  C1  UNK     1      14.449   7.485   8.787  1.00  0.00     0.001 A 
HETATM   22  C3  UNK     1      15.412   7.354   9.815  1.00  0.00    -0.024 A 
HETATM   23  C10 UNK     1      14.136   8.764   8.297  1.00  0.00     0.014 A 
HETATM   24  C11 UNK     1      15.726   6.076  10.305  1.00  0.00     0.012 A 
HETATM   25  C13 UNK     1      16.035   8.506  10.323  1.00  0.00     0.012 A 
HETATM   26  C14 UNK     1      15.097   4.943   9.788  1.00  0.00     0.003 A 
HETATM   27  C9  UNK     1      14.150   5.071   8.777  1.00  0.00     0.030 A 
HETATM   28  C19 UNK     1      15.713   9.769   9.825  1.00  0.00     0.001 A 
HETATM   29  C18 UNK     1      14.765   9.897   8.814  1.00  0.00     0.001 A 
ENDBRANCH  18  20
ENDBRANCH   4  18
TORSDOF 3
ENDMDL
MODEL 9
REMARK VINA RESULT:      -9.9     27.382     29.370
REMARK  3 active torsions:
REMARK  status: ('A' for Active; 'I' for Inactive)
REMARK    1  A    between atoms: C12_18  and  N1_5 
REMARK    2  A    between atoms: C2_8  and  N1_5 
REMARK    3  A    between atoms: C4_10  and  C6_12 
ROOT
HETATM    1  S1  UNK     1      14.962   4.723   9.682  1.00  0.00    -0.061 SA
HETATM    2  N2  UNK     1      14.210   7.047   8.835  1.00  0.00    -0.223 NA
HETATM    3  C6  UNK     1      15.172   7.247   9.807  1.00  0.00     0.082 A 
HETATM    4  C12 UNK     1      14.023   5.757   8.689  1.00  0.00     0.171 A 
HETATM    5  C17 UNK     1      15.694   6.107  10.381  1.00  0.00     0.086 A 
ENDROOT
BRANCH   3   6
HETATM    6  C4  UNK     1      15.557   8.592  10.153  1.00  0.00     0.070 A 
HETATM    7  C15 UNK     1      14.719   9.335  11.143  1.00  0.00     0.301 A 
HETATM    8  O1  UNK     1      15.100  10.640  11.444  1.00  0.00    -0.274 OA
HETATM    9  O2  UNK     1      13.737   8.829  11.678  1.00  0.00    -0.259 OA
HETATM   10  C8  UNK     1      16.236  11.241  10.872  1.00  0.00     0.089 A 
HETATM   11  C20 UNK     1      16.541  12.547  11.248  1.00  0.00     0.039 A 
HETATM   12  C5  UNK     1      17.019  10.539   9.965  1.00  0.00     0.000 A 
HETATM   13  C22 UNK     1      17.662  13.164  10.699  1.00  0.00     0.022 A 
HETATM   14  C21 UNK     1      18.461  12.474   9.786  1.00  0.00     0.011 A 
HETATM   15 Br1  UNK     1      19.979  13.319   9.038  1.00  0.00    -0.051 Br
HETATM   16  C16 UNK     1      18.142  11.164   9.418  1.00  0.00     0.033 A 
HETATM   17  C7  UNK     1      16.638   9.180   9.617  1.00  0.00     0.034 A 
ENDBRANCH   3   6
BRANCH   4  18
HETATM   18  N1  UNK     1      13.140   5.207   7.806  1.00  0.00    -0.334 N 
HETATM   19  H2  UNK     1      13.460   4.383   7.308  1.00  0.00     0.168 HD
BRANCH  18  20
HETATM   20  C2  UNK     1      11.844   5.641   7.430  1.00  0.00     0.045 A 
HETATM   21  C1  UNK     1      10.723   5.401   8.241  1.00  0.00     0.001 A 
HETATM   22  C3  UNK     1       9.453   5.858   7.818  1.00  0.00    -0.024 A 
HETATM   23  C10 UNK     1      10.836   4.720   9.464  1.00  0.00     0.014 A 
HETATM   24  C11 UNK     1       9.340   6.539   6.595  1.00  0.00     0.012 A 
HETATM   25  C13 UNK     1       8.331   5.618   8.629  1.00  0.00     0.012 A 
HETATM   26  C14 UNK     1      10.464   6.769   5.802  1.00  0.00     0.003 A 
HETATM   27  C9  UNK     1      11.714   6.320   6.218  1.00  0.00     0.030 A 
HETATM   28  C19 UNK     1       8.461   4.938   9.840  1.00  0.00     0.001 A 
HETATM   29  C18 UNK     1       9.711   4.490  10.257  1.00  0.00     0.001 A 
ENDBRANCH  18  20
ENDBRANCH   4  18
TORSDOF 3
ENDMDL
MODEL 10
REMARK VINA RESULT:      -9.8      6.268      8.580
REMARK  3 active torsions:
REMARK  status: ('A' for Active; 'I' for Inactive)
REMARK    1  A    between atoms: C12_18  and  N1_5 
REMARK    2  A    between atoms: C2_8  and  N1_5 
REMARK    3  A    between atoms: C4_10  and  C6_12 
ROOT
HETATM    1  S1  UNK     1      18.696   2.169  30.873  1.00  0.00    -0.061 SA
HETATM    2  N2  UNK     1      18.048   3.236  33.137  1.00  0.00    -0.223 NA
HETATM    3  C6  UNK     1      18.250   4.262  32.233  1.00  0.00     0.082 A 
HETATM    4  C12 UNK     1      18.255   2.093  32.528  1.00  0.00     0.171 A 
HETATM    5  C17 UNK     1      18.607   3.879  30.958  1.00  0.00     0.086 A 
ENDROOT
BRANCH   3   6
HETATM    6  C4  UNK     1      18.082   5.627  32.665  1.00  0.00     0.070 A 
HETATM    7  C15 UNK     1      19.269   6.343  33.226  1.00  0.00     0.301 A 
HETATM    8  O1  UNK     1      19.075   7.652  33.655  1.00  0.00    -0.274 OA
HETATM    9  O2  UNK     1      20.373   5.813  33.306  1.00  0.00    -0.259 OA
HETATM   10  C8  UNK     1      17.831   8.300  33.550  1.00  0.00     0.089 A 
HETATM   11  C20 UNK     1      17.742   9.617  33.996  1.00  0.00     0.039 A 
HETATM   12  C5  UNK     1      16.736   7.635  33.014  1.00  0.00     0.000 A 
HETATM   13  C22 UNK     1      16.523  10.282  33.901  1.00  0.00     0.022 A 
HETATM   14  C21 UNK     1      15.411   9.629  33.364  1.00  0.00     0.011 A 
HETATM   15 Br1  UNK     1      13.756  10.535  33.243  1.00  0.00    -0.051 Br
HETATM   16  C16 UNK     1      15.516   8.308  32.921  1.00  0.00     0.033 A 
HETATM   17  C7  UNK     1      16.902   6.260  32.572  1.00  0.00     0.034 A 
ENDBRANCH   3   6
BRANCH   4  18
HETATM   18  N1  UNK     1      18.141   0.874  33.129  1.00  0.00    -0.334 N 
HETATM   19  H2  UNK     1      18.115   0.071  32.509  1.00  0.00     0.168 HD
BRANCH  18  20
HETATM   20  C2  UNK     1      17.996   0.549  34.501  1.00  0.00     0.045 A 
HETATM   21  C1  UNK     1      18.624  -0.576  35.061  1.00  0.00     0.001 A 
HETATM   22  C3  UNK     1      18.446  -0.853  36.437  1.00  0.00    -0.024 A 
HETATM   23  C10 UNK     1      19.424  -1.430  34.285  1.00  0.00     0.014 A 
HETATM   24  C11 UNK     1      17.646   0.001  37.212  1.00  0.00     0.012 A 
HETATM   25  C13 UNK     1      19.073  -1.978  36.997  1.00  0.00     0.012 A 
HETATM   26  C14 UNK     1      17.030   1.114  36.639  1.00  0.00     0.003 A 
HETATM   27  C9  UNK     1      17.204   1.388  35.286  1.00  0.00     0.030 A 
HETATM   28  C19 UNK     1      19.865  -2.817  36.211  1.00  0.00     0.001 A 
HETATM   29  C18 UNK     1      20.039  -2.543  34.858  1.00  0.00     0.001 A 
ENDBRANCH  18  20
ENDBRANCH   4  18
TORSDOF 3
ENDMDL
