MODEL 1
REMARK VINA RESULT:     -10.2      0.000      0.000
REMARK  7 active torsions:
REMARK  status: ('A' for Active; 'I' for Inactive)
REMARK    1  A    between atoms: C17_25  and  O1_3 
REMARK    2  A    between atoms: C8_16  and  O1_3 
REMARK       I    between atoms: C12_20  and  N1_8 
REMARK    3  A    between atoms: C4_12  and  N1_8 
REMARK    4  A    between atoms: C1_9  and  C3_11 
REMARK    5  A    between atoms: C2_10  and  C8_16 
REMARK    6  A    between atoms: C12_20  and  C9_17 
REMARK    7  A    between atoms: C17_25  and  C18_26 
ROOT
HETATM    1  S1  UNK     1      17.883  -0.623  36.849  1.00  0.00    -0.082 SA
HETATM    2  C1  UNK     1      19.378  -2.678  36.474  1.00  0.00    -0.000 A 
HETATM    3  C2  UNK     1      19.665  -1.781  35.405  1.00  0.00     0.085 A 
HETATM    4  C4  UNK     1      18.922  -0.649  35.504  1.00  0.00     0.094 A 
HETATM    5  C5  UNK     1      18.427  -2.173  37.332  1.00  0.00     0.065 A 
ENDROOT
BRANCH   4   6
HETATM    6  N1  UNK     1      18.882   0.484  34.685  1.00  0.00    -0.316 N 
HETATM    7  C12 UNK     1      17.743   1.053  34.133  1.00  0.00     0.262 C 
HETATM    8  O4  UNK     1      16.572   0.693  34.246  1.00  0.00    -0.267 OA
HETATM    9  H4  UNK     1      19.793   0.886  34.482  1.00  0.00     0.169 HD
BRANCH   7  10
HETATM   10  C9  UNK     1      18.061   2.235  33.321  1.00  0.00     0.108 A 
HETATM   11  C15 UNK     1      18.006   3.416  33.949  1.00  0.00     0.037 A 
HETATM   12  C11 UNK     1      18.305   4.644  33.228  1.00  0.00     0.000 A 
HETATM   13  C16 UNK     1      18.647   4.567  31.882  1.00  0.00     0.089 A 
HETATM   14  C20 UNK     1      18.260   5.897  33.842  1.00  0.00     0.033 A 
HETATM   15  O2  UNK     1      18.703   3.322  31.227  1.00  0.00    -0.274 OA
HETATM   16  C22 UNK     1      18.944   5.705  31.134  1.00  0.00     0.039 A 
HETATM   17  C19 UNK     1      18.422   2.130  31.890  1.00  0.00     0.304 A 
HETATM   18  O5  UNK     1      18.475   1.049  31.312  1.00  0.00    -0.259 OA
HETATM   19  C24 UNK     1      18.896   6.952  31.754  1.00  0.00     0.022 A 
HETATM   20  C23 UNK     1      18.555   7.048  33.105  1.00  0.00     0.011 A 
HETATM   21 Br1  UNK     1      18.493   8.743  33.941  1.00  0.00    -0.051 Br
ENDBRANCH   7  10
ENDBRANCH   4   6
BRANCH   3  22
HETATM   22  C8  UNK     1      20.612  -2.017  34.343  1.00  0.00     0.297 C 
HETATM   23  O3  UNK     1      21.840  -2.150  34.500  1.00  0.00    -0.259 OA
BRANCH  22  24
HETATM   24  O1  UNK     1      20.003  -2.080  33.115  1.00  0.00    -0.317 OA
BRANCH  24  25
HETATM   25  C17 UNK     1      20.848  -2.052  31.959  1.00  0.00     0.178 C 
BRANCH  25  26
HETATM   26  C18 UNK     1      19.980  -2.132  30.713  1.00  0.00     0.022 C 
HETATM   27  C25 UNK     1      20.560  -1.319  29.568  1.00  0.00     0.007 C 
ENDBRANCH  25  26
ENDBRANCH  24  25
ENDBRANCH  22  24
ENDBRANCH   3  22
BRANCH   2  28
HETATM   28  C3  UNK     1      19.957  -3.975  36.715  1.00  0.00    -0.024 A 
HETATM   29  C6  UNK     1      19.501  -5.080  36.001  1.00  0.00     0.013 A 
HETATM   30  C13 UNK     1      20.061  -6.336  36.233  1.00  0.00     0.007 A 
HETATM   31  C10 UNK     1      21.076  -6.483  37.178  1.00  0.00    -0.062 A 
HETATM   32  C14 UNK     1      21.530  -5.374  37.892  1.00  0.00     0.007 A 
HETATM   33  C21 UNK     1      21.675  -7.827  37.427  1.00  0.00     0.048 C 
HETATM   34  C7  UNK     1      20.970  -4.118  37.660  1.00  0.00     0.013 A 
ENDBRANCH   2  28
TORSDOF 7
ENDMDL
MODEL 2
REMARK VINA RESULT:      -9.4      3.759      5.863
REMARK  7 active torsions:
REMARK  status: ('A' for Active; 'I' for Inactive)
REMARK    1  A    between atoms: C17_25  and  O1_3 
REMARK    2  A    between atoms: C8_16  and  O1_3 
REMARK       I    between atoms: C12_20  and  N1_8 
REMARK    3  A    between atoms: C4_12  and  N1_8 
REMARK    4  A    between atoms: C1_9  and  C3_11 
REMARK    5  A    between atoms: C2_10  and  C8_16 
REMARK    6  A    between atoms: C12_20  and  C9_17 
REMARK    7  A    between atoms: C17_25  and  C18_26 
ROOT
HETATM    1  S1  UNK     1      20.152  -3.603  37.080  1.00  0.00    -0.082 SA
HETATM    2  C1  UNK     1      19.990  -6.146  37.405  1.00  0.00    -0.000 A 
HETATM    3  C2  UNK     1      19.994  -5.928  35.997  1.00  0.00     0.085 A 
HETATM    4  C4  UNK     1      20.077  -4.603  35.707  1.00  0.00     0.094 A 
HETATM    5  C5  UNK     1      20.071  -4.966  38.112  1.00  0.00     0.065 A 
ENDROOT
BRANCH   4   6
HETATM    6  N1  UNK     1      20.112  -3.945  34.474  1.00  0.00    -0.316 N 
HETATM    7  C12 UNK     1      20.770  -2.755  34.201  1.00  0.00     0.262 C 
HETATM    8  O4  UNK     1      21.437  -2.054  34.961  1.00  0.00    -0.267 OA
HETATM    9  H4  UNK     1      19.578  -4.403  33.741  1.00  0.00     0.169 HD
BRANCH   7  10
HETATM   10  C9  UNK     1      20.599  -2.344  32.802  1.00  0.00     0.108 A 
HETATM   11  C15 UNK     1      20.032  -1.147  32.602  1.00  0.00     0.037 A 
HETATM   12  C11 UNK     1      19.821  -0.653  31.250  1.00  0.00     0.000 A 
HETATM   13  C16 UNK     1      20.218  -1.443  30.176  1.00  0.00     0.089 A 
HETATM   14  C20 UNK     1      19.234   0.587  30.994  1.00  0.00     0.033 A 
HETATM   15  O2  UNK     1      20.814  -2.701  30.392  1.00  0.00    -0.274 OA
HETATM   16  C22 UNK     1      20.044  -1.029  28.857  1.00  0.00     0.039 A 
HETATM   17  C19 UNK     1      21.028  -3.200  31.674  1.00  0.00     0.304 A 
HETATM   18  O5  UNK     1      21.548  -4.297  31.854  1.00  0.00    -0.259 OA
HETATM   19  C24 UNK     1      19.457   0.210  28.610  1.00  0.00     0.022 A 
HETATM   20  C23 UNK     1      19.053   1.017  29.676  1.00  0.00     0.011 A 
HETATM   21 Br1  UNK     1      18.258   2.699  29.334  1.00  0.00    -0.051 Br
ENDBRANCH   7  10
ENDBRANCH   4   6
BRANCH   3  22
HETATM   22  C8  UNK     1      19.919  -6.955  34.988  1.00  0.00     0.297 C 
HETATM   23  O3  UNK     1      18.877  -7.306  34.404  1.00  0.00    -0.259 OA
BRANCH  22  24
HETATM   24  O1  UNK     1      21.145  -7.517  34.735  1.00  0.00    -0.317 OA
BRANCH  24  25
HETATM   25  C17 UNK     1      21.255  -8.940  34.860  1.00  0.00     0.178 C 
BRANCH  25  26
HETATM   26  C18 UNK     1      22.178  -9.261  36.026  1.00  0.00     0.022 C 
HETATM   27  C25 UNK     1      21.980 -10.680  36.529  1.00  0.00     0.007 C 
ENDBRANCH  25  26
ENDBRANCH  24  25
ENDBRANCH  22  24
ENDBRANCH   3  22
BRANCH   2  28
HETATM   28  C3  UNK     1      19.912  -7.405  38.101  1.00  0.00    -0.024 A 
HETATM   29  C6  UNK     1      18.914  -8.318  37.770  1.00  0.00     0.013 A 
HETATM   30  C13 UNK     1      18.838  -9.537  38.443  1.00  0.00     0.007 A 
HETATM   31  C10 UNK     1      19.761  -9.839  39.444  1.00  0.00    -0.062 A 
HETATM   32  C14 UNK     1      20.758  -8.922  39.773  1.00  0.00     0.007 A 
HETATM   33  C21 UNK     1      19.679 -11.144  40.164  1.00  0.00     0.048 C 
HETATM   34  C7  UNK     1      20.834  -7.703  39.100  1.00  0.00     0.013 A 
ENDBRANCH   2  28
TORSDOF 7
ENDMDL
MODEL 3
REMARK VINA RESULT:      -9.0      7.196     10.792
REMARK  7 active torsions:
REMARK  status: ('A' for Active; 'I' for Inactive)
REMARK    1  A    between atoms: C17_25  and  O1_3 
REMARK    2  A    between atoms: C8_16  and  O1_3 
REMARK       I    between atoms: C12_20  and  N1_8 
REMARK    3  A    between atoms: C4_12  and  N1_8 
REMARK    4  A    between atoms: C1_9  and  C3_11 
REMARK    5  A    between atoms: C2_10  and  C8_16 
REMARK    6  A    between atoms: C12_20  and  C9_17 
REMARK    7  A    between atoms: C17_25  and  C18_26 
ROOT
HETATM    1  S1  UNK     1      19.438   8.190  34.418  1.00  0.00    -0.082 SA
HETATM    2  C1  UNK     1      18.635   6.555  32.607  1.00  0.00    -0.000 A 
HETATM    3  C2  UNK     1      17.675   7.607  32.642  1.00  0.00     0.085 A 
HETATM    4  C4  UNK     1      18.003   8.538  33.575  1.00  0.00     0.094 A 
HETATM    5  C5  UNK     1      19.647   6.747  33.521  1.00  0.00     0.065 A 
ENDROOT
BRANCH   4   6
HETATM    6  N1  UNK     1      17.355   9.721  33.943  1.00  0.00    -0.316 N 
HETATM    7  C12 UNK     1      17.884  11.001  33.867  1.00  0.00     0.262 C 
HETATM    8  O4  UNK     1      18.996  11.350  33.471  1.00  0.00    -0.267 OA
HETATM    9  H4  UNK     1      16.419   9.586  34.315  1.00  0.00     0.169 HD
BRANCH   7  10
HETATM   10  C9  UNK     1      16.933  12.015  34.337  1.00  0.00     0.108 A 
HETATM   11  C15 UNK     1      15.965  11.585  35.155  1.00  0.00     0.037 A 
HETATM   12  C11 UNK     1      14.974  12.516  35.674  1.00  0.00     0.000 A 
HETATM   13  C16 UNK     1      15.053  13.855  35.305  1.00  0.00     0.089 A 
HETATM   14  C20 UNK     1      13.948  12.111  36.528  1.00  0.00     0.033 A 
HETATM   15  O2  UNK     1      16.074  14.303  34.444  1.00  0.00    -0.274 OA
HETATM   16  C22 UNK     1      14.136  14.798  35.766  1.00  0.00     0.039 A 
HETATM   17  C19 UNK     1      17.035  13.436  33.932  1.00  0.00     0.304 A 
HETATM   18  O5  UNK     1      17.921  13.833  33.183  1.00  0.00    -0.259 OA
HETATM   19  C24 UNK     1      13.114  14.385  36.618  1.00  0.00     0.022 A 
HETATM   20  C23 UNK     1      13.020  13.045  37.000  1.00  0.00     0.011 A 
HETATM   21 Br1  UNK     1      11.631  12.492  38.158  1.00  0.00    -0.051 Br
ENDBRANCH   7  10
ENDBRANCH   4   6
BRANCH   3  22
HETATM   22  C8  UNK     1      16.499   7.699  31.812  1.00  0.00     0.297 C 
HETATM   23  O3  UNK     1      16.362   8.485  30.856  1.00  0.00    -0.259 OA
BRANCH  22  24
HETATM   24  O1  UNK     1      15.527   6.809  32.195  1.00  0.00    -0.317 OA
BRANCH  24  25
HETATM   25  C17 UNK     1      14.203   7.321  32.381  1.00  0.00     0.178 C 
BRANCH  25  26
HETATM   26  C18 UNK     1      14.179   8.181  33.635  1.00  0.00     0.022 C 
HETATM   27  C25 UNK     1      13.834   9.626  33.323  1.00  0.00     0.007 C 
ENDBRANCH  25  26
ENDBRANCH  24  25
ENDBRANCH  22  24
ENDBRANCH   3  22
BRANCH   2  28
HETATM   28  C3  UNK     1      18.635   5.392  31.757  1.00  0.00    -0.024 A 
HETATM   29  C6  UNK     1      18.219   4.163  32.265  1.00  0.00     0.013 A 
HETATM   30  C13 UNK     1      18.218   3.037  31.443  1.00  0.00     0.007 A 
HETATM   31  C10 UNK     1      18.634   3.142  30.116  1.00  0.00    -0.062 A 
HETATM   32  C14 UNK     1      19.051   4.373  29.611  1.00  0.00     0.007 A 
HETATM   33  C21 UNK     1      18.634   1.936  29.237  1.00  0.00     0.048 C 
HETATM   34  C7  UNK     1      19.051   5.500  30.433  1.00  0.00     0.013 A 
ENDBRANCH   2  28
TORSDOF 7
ENDMDL
MODEL 4
REMARK VINA RESULT:      -8.9      7.251     10.873
REMARK  7 active torsions:
REMARK  status: ('A' for Active; 'I' for Inactive)
REMARK    1  A    between atoms: C17_25  and  O1_3 
REMARK    2  A    between atoms: C8_16  and  O1_3 
REMARK       I    between atoms: C12_20  and  N1_8 
REMARK    3  A    between atoms: C4_12  and  N1_8 
REMARK    4  A    between atoms: C1_9  and  C3_11 
REMARK    5  A    between atoms: C2_10  and  C8_16 
REMARK    6  A    between atoms: C12_20  and  C9_17 
REMARK    7  A    between atoms: C17_25  and  C18_26 
ROOT
HETATM    1  S1  UNK     1      19.372   8.232  34.441  1.00  0.00    -0.082 SA
HETATM    2  C1  UNK     1      18.598   6.583  32.630  1.00  0.00    -0.000 A 
HETATM    3  C2  UNK     1      17.634   7.632  32.647  1.00  0.00     0.085 A 
HETATM    4  C4  UNK     1      17.947   8.570  33.579  1.00  0.00     0.094 A 
HETATM    5  C5  UNK     1      19.598   6.785  33.556  1.00  0.00     0.065 A 
ENDROOT
BRANCH   4   6
HETATM    6  N1  UNK     1      17.290   9.752  33.932  1.00  0.00    -0.316 N 
HETATM    7  C12 UNK     1      17.824  11.031  33.881  1.00  0.00     0.262 C 
HETATM    8  O4  UNK     1      18.950  11.380  33.526  1.00  0.00    -0.267 OA
HETATM    9  H4  UNK     1      16.341   9.618  34.270  1.00  0.00     0.169 HD
BRANCH   7  10
HETATM   10  C9  UNK     1      16.860  12.046  34.324  1.00  0.00     0.108 A 
HETATM   11  C15 UNK     1      17.036  13.281  33.841  1.00  0.00     0.037 A 
HETATM   12  C11 UNK     1      16.131  14.354  34.223  1.00  0.00     0.000 A 
HETATM   13  C16 UNK     1      15.084  14.072  35.095  1.00  0.00     0.089 A 
HETATM   14  C20 UNK     1      16.276  15.657  33.744  1.00  0.00     0.033 A 
HETATM   15  O2  UNK     1      14.903  12.770  35.601  1.00  0.00    -0.274 OA
HETATM   16  C22 UNK     1      14.182  15.054  35.500  1.00  0.00     0.039 A 
HETATM   17  C19 UNK     1      15.753  11.724  35.254  1.00  0.00     0.304 A 
HETATM   18  O5  UNK     1      15.589  10.592  35.698  1.00  0.00    -0.259 OA
HETATM   19  C24 UNK     1      14.336  16.352  35.018  1.00  0.00     0.022 A 
HETATM   20  C23 UNK     1      15.379  16.653  34.141  1.00  0.00     0.011 A 
HETATM   21 Br1  UNK     1      15.581  18.417  33.489  1.00  0.00    -0.051 Br
ENDBRANCH   7  10
ENDBRANCH   4   6
BRANCH   3  22
HETATM   22  C8  UNK     1      16.468   7.715  31.801  1.00  0.00     0.297 C 
HETATM   23  O3  UNK     1      16.336   8.502  30.846  1.00  0.00    -0.259 OA
BRANCH  22  24
HETATM   24  O1  UNK     1      15.501   6.813  32.169  1.00  0.00    -0.317 OA
BRANCH  24  25
HETATM   25  C17 UNK     1      14.158   7.299  32.282  1.00  0.00     0.178 C 
BRANCH  25  26
HETATM   26  C18 UNK     1      14.063   8.200  33.504  1.00  0.00     0.022 C 
HETATM   27  C25 UNK     1      13.732   9.633  33.124  1.00  0.00     0.007 C 
ENDBRANCH  25  26
ENDBRANCH  24  25
ENDBRANCH  22  24
ENDBRANCH   3  22
BRANCH   2  28
HETATM   28  C3  UNK     1      18.613   5.415  31.787  1.00  0.00    -0.024 A 
HETATM   29  C6  UNK     1      18.180   4.192  32.292  1.00  0.00     0.013 A 
HETATM   30  C13 UNK     1      18.195   3.060  31.477  1.00  0.00     0.007 A 
HETATM   31  C10 UNK     1      18.642   3.156  30.159  1.00  0.00    -0.062 A 
HETATM   32  C14 UNK     1      19.075   4.383  29.658  1.00  0.00     0.007 A 
HETATM   33  C21 UNK     1      18.658   1.945  29.287  1.00  0.00     0.048 C 
HETATM   34  C7  UNK     1      19.061   5.514  30.473  1.00  0.00     0.013 A 
ENDBRANCH   2  28
TORSDOF 7
ENDMDL
MODEL 5
REMARK VINA RESULT:      -8.8      4.065      9.726
REMARK  7 active torsions:
REMARK  status: ('A' for Active; 'I' for Inactive)
REMARK    1  A    between atoms: C17_25  and  O1_3 
REMARK    2  A    between atoms: C8_16  and  O1_3 
REMARK       I    between atoms: C12_20  and  N1_8 
REMARK    3  A    between atoms: C4_12  and  N1_8 
REMARK    4  A    between atoms: C1_9  and  C3_11 
REMARK    5  A    between atoms: C2_10  and  C8_16 
REMARK    6  A    between atoms: C12_20  and  C9_17 
REMARK    7  A    between atoms: C17_25  and  C18_26 
ROOT
HETATM    1  S1  UNK     1      18.185  -0.596  37.368  1.00  0.00    -0.082 SA
HETATM    2  C1  UNK     1      18.329   0.659  35.132  1.00  0.00    -0.000 A 
HETATM    3  C2  UNK     1      18.507  -0.721  34.822  1.00  0.00     0.085 A 
HETATM    4  C4  UNK     1      18.449  -1.485  35.943  1.00  0.00     0.094 A 
HETATM    5  C5  UNK     1      18.144   0.867  36.480  1.00  0.00     0.065 A 
ENDROOT
BRANCH   4   6
HETATM    6  N1  UNK     1      18.568  -2.868  36.105  1.00  0.00    -0.316 N 
HETATM    7  C12 UNK     1      19.752  -3.573  36.277  1.00  0.00     0.262 C 
HETATM    8  O4  UNK     1      20.903  -3.141  36.321  1.00  0.00    -0.267 OA
HETATM    9  H4  UNK     1      17.686  -3.371  36.069  1.00  0.00     0.169 HD
BRANCH   7  10
HETATM   10  C9  UNK     1      19.515  -5.015  36.415  1.00  0.00     0.108 A 
HETATM   11  C15 UNK     1      20.573  -5.810  36.213  1.00  0.00     0.037 A 
HETATM   12  C11 UNK     1      20.437  -7.254  36.328  1.00  0.00     0.000 A 
HETATM   13  C16 UNK     1      19.194  -7.789  36.652  1.00  0.00     0.089 A 
HETATM   14  C20 UNK     1      21.512  -8.122  36.126  1.00  0.00     0.033 A 
HETATM   15  O2  UNK     1      18.085  -6.947  36.864  1.00  0.00    -0.274 OA
HETATM   16  C22 UNK     1      18.997  -9.163  36.777  1.00  0.00     0.039 A 
HETATM   17  C19 UNK     1      18.184  -5.563  36.760  1.00  0.00     0.304 A 
HETATM   18  O5  UNK     1      17.213  -4.836  36.947  1.00  0.00    -0.259 OA
HETATM   19  C24 UNK     1      20.075 -10.021  36.573  1.00  0.00     0.022 A 
HETATM   20  C23 UNK     1      21.330  -9.502  36.248  1.00  0.00     0.011 A 
HETATM   21 Br1  UNK     1      22.789 -10.673  35.973  1.00  0.00    -0.051 Br
ENDBRANCH   7  10
ENDBRANCH   4   6
BRANCH   3  22
HETATM   22  C8  UNK     1      18.724  -1.264  33.504  1.00  0.00     0.297 C 
HETATM   23  O3  UNK     1      17.834  -1.438  32.650  1.00  0.00    -0.259 OA
BRANCH  22  24
HETATM   24  O1  UNK     1      20.042  -1.576  33.286  1.00  0.00    -0.317 OA
BRANCH  24  25
HETATM   25  C17 UNK     1      20.399  -2.053  31.984  1.00  0.00     0.178 C 
BRANCH  25  26
HETATM   26  C18 UNK     1      20.617  -0.861  31.065  1.00  0.00     0.022 C 
HETATM   27  C25 UNK     1      20.483  -1.243  29.602  1.00  0.00     0.007 C 
ENDBRANCH  25  26
ENDBRANCH  24  25
ENDBRANCH  22  24
ENDBRANCH   3  22
BRANCH   2  28
HETATM   28  C3  UNK     1      18.328   1.773  34.218  1.00  0.00    -0.024 A 
HETATM   29  C6  UNK     1      18.302   1.542  32.845  1.00  0.00     0.013 A 
HETATM   30  C13 UNK     1      18.301   2.620  31.960  1.00  0.00     0.007 A 
HETATM   31  C10 UNK     1      18.326   3.925  32.451  1.00  0.00    -0.062 A 
HETATM   32  C14 UNK     1      18.354   4.152  33.827  1.00  0.00     0.007 A 
HETATM   33  C21 UNK     1      18.326   5.078  31.504  1.00  0.00     0.048 C 
HETATM   34  C7  UNK     1      18.355   3.074  34.712  1.00  0.00     0.013 A 
ENDBRANCH   2  28
TORSDOF 7
ENDMDL
MODEL 6
REMARK VINA RESULT:      -8.7      4.295      9.920
REMARK  7 active torsions:
REMARK  status: ('A' for Active; 'I' for Inactive)
REMARK    1  A    between atoms: C17_25  and  O1_3 
REMARK    2  A    between atoms: C8_16  and  O1_3 
REMARK       I    between atoms: C12_20  and  N1_8 
REMARK    3  A    between atoms: C4_12  and  N1_8 
REMARK    4  A    between atoms: C1_9  and  C3_11 
REMARK    5  A    between atoms: C2_10  and  C8_16 
REMARK    6  A    between atoms: C12_20  and  C9_17 
REMARK    7  A    between atoms: C17_25  and  C18_26 
ROOT
HETATM    1  S1  UNK     1      17.574  -1.709  37.921  1.00  0.00    -0.082 SA
HETATM    2  C1  UNK     1      18.256  -0.076  36.059  1.00  0.00    -0.000 A 
HETATM    3  C2  UNK     1      18.722  -1.359  35.649  1.00  0.00     0.085 A 
HETATM    4  C4  UNK     1      18.413  -2.309  36.570  1.00  0.00     0.094 A 
HETATM    5  C5  UNK     1      17.613  -0.124  37.277  1.00  0.00     0.065 A 
ENDROOT
BRANCH   4   6
HETATM    6  N1  UNK     1      18.671  -3.682  36.577  1.00  0.00    -0.316 N 
HETATM    7  C12 UNK     1      19.816  -4.297  37.065  1.00  0.00     0.262 C 
HETATM    8  O4  UNK     1      20.807  -3.778  37.576  1.00  0.00    -0.267 OA
HETATM    9  H4  UNK     1      17.937  -4.248  36.160  1.00  0.00     0.169 HD
BRANCH   7  10
HETATM   10  C9  UNK     1      19.760  -5.756  36.916  1.00  0.00     0.108 A 
HETATM   11  C15 UNK     1      20.935  -6.383  36.785  1.00  0.00     0.037 A 
HETATM   12  C11 UNK     1      20.982  -7.829  36.632  1.00  0.00     0.000 A 
HETATM   13  C16 UNK     1      19.788  -8.543  36.624  1.00  0.00     0.089 A 
HETATM   14  C20 UNK     1      22.185  -8.525  36.492  1.00  0.00     0.033 A 
HETATM   15  O2  UNK     1      18.554  -7.878  36.762  1.00  0.00    -0.274 OA
HETATM   16  C22 UNK     1      19.764  -9.929  36.480  1.00  0.00     0.039 A 
HETATM   17  C19 UNK     1      18.478  -6.496  36.910  1.00  0.00     0.304 A 
HETATM   18  O5  UNK     1      17.399  -5.924  37.030  1.00  0.00    -0.259 OA
HETATM   19  C24 UNK     1      20.968 -10.615  36.341  1.00  0.00     0.022 A 
HETATM   20  C23 UNK     1      22.176  -9.915  36.348  1.00  0.00     0.011 A 
HETATM   21 Br1  UNK     1      23.808 -10.852  36.159  1.00  0.00    -0.051 Br
ENDBRANCH   7  10
ENDBRANCH   4   6
BRANCH   3  22
HETATM   22  C8  UNK     1      19.432  -1.643  34.427  1.00  0.00     0.297 C 
HETATM   23  O3  UNK     1      20.595  -2.082  34.364  1.00  0.00    -0.259 OA
BRANCH  22  24
HETATM   24  O1  UNK     1      18.672  -1.372  33.316  1.00  0.00    -0.317 OA
BRANCH  24  25
HETATM   25  C17 UNK     1      19.295  -1.537  32.037  1.00  0.00     0.178 C 
BRANCH  25  26
HETATM   26  C18 UNK     1      19.527  -0.165  31.422  1.00  0.00     0.022 C 
HETATM   27  C25 UNK     1      20.439  -0.236  30.211  1.00  0.00     0.007 C 
ENDBRANCH  25  26
ENDBRANCH  24  25
ENDBRANCH  22  24
ENDBRANCH   3  22
BRANCH   2  28
HETATM   28  C3  UNK     1      18.392   1.175  35.358  1.00  0.00    -0.024 A 
HETATM   29  C6  UNK     1      19.182   2.188  35.897  1.00  0.00     0.013 A 
HETATM   30  C13 UNK     1      19.314   3.400  35.219  1.00  0.00     0.007 A 
HETATM   31  C10 UNK     1      18.656   3.594  34.004  1.00  0.00    -0.062 A 
HETATM   32  C14 UNK     1      17.865   2.578  33.469  1.00  0.00     0.007 A 
HETATM   33  C21 UNK     1      18.797   4.891  33.279  1.00  0.00     0.048 C 
HETATM   34  C7  UNK     1      17.733   1.366  34.147  1.00  0.00     0.013 A 
ENDBRANCH   2  28
TORSDOF 7
ENDMDL
MODEL 7
REMARK VINA RESULT:      -8.6      9.920     13.832
REMARK  7 active torsions:
REMARK  status: ('A' for Active; 'I' for Inactive)
REMARK    1  A    between atoms: C17_25  and  O1_3 
REMARK    2  A    between atoms: C8_16  and  O1_3 
REMARK       I    between atoms: C12_20  and  N1_8 
REMARK    3  A    between atoms: C4_12  and  N1_8 
REMARK    4  A    between atoms: C1_9  and  C3_11 
REMARK    5  A    between atoms: C2_10  and  C8_16 
REMARK    6  A    between atoms: C12_20  and  C9_17 
REMARK    7  A    between atoms: C17_25  and  C18_26 
ROOT
HETATM    1  S1  UNK     1      29.715  -9.511  38.239  1.00  0.00    -0.082 SA
HETATM    2  C1  UNK     1      31.453  -8.196  36.880  1.00  0.00    -0.000 A 
HETATM    3  C2  UNK     1      30.267  -7.406  36.873  1.00  0.00     0.085 A 
HETATM    4  C4  UNK     1      29.271  -8.013  37.570  1.00  0.00     0.094 A 
HETATM    5  C5  UNK     1      31.292  -9.366  37.587  1.00  0.00     0.065 A 
ENDROOT
BRANCH   4   6
HETATM    6  N1  UNK     1      27.959  -7.602  37.821  1.00  0.00    -0.316 N 
HETATM    7  C12 UNK     1      27.268  -7.753  39.015  1.00  0.00     0.262 C 
HETATM    8  O4  UNK     1      27.654  -8.264  40.066  1.00  0.00    -0.267 OA
HETATM    9  H4  UNK     1      27.496  -7.174  37.024  1.00  0.00     0.169 HD
BRANCH   7  10
HETATM   10  C9  UNK     1      25.907  -7.210  38.932  1.00  0.00     0.108 A 
HETATM   11  C15 UNK     1      24.912  -8.105  38.928  1.00  0.00     0.037 A 
HETATM   12  C11 UNK     1      23.528  -7.663  38.849  1.00  0.00     0.000 A 
HETATM   13  C16 UNK     1      23.261  -6.299  38.779  1.00  0.00     0.089 A 
HETATM   14  C20 UNK     1      22.458  -8.560  38.842  1.00  0.00     0.033 A 
HETATM   15  O2  UNK     1      24.312  -5.362  38.783  1.00  0.00    -0.274 OA
HETATM   16  C22 UNK     1      21.958  -5.810  38.701  1.00  0.00     0.039 A 
HETATM   17  C19 UNK     1      25.646  -5.755  38.857  1.00  0.00     0.304 A 
HETATM   18  O5  UNK     1      26.556  -4.932  38.862  1.00  0.00    -0.259 OA
HETATM   19  C24 UNK     1      20.897  -6.712  38.694  1.00  0.00     0.022 A 
HETATM   20  C23 UNK     1      21.146  -8.084  38.765  1.00  0.00     0.011 A 
HETATM   21 Br1  UNK     1      19.701  -9.304  38.755  1.00  0.00    -0.051 Br
ENDBRANCH   7  10
ENDBRANCH   4   6
BRANCH   3  22
HETATM   22  C8  UNK     1      30.112  -6.129  36.221  1.00  0.00     0.297 C 
HETATM   23  O3  UNK     1      30.051  -5.961  34.989  1.00  0.00    -0.259 OA
BRANCH  22  24
HETATM   24  O1  UNK     1      30.036  -5.097  37.123  1.00  0.00    -0.317 OA
BRANCH  24  25
HETATM   25  C17 UNK     1      31.270  -4.555  37.608  1.00  0.00     0.178 C 
BRANCH  25  26
HETATM   26  C18 UNK     1      31.712  -3.433  36.682  1.00  0.00     0.022 C 
HETATM   27  C25 UNK     1      32.880  -3.851  35.806  1.00  0.00     0.007 C 
ENDBRANCH  25  26
ENDBRANCH  24  25
ENDBRANCH  22  24
ENDBRANCH   3  22
BRANCH   2  28
HETATM   28  C3  UNK     1      32.714  -7.894  36.253  1.00  0.00    -0.024 A 
HETATM   29  C6  UNK     1      33.696  -7.211  36.967  1.00  0.00     0.013 A 
HETATM   30  C13 UNK     1      34.918  -6.919  36.361  1.00  0.00     0.007 A 
HETATM   31  C10 UNK     1      35.154  -7.311  35.043  1.00  0.00    -0.062 A 
HETATM   32  C14 UNK     1      34.168  -7.994  34.332  1.00  0.00     0.007 A 
HETATM   33  C21 UNK     1      36.461  -6.997  34.394  1.00  0.00     0.048 C 
HETATM   34  C7  UNK     1      32.946  -8.286  34.938  1.00  0.00     0.013 A 
ENDBRANCH   2  28
TORSDOF 7
ENDMDL
MODEL 8
REMARK VINA RESULT:      -8.6      3.938      9.767
REMARK  7 active torsions:
REMARK  status: ('A' for Active; 'I' for Inactive)
REMARK    1  A    between atoms: C17_25  and  O1_3 
REMARK    2  A    between atoms: C8_16  and  O1_3 
REMARK       I    between atoms: C12_20  and  N1_8 
REMARK    3  A    between atoms: C4_12  and  N1_8 
REMARK    4  A    between atoms: C1_9  and  C3_11 
REMARK    5  A    between atoms: C2_10  and  C8_16 
REMARK    6  A    between atoms: C12_20  and  C9_17 
REMARK    7  A    between atoms: C17_25  and  C18_26 
ROOT
HETATM    1  S1  UNK     1      19.031   5.095  29.538  1.00  0.00    -0.082 SA
HETATM    2  C1  UNK     1      18.115   6.387  31.561  1.00  0.00    -0.000 A 
HETATM    3  C2  UNK     1      18.330   5.051  32.010  1.00  0.00     0.085 A 
HETATM    4  C4  UNK     1      18.819   4.272  31.010  1.00  0.00     0.094 A 
HETATM    5  C5  UNK     1      18.456   6.548  30.236  1.00  0.00     0.065 A 
ENDROOT
BRANCH   4   6
HETATM    6  N1  UNK     1      19.170   2.919  31.005  1.00  0.00    -0.316 N 
HETATM    7  C12 UNK     1      18.538   1.912  30.289  1.00  0.00     0.262 C 
HETATM    8  O4  UNK     1      17.570   1.998  29.535  1.00  0.00    -0.267 OA
HETATM    9  H4  UNK     1      19.954   2.688  31.609  1.00  0.00     0.169 HD
BRANCH   7  10
HETATM   10  C9  UNK     1      19.165   0.604  30.514  1.00  0.00     0.108 A 
HETATM   11  C15 UNK     1      19.150   0.150  31.773  1.00  0.00     0.037 A 
HETATM   12  C11 UNK     1      19.747  -1.138  32.095  1.00  0.00     0.000 A 
HETATM   13  C16 UNK     1      20.329  -1.883  31.075  1.00  0.00     0.089 A 
HETATM   14  C20 UNK     1      19.755  -1.651  33.394  1.00  0.00     0.033 A 
HETATM   15  O2  UNK     1      20.341  -1.400  29.752  1.00  0.00    -0.274 OA
HETATM   16  C22 UNK     1      20.918  -3.123  31.316  1.00  0.00     0.039 A 
HETATM   17  C19 UNK     1      19.779  -0.173  29.413  1.00  0.00     0.304 A 
HETATM   18  O5  UNK     1      19.792   0.241  28.258  1.00  0.00    -0.259 OA
HETATM   19  C24 UNK     1      20.922  -3.627  32.615  1.00  0.00     0.022 A 
HETATM   20  C23 UNK     1      20.342  -2.893  33.652  1.00  0.00     0.011 A 
HETATM   21 Br1  UNK     1      20.351  -3.583  35.412  1.00  0.00    -0.051 Br
ENDBRANCH   7  10
ENDBRANCH   4   6
BRANCH   3  22
HETATM   22  C8  UNK     1      18.071   4.561  33.341  1.00  0.00     0.297 C 
HETATM   23  O3  UNK     1      17.988   5.274  34.358  1.00  0.00    -0.259 OA
BRANCH  22  24
HETATM   24  O1  UNK     1      17.923   3.197  33.368  1.00  0.00    -0.317 OA
BRANCH  24  25
HETATM   25  C17 UNK     1      18.349   2.513  34.552  1.00  0.00     0.178 C 
BRANCH  25  26
HETATM   26  C18 UNK     1      17.539   1.233  34.698  1.00  0.00     0.022 C 
HETATM   27  C25 UNK     1      17.986   0.416  35.897  1.00  0.00     0.007 C 
ENDBRANCH  25  26
ENDBRANCH  24  25
ENDBRANCH  22  24
ENDBRANCH   3  22
BRANCH   2  28
HETATM   28  C3  UNK     1      17.608   7.500  32.321  1.00  0.00    -0.024 A 
HETATM   29  C6  UNK     1      16.263   7.849  32.224  1.00  0.00     0.013 A 
HETATM   30  C13 UNK     1      15.771   8.927  32.960  1.00  0.00     0.007 A 
HETATM   31  C10 UNK     1      16.626   9.652  33.791  1.00  0.00    -0.062 A 
HETATM   32  C14 UNK     1      17.972   9.300  33.884  1.00  0.00     0.007 A 
HETATM   33  C21 UNK     1      16.100  10.805  34.578  1.00  0.00     0.048 C 
HETATM   34  C7  UNK     1      18.464   8.222  33.148  1.00  0.00     0.013 A 
ENDBRANCH   2  28
TORSDOF 7
ENDMDL
MODEL 9
REMARK VINA RESULT:      -8.6      4.304      9.941
REMARK  7 active torsions:
REMARK  status: ('A' for Active; 'I' for Inactive)
REMARK    1  A    between atoms: C17_25  and  O1_3 
REMARK    2  A    between atoms: C8_16  and  O1_3 
REMARK       I    between atoms: C12_20  and  N1_8 
REMARK    3  A    between atoms: C4_12  and  N1_8 
REMARK    4  A    between atoms: C1_9  and  C3_11 
REMARK    5  A    between atoms: C2_10  and  C8_16 
REMARK    6  A    between atoms: C12_20  and  C9_17 
REMARK    7  A    between atoms: C17_25  and  C18_26 
ROOT
HETATM    1  S1  UNK     1      17.843  -1.880  37.931  1.00  0.00    -0.082 SA
HETATM    2  C1  UNK     1      18.405  -0.191  36.079  1.00  0.00    -0.000 A 
HETATM    3  C2  UNK     1      18.881  -1.453  35.620  1.00  0.00     0.085 A 
HETATM    4  C4  UNK     1      18.635  -2.430  36.531  1.00  0.00     0.094 A 
HETATM    5  C5  UNK     1      17.818  -0.280  37.322  1.00  0.00     0.065 A 
ENDROOT
BRANCH   4   6
HETATM    6  N1  UNK     1      18.925  -3.797  36.496  1.00  0.00    -0.316 N 
HETATM    7  C12 UNK     1      20.134  -4.385  36.839  1.00  0.00     0.262 C 
HETATM    8  O4  UNK     1      21.167  -3.845  37.233  1.00  0.00    -0.267 OA
HETATM    9  H4  UNK     1      18.161  -4.378  36.165  1.00  0.00     0.169 HD
BRANCH   7  10
HETATM   10  C9  UNK     1      20.096  -5.845  36.685  1.00  0.00     0.108 A 
HETATM   11  C15 UNK     1      19.892  -6.552  37.803  1.00  0.00     0.037 A 
HETATM   12  C11 UNK     1      19.837  -8.005  37.752  1.00  0.00     0.000 A 
HETATM   13  C16 UNK     1      20.000  -8.641  36.525  1.00  0.00     0.089 A 
HETATM   14  C20 UNK     1      19.628  -8.784  38.891  1.00  0.00     0.033 A 
HETATM   15  O2  UNK     1      20.214  -7.891  35.352  1.00  0.00    -0.274 OA
HETATM   16  C22 UNK     1      19.959 -10.029  36.407  1.00  0.00     0.039 A 
HETATM   17  C19 UNK     1      20.271  -6.500  35.370  1.00  0.00     0.304 A 
HETATM   18  O5  UNK     1      20.457  -5.854  34.344  1.00  0.00    -0.259 OA
HETATM   19  C24 UNK     1      19.750 -10.798  37.549  1.00  0.00     0.022 A 
HETATM   20  C23 UNK     1      19.584 -10.177  38.789  1.00  0.00     0.011 A 
HETATM   21 Br1  UNK     1      19.299 -11.227  40.336  1.00  0.00    -0.051 Br
ENDBRANCH   7  10
ENDBRANCH   4   6
BRANCH   3  22
HETATM   22  C8  UNK     1      19.543  -1.693  34.361  1.00  0.00     0.297 C 
HETATM   23  O3  UNK     1      20.709  -2.112  34.238  1.00  0.00    -0.259 OA
BRANCH  22  24
HETATM   24  O1  UNK     1      18.733  -1.405  33.291  1.00  0.00    -0.317 OA
BRANCH  24  25
HETATM   25  C17 UNK     1      19.299  -1.545  31.982  1.00  0.00     0.178 C 
BRANCH  25  26
HETATM   26  C18 UNK     1      19.490  -0.161  31.379  1.00  0.00     0.022 C 
HETATM   27  C25 UNK     1      20.491  -0.177  30.238  1.00  0.00     0.007 C 
ENDBRANCH  25  26
ENDBRANCH  24  25
ENDBRANCH  22  24
ENDBRANCH   3  22
BRANCH   2  28
HETATM   28  C3  UNK     1      18.481   1.078  35.401  1.00  0.00    -0.024 A 
HETATM   29  C6  UNK     1      17.798   1.264  34.202  1.00  0.00     0.013 A 
HETATM   30  C13 UNK     1      17.870   2.493  33.545  1.00  0.00     0.007 A 
HETATM   31  C10 UNK     1      18.626   3.531  34.090  1.00  0.00    -0.062 A 
HETATM   32  C14 UNK     1      19.309   3.340  35.290  1.00  0.00     0.007 A 
HETATM   33  C21 UNK     1      18.705   4.845  33.387  1.00  0.00     0.048 C 
HETATM   34  C7  UNK     1      19.236   2.112  35.947  1.00  0.00     0.013 A 
ENDBRANCH   2  28
TORSDOF 7
ENDMDL
MODEL 10
REMARK VINA RESULT:      -8.5     17.688     21.448
REMARK  7 active torsions:
REMARK  status: ('A' for Active; 'I' for Inactive)
REMARK    1  A    between atoms: C17_25  and  O1_3 
REMARK    2  A    between atoms: C8_16  and  O1_3 
REMARK       I    between atoms: C12_20  and  N1_8 
REMARK    3  A    between atoms: C4_12  and  N1_8 
REMARK    4  A    between atoms: C1_9  and  C3_11 
REMARK    5  A    between atoms: C2_10  and  C8_16 
REMARK    6  A    between atoms: C12_20  and  C9_17 
REMARK    7  A    between atoms: C17_25  and  C18_26 
ROOT
HETATM    1  S1  UNK     1      20.537  -5.632  15.079  1.00  0.00    -0.082 SA
HETATM    2  C1  UNK     1      20.358  -6.167  12.573  1.00  0.00    -0.000 A 
HETATM    3  C2  UNK     1      20.084  -4.774  12.700  1.00  0.00     0.085 A 
HETATM    4  C4  UNK     1      20.152  -4.378  13.997  1.00  0.00     0.094 A 
HETATM    5  C5  UNK     1      20.621  -6.755  13.790  1.00  0.00     0.065 A 
ENDROOT
BRANCH   4   6
HETATM    6  N1  UNK     1      19.960  -3.119  14.572  1.00  0.00    -0.316 N 
HETATM    7  C12 UNK     1      18.854  -2.716  15.308  1.00  0.00     0.262 C 
HETATM    8  O4  UNK     1      17.848  -3.362  15.598  1.00  0.00    -0.267 OA
HETATM    9  H4  UNK     1      20.713  -2.459  14.396  1.00  0.00     0.169 HD
BRANCH   7  10
HETATM   10  C9  UNK     1      18.977  -1.326  15.764  1.00  0.00     0.108 A 
HETATM   11  C15 UNK     1      18.963  -1.134  17.089  1.00  0.00     0.037 A 
HETATM   12  C11 UNK     1      19.080   0.209  17.637  1.00  0.00     0.000 A 
HETATM   13  C16 UNK     1      19.206   1.283  16.762  1.00  0.00     0.089 A 
HETATM   14  C20 UNK     1      19.069   0.456  19.011  1.00  0.00     0.033 A 
HETATM   15  O2  UNK     1      19.221   1.076  15.369  1.00  0.00    -0.274 OA
HETATM   16  C22 UNK     1      19.321   2.594  17.222  1.00  0.00     0.039 A 
HETATM   17  C19 UNK     1      19.110  -0.197  14.816  1.00  0.00     0.304 A 
HETATM   18  O5  UNK     1      19.125  -0.370  13.601  1.00  0.00    -0.259 OA
HETATM   19  C24 UNK     1      19.309   2.831  18.594  1.00  0.00     0.022 A 
HETATM   20  C23 UNK     1      19.184   1.765  19.487  1.00  0.00     0.011 A 
HETATM   21 Br1  UNK     1      19.169   2.094  21.350  1.00  0.00    -0.051 Br
ENDBRANCH   7  10
ENDBRANCH   4   6
BRANCH   3  22
HETATM   22  C8  UNK     1      19.772  -3.877  11.614  1.00  0.00     0.297 C 
HETATM   23  O3  UNK     1      18.687  -3.286  11.468  1.00  0.00    -0.259 OA
BRANCH  22  24
HETATM   24  O1  UNK     1      20.822  -3.742  10.741  1.00  0.00    -0.317 OA
BRANCH  24  25
HETATM   25  C17 UNK     1      20.516  -3.334   9.402  1.00  0.00     0.178 C 
BRANCH  25  26
HETATM   26  C18 UNK     1      20.363  -4.573   8.533  1.00  0.00     0.022 C 
HETATM   27  C25 UNK     1      18.939  -4.740   8.033  1.00  0.00     0.007 C 
ENDBRANCH  25  26
ENDBRANCH  24  25
ENDBRANCH  22  24
ENDBRANCH   3  22
BRANCH   2  28
HETATM   28  C3  UNK     1      20.379  -6.953  11.366  1.00  0.00    -0.024 A 
HETATM   29  C6  UNK     1      21.598  -7.312  10.796  1.00  0.00     0.013 A 
HETATM   30  C13 UNK     1      21.620  -8.074   9.627  1.00  0.00     0.007 A 
HETATM   31  C10 UNK     1      20.423  -8.474   9.034  1.00  0.00    -0.062 A 
HETATM   32  C14 UNK     1      19.205  -8.112   9.608  1.00  0.00     0.007 A 
HETATM   33  C21 UNK     1      20.446  -9.288   7.783  1.00  0.00     0.048 C 
HETATM   34  C7  UNK     1      19.183  -7.350  10.776  1.00  0.00     0.013 A 
ENDBRANCH   2  28
TORSDOF 7
ENDMDL
