MODEL 1
REMARK VINA RESULT:      -8.7      0.000      0.000
REMARK  6 active torsions:
REMARK  status: ('A' for Active; 'I' for Inactive)
REMARK    1  A    between atoms: C13_21  and  O2_3 
REMARK    2  A    between atoms: C5_13  and  O2_3 
REMARK    3  A    between atoms: C17_25  and  O5_6 
REMARK       I    between atoms: C10_18  and  N1_8 
REMARK    4  A    between atoms: C11_19  and  N1_8 
REMARK    5  A    between atoms: C10_18  and  C3_11 
REMARK    6  A    between atoms: C12_20  and  C17_25 
ROOT
HETATM    1  O1  UNK     1      19.440  -1.057  34.815  1.00  0.00    -0.271 OA
HETATM    2  O3  UNK     1      20.550  -2.969  34.237  1.00  0.00    -0.259 OA
HETATM    3  C1  UNK     1      18.499  -0.845  37.046  1.00  0.00     0.002 A 
HETATM    4  C2  UNK     1      18.731  -0.317  35.780  1.00  0.00     0.123 A 
HETATM    5  C3  UNK     1      19.674  -2.874  36.436  1.00  0.00     0.108 A 
HETATM    6  C4  UNK     1      19.000  -2.174  37.357  1.00  0.00     0.037 A 
HETATM    7  C5  UNK     1      18.277   0.951  35.419  1.00  0.00     0.103 A 
HETATM    8  C6  UNK     1      17.792  -0.079  37.977  1.00  0.00     0.014 A 
HETATM    9  C7  UNK     1      17.573   1.707  36.352  1.00  0.00     0.040 A 
HETATM   10  C8  UNK     1      19.933  -2.332  35.083  1.00  0.00     0.304 A 
HETATM   11  C9  UNK     1      17.331   1.194  37.628  1.00  0.00     0.004 A 
ENDROOT
BRANCH   5  12
HETATM   12  C10 UNK     1      20.140  -4.205  36.844  1.00  0.00     0.262 C 
HETATM   13  O4  UNK     1      21.347  -4.433  36.897  1.00  0.00    -0.267 OA
HETATM   14  N1  UNK     1      19.083  -5.058  37.126  1.00  0.00    -0.316 N 
HETATM   15  H5  UNK     1      18.128  -4.728  37.015  1.00  0.00     0.169 HD
BRANCH  14  16
HETATM   16  C11 UNK     1      19.186  -6.390  37.540  1.00  0.00     0.093 A 
HETATM   17  S1  UNK     1      19.836  -6.631  39.091  1.00  0.00    -0.083 SA
HETATM   18  C15 UNK     1      19.671  -8.327  38.927  1.00  0.00     0.053 A 
HETATM   19  C14 UNK     1      19.132  -8.678  37.709  1.00  0.00     0.028 A 
HETATM   20  C12 UNK     1      18.849  -7.539  36.901  1.00  0.00     0.073 A 
BRANCH  20  21
HETATM   21  C17 UNK     1      18.282  -7.587  35.578  1.00  0.00     0.295 C 
HETATM   22  O6  UNK     1      17.172  -8.075  35.317  1.00  0.00    -0.259 OA
BRANCH  21  23
HETATM   23  O5  UNK     1      19.086  -7.036  34.603  1.00  0.00    -0.322 OA
HETATM   24  C18 UNK     1      20.433  -7.515  34.527  1.00  0.00     0.213 C 
ENDBRANCH  21  23
ENDBRANCH  20  21
ENDBRANCH  14  16
ENDBRANCH   5  12
BRANCH   7  25
HETATM   25  O2  UNK     1      18.511   1.454  34.178  1.00  0.00    -0.349 OA
BRANCH  25  26
HETATM   26  C13 UNK     1      18.301   2.854  33.993  1.00  0.00     0.171 C 
HETATM   27  C16 UNK     1      18.186   3.146  32.513  1.00  0.00     0.034 C 
ENDBRANCH  25  26
ENDBRANCH   7  25
TORSDOF 6
ENDMDL
MODEL 2
REMARK VINA RESULT:      -8.6      2.273      7.890
REMARK  6 active torsions:
REMARK  status: ('A' for Active; 'I' for Inactive)
REMARK    1  A    between atoms: C13_21  and  O2_3 
REMARK    2  A    between atoms: C5_13  and  O2_3 
REMARK    3  A    between atoms: C17_25  and  O5_6 
REMARK       I    between atoms: C10_18  and  N1_8 
REMARK    4  A    between atoms: C11_19  and  N1_8 
REMARK    5  A    between atoms: C10_18  and  C3_11 
REMARK    6  A    between atoms: C12_20  and  C17_25 
ROOT
HETATM    1  O1  UNK     1      20.352  -7.167  35.776  1.00  0.00    -0.271 OA
HETATM    2  O3  UNK     1      20.290  -5.199  34.615  1.00  0.00    -0.259 OA
HETATM    3  C1  UNK     1      20.134  -7.140  38.196  1.00  0.00     0.002 A 
HETATM    4  C2  UNK     1      20.299  -7.845  37.009  1.00  0.00     0.123 A 
HETATM    5  C3  UNK     1      20.069  -5.051  36.969  1.00  0.00     0.108 A 
HETATM    6  C4  UNK     1      20.018  -5.691  38.144  1.00  0.00     0.037 A 
HETATM    7  C5  UNK     1      20.416  -9.233  36.990  1.00  0.00     0.103 A 
HETATM    8  C6  UNK     1      20.084  -7.848  39.400  1.00  0.00     0.014 A 
HETATM    9  C7  UNK     1      20.367  -9.931  38.193  1.00  0.00     0.040 A 
HETATM   10  C8  UNK     1      20.243  -5.781  35.694  1.00  0.00     0.304 A 
HETATM   11  C9  UNK     1      20.201  -9.241  39.396  1.00  0.00     0.004 A 
ENDROOT
BRANCH   5  12
HETATM   12  C10 UNK     1      19.942  -3.590  37.020  1.00  0.00     0.262 C 
HETATM   13  O4  UNK     1      20.757  -2.934  37.666  1.00  0.00    -0.267 OA
HETATM   14  N1  UNK     1      18.855  -3.139  36.285  1.00  0.00    -0.316 N 
HETATM   15  H5  UNK     1      18.254  -3.811  35.816  1.00  0.00     0.169 HD
BRANCH  14  16
HETATM   16  C11 UNK     1      18.460  -1.807  36.130  1.00  0.00     0.093 A 
HETATM   17  S1  UNK     1      17.834  -1.057  37.520  1.00  0.00    -0.083 SA
HETATM   18  C15 UNK     1      17.591   0.402  36.658  1.00  0.00     0.053 A 
HETATM   19  C14 UNK     1      17.984   0.296  35.342  1.00  0.00     0.028 A 
HETATM   20  C12 UNK     1      18.493  -0.999  35.039  1.00  0.00     0.073 A 
BRANCH  20  21
HETATM   21  C17 UNK     1      18.982  -1.413  33.748  1.00  0.00     0.295 C 
HETATM   22  O6  UNK     1      18.360  -1.249  32.687  1.00  0.00    -0.259 OA
BRANCH  21  23
HETATM   23  O5  UNK     1      20.220  -2.019  33.785  1.00  0.00    -0.322 OA
HETATM   24  C18 UNK     1      20.794  -2.396  32.529  1.00  0.00     0.213 C 
ENDBRANCH  21  23
ENDBRANCH  20  21
ENDBRANCH  14  16
ENDBRANCH   5  12
BRANCH   7  25
HETATM   25  O2  UNK     1      20.578  -9.910  35.821  1.00  0.00    -0.349 OA
BRANCH  25  26
HETATM   26  C13 UNK     1      21.890  -9.938  35.262  1.00  0.00     0.171 C 
HETATM   27  C16 UNK     1      22.558 -11.244  35.633  1.00  0.00     0.034 C 
ENDBRANCH  25  26
ENDBRANCH   7  25
TORSDOF 6
ENDMDL
MODEL 3
REMARK VINA RESULT:      -8.6      5.590     11.205
REMARK  6 active torsions:
REMARK  status: ('A' for Active; 'I' for Inactive)
REMARK    1  A    between atoms: C13_21  and  O2_3 
REMARK    2  A    between atoms: C5_13  and  O2_3 
REMARK    3  A    between atoms: C17_25  and  O5_6 
REMARK       I    between atoms: C10_18  and  N1_8 
REMARK    4  A    between atoms: C11_19  and  N1_8 
REMARK    5  A    between atoms: C10_18  and  C3_11 
REMARK    6  A    between atoms: C12_20  and  C17_25 
ROOT
HETATM    1  O1  UNK     1      18.700   0.910  32.642  1.00  0.00    -0.271 OA
HETATM    2  O3  UNK     1      17.922   2.831  33.603  1.00  0.00    -0.259 OA
HETATM    3  C1  UNK     1      19.445   0.942  30.328  1.00  0.00     0.002 A 
HETATM    4  C2  UNK     1      19.227   0.250  31.515  1.00  0.00     0.123 A 
HETATM    5  C3  UNK     1      18.619   2.981  31.344  1.00  0.00     0.108 A 
HETATM    6  C4  UNK     1      19.119   2.358  30.269  1.00  0.00     0.037 A 
HETATM    7  C5  UNK     1      19.518  -1.108  31.636  1.00  0.00     0.103 A 
HETATM    8  C6  UNK     1      19.970   0.253  29.232  1.00  0.00     0.014 A 
HETATM    9  C7  UNK     1      20.040  -1.787  30.539  1.00  0.00     0.040 A 
HETATM   10  C8  UNK     1      18.380   2.264  32.617  1.00  0.00     0.304 A 
HETATM   11  C9  UNK     1      20.266  -1.109  29.340  1.00  0.00     0.004 A 
ENDROOT
BRANCH   5  12
HETATM   12  C10 UNK     1      18.323   4.410  31.187  1.00  0.00     0.262 C 
HETATM   13  O4  UNK     1      18.651   4.985  30.150  1.00  0.00    -0.267 OA
HETATM   14  N1  UNK     1      17.678   4.930  32.300  1.00  0.00    -0.316 N 
HETATM   15  H5  UNK     1      17.491   4.328  33.097  1.00  0.00     0.169 HD
BRANCH  14  16
HETATM   16  C11 UNK     1      17.260   6.254  32.467  1.00  0.00     0.093 A 
HETATM   17  S1  UNK     1      15.677   6.597  31.952  1.00  0.00    -0.083 SA
HETATM   18  C15 UNK     1      15.850   8.234  32.421  1.00  0.00     0.053 A 
HETATM   19  C14 UNK     1      17.094   8.490  32.954  1.00  0.00     0.028 A 
HETATM   20  C12 UNK     1      17.915   7.327  32.979  1.00  0.00     0.073 A 
BRANCH  20  21
HETATM   21  C17 UNK     1      19.266   7.280  33.478  1.00  0.00     0.295 C 
HETATM   22  O6  UNK     1      20.180   6.634  32.944  1.00  0.00    -0.259 OA
BRANCH  21  23
HETATM   23  O5  UNK     1      19.467   8.025  34.621  1.00  0.00    -0.322 OA
HETATM   24  C18 UNK     1      20.316   9.172  34.506  1.00  0.00     0.213 C 
ENDBRANCH  21  23
ENDBRANCH  20  21
ENDBRANCH  14  16
ENDBRANCH   5  12
BRANCH   7  25
HETATM   25  O2  UNK     1      19.299  -1.772  32.803  1.00  0.00    -0.349 OA
BRANCH  25  26
HETATM   26  C13 UNK     1      20.413  -2.451  33.383  1.00  0.00     0.171 C 
HETATM   27  C16 UNK     1      20.254  -2.465  34.888  1.00  0.00     0.034 C 
ENDBRANCH  25  26
ENDBRANCH   7  25
TORSDOF 6
ENDMDL
MODEL 4
REMARK VINA RESULT:      -8.4      1.705      2.639
REMARK  6 active torsions:
REMARK  status: ('A' for Active; 'I' for Inactive)
REMARK    1  A    between atoms: C13_21  and  O2_3 
REMARK    2  A    between atoms: C5_13  and  O2_3 
REMARK    3  A    between atoms: C17_25  and  O5_6 
REMARK       I    between atoms: C10_18  and  N1_8 
REMARK    4  A    between atoms: C11_19  and  N1_8 
REMARK    5  A    between atoms: C10_18  and  C3_11 
REMARK    6  A    between atoms: C12_20  and  C17_25 
ROOT
HETATM    1  O1  UNK     1      19.701  -1.194  34.854  1.00  0.00    -0.271 OA
HETATM    2  O3  UNK     1      20.693  -3.058  33.982  1.00  0.00    -0.259 OA
HETATM    3  C1  UNK     1      18.563  -1.332  36.998  1.00  0.00     0.002 A 
HETATM    4  C2  UNK     1      18.965  -0.590  35.892  1.00  0.00     0.123 A 
HETATM    5  C3  UNK     1      19.614  -3.311  36.076  1.00  0.00     0.108 A 
HETATM    6  C4  UNK     1      18.914  -2.742  37.065  1.00  0.00     0.037 A 
HETATM    7  C5  UNK     1      18.661   0.764  35.767  1.00  0.00     0.103 A 
HETATM    8  C6  UNK     1      17.836  -0.697  38.008  1.00  0.00     0.014 A 
HETATM    9  C7  UNK     1      17.936   1.389  36.778  1.00  0.00     0.040 A 
HETATM   10  C8  UNK     1      20.052  -2.541  34.890  1.00  0.00     0.304 A 
HETATM   11  C9  UNK     1      17.524   0.661  37.896  1.00  0.00     0.004 A 
ENDROOT
BRANCH   5  12
HETATM   12  C10 UNK     1      19.919  -4.738  36.235  1.00  0.00     0.262 C 
HETATM   13  O4  UNK     1      20.225  -5.405  35.247  1.00  0.00    -0.267 OA
HETATM   14  N1  UNK     1      19.812  -5.146  37.556  1.00  0.00    -0.316 N 
HETATM   15  H5  UNK     1      19.526  -4.477  38.266  1.00  0.00     0.169 HD
BRANCH  14  16
HETATM   16  C11 UNK     1      20.036  -6.438  38.041  1.00  0.00     0.093 A 
HETATM   17  S1  UNK     1      18.710  -7.497  37.961  1.00  0.00    -0.083 SA
HETATM   18  C15 UNK     1      19.637  -8.756  38.657  1.00  0.00     0.053 A 
HETATM   19  C14 UNK     1      20.925  -8.356  38.937  1.00  0.00     0.028 A 
HETATM   20  C12 UNK     1      21.153  -6.997  38.573  1.00  0.00     0.073 A 
BRANCH  20  21
HETATM   21  C17 UNK     1      22.400  -6.296  38.743  1.00  0.00     0.295 C 
HETATM   22  O6  UNK     1      22.649  -5.193  38.234  1.00  0.00    -0.259 OA
BRANCH  21  23
HETATM   23  O5  UNK     1      23.315  -6.961  39.532  1.00  0.00    -0.322 OA
HETATM   24  C18 UNK     1      24.310  -7.737  38.856  1.00  0.00     0.213 C 
ENDBRANCH  21  23
ENDBRANCH  20  21
ENDBRANCH  14  16
ENDBRANCH   5  12
BRANCH   7  25
HETATM   25  O2  UNK     1      19.061   1.478  34.680  1.00  0.00    -0.349 OA
BRANCH  25  26
HETATM   26  C13 UNK     1      18.038   1.972  33.816  1.00  0.00     0.171 C 
HETATM   27  C16 UNK     1      18.267   3.449  33.575  1.00  0.00     0.034 C 
ENDBRANCH  25  26
ENDBRANCH   7  25
TORSDOF 6
ENDMDL
MODEL 5
REMARK VINA RESULT:      -8.4      2.588      3.854
REMARK  6 active torsions:
REMARK  status: ('A' for Active; 'I' for Inactive)
REMARK    1  A    between atoms: C13_21  and  O2_3 
REMARK    2  A    between atoms: C5_13  and  O2_3 
REMARK    3  A    between atoms: C17_25  and  O5_6 
REMARK       I    between atoms: C10_18  and  N1_8 
REMARK    4  A    between atoms: C11_19  and  N1_8 
REMARK    5  A    between atoms: C10_18  and  C3_11 
REMARK    6  A    between atoms: C12_20  and  C17_25 
ROOT
HETATM    1  O1  UNK     1      18.739  -0.218  33.455  1.00  0.00    -0.271 OA
HETATM    2  O3  UNK     1      18.178  -0.330  35.667  1.00  0.00    -0.259 OA
HETATM    3  C1  UNK     1      20.125  -1.960  32.480  1.00  0.00     0.002 A 
HETATM    4  C2  UNK     1      19.409  -0.775  32.349  1.00  0.00     0.123 A 
HETATM    5  C3  UNK     1      19.533  -2.081  34.826  1.00  0.00     0.108 A 
HETATM    6  C4  UNK     1      20.172  -2.614  33.778  1.00  0.00     0.037 A 
HETATM    7  C5  UNK     1      19.325  -0.098  31.134  1.00  0.00     0.103 A 
HETATM    8  C6  UNK     1      20.776  -2.482  31.359  1.00  0.00     0.014 A 
HETATM    9  C7  UNK     1      19.977  -0.624  30.022  1.00  0.00     0.040 A 
HETATM   10  C8  UNK     1      18.765  -0.821  34.710  1.00  0.00     0.304 A 
HETATM   11  C9  UNK     1      20.700  -1.814  30.133  1.00  0.00     0.004 A 
ENDROOT
BRANCH   5  12
HETATM   12  C10 UNK     1      19.638  -2.815  36.093  1.00  0.00     0.262 C 
HETATM   13  O4  UNK     1      19.501  -2.211  37.155  1.00  0.00    -0.267 OA
HETATM   14  N1  UNK     1      19.893  -4.164  35.890  1.00  0.00    -0.316 N 
HETATM   15  H5  UNK     1      20.003  -4.516  34.942  1.00  0.00     0.169 HD
BRANCH  14  16
HETATM   16  C11 UNK     1      20.048  -5.133  36.885  1.00  0.00     0.093 A 
HETATM   17  S1  UNK     1      21.474  -5.024  37.804  1.00  0.00    -0.083 SA
HETATM   18  C15 UNK     1      21.016  -6.392  38.727  1.00  0.00     0.053 A 
HETATM   19  C14 UNK     1      19.802  -6.903  38.326  1.00  0.00     0.028 A 
HETATM   20  C12 UNK     1      19.239  -6.161  37.248  1.00  0.00     0.073 A 
BRANCH  20  21
HETATM   21  C17 UNK     1      17.979  -6.453  36.614  1.00  0.00     0.295 C 
HETATM   22  O6  UNK     1      16.919  -5.866  36.877  1.00  0.00    -0.259 OA
BRANCH  21  23
HETATM   23  O5  UNK     1      18.044  -7.459  35.673  1.00  0.00    -0.322 OA
HETATM   24  C18 UNK     1      16.852  -7.726  34.927  1.00  0.00     0.213 C 
ENDBRANCH  21  23
ENDBRANCH  20  21
ENDBRANCH  14  16
ENDBRANCH   5  12
BRANCH   7  25
HETATM   25  O2  UNK     1      18.622   1.061  31.020  1.00  0.00    -0.349 OA
BRANCH  25  26
HETATM   26  C13 UNK     1      18.977   1.935  29.950  1.00  0.00     0.171 C 
HETATM   27  C16 UNK     1      17.862   1.943  28.927  1.00  0.00     0.034 C 
ENDBRANCH  25  26
ENDBRANCH   7  25
TORSDOF 6
ENDMDL
MODEL 6
REMARK VINA RESULT:      -8.3      6.037     11.169
REMARK  6 active torsions:
REMARK  status: ('A' for Active; 'I' for Inactive)
REMARK    1  A    between atoms: C13_21  and  O2_3 
REMARK    2  A    between atoms: C5_13  and  O2_3 
REMARK    3  A    between atoms: C17_25  and  O5_6 
REMARK       I    between atoms: C10_18  and  N1_8 
REMARK    4  A    between atoms: C11_19  and  N1_8 
REMARK    5  A    between atoms: C10_18  and  C3_11 
REMARK    6  A    between atoms: C12_20  and  C17_25 
ROOT
HETATM    1  O1  UNK     1      18.280   1.707  32.067  1.00  0.00    -0.271 OA
HETATM    2  O3  UNK     1      18.312   3.341  30.471  1.00  0.00    -0.259 OA
HETATM    3  C1  UNK     1      18.315   2.325  34.418  1.00  0.00     0.002 A 
HETATM    4  C2  UNK     1      18.280   1.348  33.429  1.00  0.00     0.123 A 
HETATM    5  C3  UNK     1      18.351   4.061  32.727  1.00  0.00     0.108 A 
HETATM    6  C4  UNK     1      18.352   3.725  34.023  1.00  0.00     0.037 A 
HETATM    7  C5  UNK     1      18.243  -0.010  33.741  1.00  0.00     0.103 A 
HETATM    8  C6  UNK     1      18.312   1.930  35.758  1.00  0.00     0.014 A 
HETATM    9  C7  UNK     1      18.242  -0.396  35.078  1.00  0.00     0.040 A 
HETATM   10  C8  UNK     1      18.314   3.038  31.658  1.00  0.00     0.304 A 
HETATM   11  C9  UNK     1      18.277   0.571  36.085  1.00  0.00     0.004 A 
ENDROOT
BRANCH   5  12
HETATM   12  C10 UNK     1      18.389   5.498  32.429  1.00  0.00     0.262 C 
HETATM   13  O4  UNK     1      18.578   5.871  31.272  1.00  0.00    -0.267 OA
HETATM   14  N1  UNK     1      18.195   6.268  33.567  1.00  0.00    -0.316 N 
HETATM   15  H5  UNK     1      18.071   5.810  34.467  1.00  0.00     0.169 HD
BRANCH  14  16
HETATM   16  C11 UNK     1      18.175   7.664  33.624  1.00  0.00     0.093 A 
HETATM   17  S1  UNK     1      19.425   8.383  34.523  1.00  0.00    -0.083 SA
HETATM   18  C15 UNK     1      18.812   9.944  34.179  1.00  0.00     0.053 A 
HETATM   19  C14 UNK     1      17.680   9.894  33.396  1.00  0.00     0.028 A 
HETATM   20  C12 UNK     1      17.312   8.556  33.073  1.00  0.00     0.073 A 
BRANCH  20  21
HETATM   21  C17 UNK     1      16.176   8.183  32.270  1.00  0.00     0.295 C 
HETATM   22  O6  UNK     1      16.031   8.506  31.082  1.00  0.00    -0.259 OA
BRANCH  21  23
HETATM   23  O5  UNK     1      15.240   7.424  32.941  1.00  0.00    -0.322 OA
HETATM   24  C18 UNK     1      14.013   7.153  32.255  1.00  0.00     0.213 C 
ENDBRANCH  21  23
ENDBRANCH  20  21
ENDBRANCH  14  16
ENDBRANCH   5  12
BRANCH   7  25
HETATM   25  O2  UNK     1      18.210  -0.955  32.763  1.00  0.00    -0.349 OA
BRANCH  25  26
HETATM   26  C13 UNK     1      19.417  -1.673  32.511  1.00  0.00     0.171 C 
HETATM   27  C16 UNK     1      19.951  -1.280  31.151  1.00  0.00     0.034 C 
ENDBRANCH  25  26
ENDBRANCH   7  25
TORSDOF 6
ENDMDL
MODEL 7
REMARK VINA RESULT:      -8.2      1.603      2.058
REMARK  6 active torsions:
REMARK  status: ('A' for Active; 'I' for Inactive)
REMARK    1  A    between atoms: C13_21  and  O2_3 
REMARK    2  A    between atoms: C5_13  and  O2_3 
REMARK    3  A    between atoms: C17_25  and  O5_6 
REMARK       I    between atoms: C10_18  and  N1_8 
REMARK    4  A    between atoms: C11_19  and  N1_8 
REMARK    5  A    between atoms: C10_18  and  C3_11 
REMARK    6  A    between atoms: C12_20  and  C17_25 
ROOT
HETATM    1  O1  UNK     1      19.532  -1.200  34.503  1.00  0.00    -0.271 OA
HETATM    2  O3  UNK     1      20.726  -3.029  33.833  1.00  0.00    -0.259 OA
HETATM    3  C1  UNK     1      18.567  -1.149  36.734  1.00  0.00     0.002 A 
HETATM    4  C2  UNK     1      18.785  -0.544  35.501  1.00  0.00     0.123 A 
HETATM    5  C3  UNK     1      19.832  -3.091  36.025  1.00  0.00     0.108 A 
HETATM    6  C4  UNK     1      19.122  -2.471  36.977  1.00  0.00     0.037 A 
HETATM    7  C5  UNK     1      18.281   0.721  35.205  1.00  0.00     0.103 A 
HETATM    8  C6  UNK     1      17.823  -0.465  37.699  1.00  0.00     0.014 A 
HETATM    9  C7  UNK     1      17.539   1.395  36.171  1.00  0.00     0.040 A 
HETATM   10  C8  UNK     1      20.076  -2.466  34.706  1.00  0.00     0.304 A 
HETATM   11  C9  UNK     1      17.310   0.804  37.415  1.00  0.00     0.004 A 
ENDROOT
BRANCH   5  12
HETATM   12  C10 UNK     1      20.351  -4.421  36.365  1.00  0.00     0.262 C 
HETATM   13  O4  UNK     1      21.240  -4.527  37.208  1.00  0.00    -0.267 OA
HETATM   14  N1  UNK     1      19.721  -5.423  35.640  1.00  0.00    -0.316 N 
HETATM   15  H5  UNK     1      19.011  -5.175  34.956  1.00  0.00     0.169 HD
BRANCH  14  16
HETATM   16  C11 UNK     1      19.983  -6.793  35.727  1.00  0.00     0.093 A 
HETATM   17  S1  UNK     1      20.919  -7.447  34.469  1.00  0.00    -0.083 SA
HETATM   18  C15 UNK     1      20.835  -9.003  35.178  1.00  0.00     0.053 A 
HETATM   19  C14 UNK     1      20.106  -9.000  36.346  1.00  0.00     0.028 A 
HETATM   20  C12 UNK     1      19.609  -7.703  36.663  1.00  0.00     0.073 A 
BRANCH  20  21
HETATM   21  C17 UNK     1      18.813  -7.384  37.821  1.00  0.00     0.295 C 
HETATM   22  O6  UNK     1      17.736  -6.772  37.774  1.00  0.00    -0.259 OA
BRANCH  21  23
HETATM   23  O5  UNK     1      19.355  -7.820  39.012  1.00  0.00    -0.322 OA
HETATM   24  C18 UNK     1      20.535  -7.152  39.470  1.00  0.00     0.213 C 
ENDBRANCH  21  23
ENDBRANCH  20  21
ENDBRANCH  14  16
ENDBRANCH   5  12
BRANCH   7  25
HETATM   25  O2  UNK     1      18.501   1.301  33.994  1.00  0.00    -0.349 OA
BRANCH  25  26
HETATM   26  C13 UNK     1      18.230   2.698  33.883  1.00  0.00     0.171 C 
HETATM   27  C16 UNK     1      18.138   3.068  32.419  1.00  0.00     0.034 C 
ENDBRANCH  25  26
ENDBRANCH   7  25
TORSDOF 6
ENDMDL
MODEL 8
REMARK VINA RESULT:      -8.0      5.915      8.917
REMARK  6 active torsions:
REMARK  status: ('A' for Active; 'I' for Inactive)
REMARK    1  A    between atoms: C13_21  and  O2_3 
REMARK    2  A    between atoms: C5_13  and  O2_3 
REMARK    3  A    between atoms: C17_25  and  O5_6 
REMARK       I    between atoms: C10_18  and  N1_8 
REMARK    4  A    between atoms: C11_19  and  N1_8 
REMARK    5  A    between atoms: C10_18  and  C3_11 
REMARK    6  A    between atoms: C12_20  and  C17_25 
ROOT
HETATM    1  O1  UNK     1      25.857  -5.708  38.724  1.00  0.00    -0.271 OA
HETATM    2  O3  UNK     1      23.606  -5.347  38.879  1.00  0.00    -0.259 OA
HETATM    3  C1  UNK     1      26.715  -7.981  38.804  1.00  0.00     0.002 A 
HETATM    4  C2  UNK     1      26.936  -6.612  38.697  1.00  0.00     0.123 A 
HETATM    5  C3  UNK     1      24.328  -7.601  38.970  1.00  0.00     0.108 A 
HETATM    6  C4  UNK     1      25.351  -8.465  38.945  1.00  0.00     0.037 A 
HETATM    7  C5  UNK     1      28.219  -6.085  38.560  1.00  0.00     0.103 A 
HETATM    8  C6  UNK     1      27.812  -8.846  38.772  1.00  0.00     0.014 A 
HETATM    9  C7  UNK     1      29.307  -6.954  38.529  1.00  0.00     0.040 A 
HETATM   10  C8  UNK     1      24.540  -6.141  38.857  1.00  0.00     0.304 A 
HETATM   11  C9  UNK     1      29.104  -8.331  38.635  1.00  0.00     0.004 A 
ENDROOT
BRANCH   5  12
HETATM   12  C10 UNK     1      22.989  -8.185  39.115  1.00  0.00     0.262 C 
HETATM   13  O4  UNK     1      22.580  -8.488  40.234  1.00  0.00    -0.267 OA
HETATM   14  N1  UNK     1      22.346  -8.315  37.892  1.00  0.00    -0.316 N 
HETATM   15  H5  UNK     1      22.826  -8.035  37.041  1.00  0.00     0.169 HD
BRANCH  14  16
HETATM   16  C11 UNK     1      21.064  -8.833  37.686  1.00  0.00     0.093 A 
HETATM   17  S1  UNK     1      20.993 -10.477  37.265  1.00  0.00    -0.083 SA
HETATM   18  C15 UNK     1      19.284 -10.411  37.182  1.00  0.00     0.053 A 
HETATM   19  C14 UNK     1      18.801  -9.154  37.472  1.00  0.00     0.028 A 
HETATM   20  C12 UNK     1      19.848  -8.234  37.767  1.00  0.00     0.073 A 
BRANCH  20  21
HETATM   21  C17 UNK     1      19.657  -6.847  38.108  1.00  0.00     0.295 C 
HETATM   22  O6  UNK     1      20.034  -6.337  39.173  1.00  0.00    -0.259 OA
BRANCH  21  23
HETATM   23  O5  UNK     1      19.006  -6.116  37.137  1.00  0.00    -0.322 OA
HETATM   24  C18 UNK     1      19.783  -5.698  36.010  1.00  0.00     0.213 C 
ENDBRANCH  21  23
ENDBRANCH  20  21
ENDBRANCH  14  16
ENDBRANCH   5  12
BRANCH   7  25
HETATM   25  O2  UNK     1      28.421  -4.744  38.456  1.00  0.00    -0.349 OA
BRANCH  25  26
HETATM   26  C13 UNK     1      29.697  -4.245  38.858  1.00  0.00     0.171 C 
HETATM   27  C16 UNK     1      30.417  -3.697  37.645  1.00  0.00     0.034 C 
ENDBRANCH  25  26
ENDBRANCH   7  25
TORSDOF 6
ENDMDL
MODEL 9
REMARK VINA RESULT:      -8.0      3.512      6.083
REMARK  6 active torsions:
REMARK  status: ('A' for Active; 'I' for Inactive)
REMARK    1  A    between atoms: C13_21  and  O2_3 
REMARK    2  A    between atoms: C5_13  and  O2_3 
REMARK    3  A    between atoms: C17_25  and  O5_6 
REMARK       I    between atoms: C10_18  and  N1_8 
REMARK    4  A    between atoms: C11_19  and  N1_8 
REMARK    5  A    between atoms: C10_18  and  C3_11 
REMARK    6  A    between atoms: C12_20  and  C17_25 
ROOT
HETATM    1  O1  UNK     1      18.292   3.989  34.101  1.00  0.00    -0.271 OA
HETATM    2  O3  UNK     1      18.078   2.448  35.774  1.00  0.00    -0.259 OA
HETATM    3  C1  UNK     1      18.530   3.239  31.801  1.00  0.00     0.002 A 
HETATM    4  C2  UNK     1      18.448   4.271  32.730  1.00  0.00     0.123 A 
HETATM    5  C3  UNK     1      18.304   1.601  33.573  1.00  0.00     0.108 A 
HETATM    6  C4  UNK     1      18.453   1.864  32.269  1.00  0.00     0.037 A 
HETATM    7  C5  UNK     1      18.515   5.609  32.348  1.00  0.00     0.103 A 
HETATM    8  C6  UNK     1      18.684   3.558  30.450  1.00  0.00     0.014 A 
HETATM    9  C7  UNK     1      18.669   5.919  30.999  1.00  0.00     0.040 A 
HETATM   10  C8  UNK     1      18.214   2.684  34.579  1.00  0.00     0.304 A 
HETATM   11  C9  UNK     1      18.753   4.896  30.052  1.00  0.00     0.004 A 
ENDROOT
BRANCH   5  12
HETATM   12  C10 UNK     1      18.236   0.183  33.947  1.00  0.00     0.262 C 
HETATM   13  O4  UNK     1      17.383  -0.537  33.432  1.00  0.00    -0.267 OA
HETATM   14  N1  UNK     1      19.204  -0.152  34.883  1.00  0.00    -0.316 N 
HETATM   15  H5  UNK     1      19.832   0.566  35.234  1.00  0.00     0.169 HD
BRANCH  14  16
HETATM   16  C11 UNK     1      19.407  -1.417  35.442  1.00  0.00     0.093 A 
HETATM   17  S1  UNK     1      18.569  -1.726  36.887  1.00  0.00    -0.083 SA
HETATM   18  C15 UNK     1      19.237  -3.300  36.970  1.00  0.00     0.053 A 
HETATM   19  C14 UNK     1      20.077  -3.562  35.910  1.00  0.00     0.028 A 
HETATM   20  C12 UNK     1      20.172  -2.455  35.018  1.00  0.00     0.073 A 
BRANCH  20  21
HETATM   21  C17 UNK     1      20.972  -2.427  33.820  1.00  0.00     0.295 C 
HETATM   22  O6  UNK     1      22.178  -2.139  33.799  1.00  0.00    -0.259 OA
BRANCH  21  23
HETATM   23  O5  UNK     1      20.277  -2.752  32.674  1.00  0.00    -0.322 OA
HETATM   24  C18 UNK     1      20.406  -1.859  31.563  1.00  0.00     0.213 C 
ENDBRANCH  21  23
ENDBRANCH  20  21
ENDBRANCH  14  16
ENDBRANCH   5  12
BRANCH   7  25
HETATM   25  O2  UNK     1      18.434   6.609  33.267  1.00  0.00    -0.349 OA
BRANCH  25  26
HETATM   26  C13 UNK     1      19.663   7.155  33.744  1.00  0.00     0.171 C 
HETATM   27  C16 UNK     1      19.386   8.480  34.420  1.00  0.00     0.034 C 
ENDBRANCH  25  26
ENDBRANCH   7  25
TORSDOF 6
ENDMDL
MODEL 10
REMARK VINA RESULT:      -8.0      4.959      7.669
REMARK  6 active torsions:
REMARK  status: ('A' for Active; 'I' for Inactive)
REMARK    1  A    between atoms: C13_21  and  O2_3 
REMARK    2  A    between atoms: C5_13  and  O2_3 
REMARK    3  A    between atoms: C17_25  and  O5_6 
REMARK       I    between atoms: C10_18  and  N1_8 
REMARK    4  A    between atoms: C11_19  and  N1_8 
REMARK    5  A    between atoms: C10_18  and  C3_11 
REMARK    6  A    between atoms: C12_20  and  C17_25 
ROOT
HETATM    1  O1  UNK     1      17.757   3.899  33.306  1.00  0.00    -0.271 OA
HETATM    2  O3  UNK     1      17.746   1.619  33.455  1.00  0.00    -0.259 OA
HETATM    3  C1  UNK     1      18.464   4.962  31.238  1.00  0.00     0.002 A 
HETATM    4  C2  UNK     1      18.002   5.059  32.546  1.00  0.00     0.123 A 
HETATM    5  C3  UNK     1      18.454   2.544  31.393  1.00  0.00     0.108 A 
HETATM    6  C4  UNK     1      18.690   3.644  30.666  1.00  0.00     0.037 A 
HETATM    7  C5  UNK     1      17.766   6.292  33.152  1.00  0.00     0.103 A 
HETATM    8  C6  UNK     1      18.695   6.136  30.515  1.00  0.00     0.014 A 
HETATM    9  C7  UNK     1      17.999   7.456  32.425  1.00  0.00     0.040 A 
HETATM   10  C8  UNK     1      17.963   2.623  32.787  1.00  0.00     0.304 A 
HETATM   11  C9  UNK     1      18.462   7.379  31.110  1.00  0.00     0.004 A 
ENDROOT
BRANCH   5  12
HETATM   12  C10 UNK     1      18.712   1.260  30.729  1.00  0.00     0.262 C 
HETATM   13  O4  UNK     1      18.113   0.985  29.691  1.00  0.00    -0.267 OA
HETATM   14  N1  UNK     1      19.650   0.503  31.415  1.00  0.00    -0.316 N 
HETATM   15  H5  UNK     1      20.047   0.859  32.281  1.00  0.00     0.169 HD
BRANCH  14  16
HETATM   16  C11 UNK     1      20.115  -0.764  31.048  1.00  0.00     0.093 A 
HETATM   17  S1  UNK     1      20.425  -0.984  29.392  1.00  0.00    -0.083 SA
HETATM   18  C15 UNK     1      20.911  -2.602  29.670  1.00  0.00     0.053 A 
HETATM   19  C14 UNK     1      20.830  -2.944  31.001  1.00  0.00     0.028 A 
HETATM   20  C12 UNK     1      20.364  -1.864  31.804  1.00  0.00     0.073 A 
BRANCH  20  21
HETATM   21  C17 UNK     1      20.175  -1.917  33.231  1.00  0.00     0.295 C 
HETATM   22  O6  UNK     1      20.969  -2.458  34.016  1.00  0.00    -0.259 OA
BRANCH  21  23
HETATM   23  O5  UNK     1      19.017  -1.309  33.667  1.00  0.00    -0.322 OA
HETATM   24  C18 UNK     1      18.877  -1.118  35.079  1.00  0.00     0.213 C 
ENDBRANCH  21  23
ENDBRANCH  20  21
ENDBRANCH  14  16
ENDBRANCH   5  12
BRANCH   7  25
HETATM   25  O2  UNK     1      17.315   6.371  34.433  1.00  0.00    -0.349 OA
BRANCH  25  26
HETATM   26  C13 UNK     1      16.535   7.516  34.777  1.00  0.00     0.171 C 
HETATM   27  C16 UNK     1      15.158   7.377  34.167  1.00  0.00     0.034 C 
ENDBRANCH  25  26
ENDBRANCH   7  25
TORSDOF 6
ENDMDL
