MODEL 1
REMARK VINA RESULT:      -7.5      0.000      0.000
REMARK  3 active torsions:
REMARK  status: ('A' for Active; 'I' for Inactive)
REMARK    1  A    between atoms: C12_16  and  O3_3 
REMARK    2  A    between atoms: C10_14  and  C4_8 
REMARK    3  A    between atoms: C11_15  and  C12_16 
ROOT
HETATM    1  O1  UNK     1      20.691   6.502  32.029  1.00  0.00    -0.321 OA
HETATM    2  O2  UNK     1      16.889   5.020  32.022  1.00  0.00    -0.286 OA
HETATM    3  C1  UNK     1      18.473   6.452  33.014  1.00  0.00     0.049 A 
HETATM    4  C2  UNK     1      19.785   6.923  32.969  1.00  0.00     0.089 A 
HETATM    5  C3  UNK     1      18.031   5.459  32.016  1.00  0.00     0.197 A 
HETATM    6  C4  UNK     1      19.048   5.028  31.018  1.00  0.00     0.037 A 
HETATM    7  C5  UNK     1      17.592   6.917  33.994  1.00  0.00     0.018 A 
HETATM    8  C6  UNK     1      20.224   7.860  33.903  1.00  0.00     0.038 A 
HETATM    9  C7  UNK     1      20.268   5.576  31.107  1.00  0.00     0.158 A 
HETATM   10  C8  UNK     1      18.034   7.855  34.928  1.00  0.00     0.001 A 
HETATM   11  C9  UNK     1      19.347   8.327  34.883  1.00  0.00     0.003 A 
ENDROOT
BRANCH   6  12
HETATM   12  C10 UNK     1      18.714   4.061  30.006  1.00  0.00     0.024 C 
HETATM   13  C11 UNK     1      18.549   2.762  30.270  1.00  0.00     0.082 C 
BRANCH  13  14
HETATM   14  C12 UNK     1      18.207   1.836  29.173  1.00  0.00     0.165 C 
HETATM   15  O4  UNK     1      17.976   2.139  28.015  1.00  0.00    -0.647 OA
BRANCH  14  16
HETATM   16  O3  UNK     1      18.192   0.573  29.660  1.00  0.00    -0.773 OA
HETATM   17  H8  UNK     1      19.096   0.201  29.747  1.00  0.00     0.167 HD
ENDBRANCH  14  16
ENDBRANCH  13  14
ENDBRANCH   6  12
TORSDOF 3
ENDMDL
MODEL 2
REMARK VINA RESULT:      -7.5      1.895      2.809
REMARK  3 active torsions:
REMARK  status: ('A' for Active; 'I' for Inactive)
REMARK    1  A    between atoms: C12_16  and  O3_3 
REMARK    2  A    between atoms: C10_14  and  C4_8 
REMARK    3  A    between atoms: C11_15  and  C12_16 
ROOT
HETATM    1  O1  UNK     1      18.936   5.151  29.830  1.00  0.00    -0.321 OA
HETATM    2  O2  UNK     1      17.972   2.051  32.303  1.00  0.00    -0.286 OA
HETATM    3  C1  UNK     1      18.288   4.369  32.035  1.00  0.00     0.049 A 
HETATM    4  C2  UNK     1      18.625   5.388  31.145  1.00  0.00     0.089 A 
HETATM    5  C3  UNK     1      18.262   2.974  31.554  1.00  0.00     0.197 A 
HETATM    6  C4  UNK     1      18.609   2.763  30.122  1.00  0.00     0.037 A 
HETATM    7  C5  UNK     1      17.980   4.670  33.364  1.00  0.00     0.018 A 
HETATM    8  C6  UNK     1      18.659   6.713  31.579  1.00  0.00     0.038 A 
HETATM    9  C7  UNK     1      18.910   3.848  29.395  1.00  0.00     0.158 A 
HETATM   10  C8  UNK     1      18.014   5.997  33.796  1.00  0.00     0.001 A 
HETATM   11  C9  UNK     1      18.352   7.017  32.906  1.00  0.00     0.003 A 
ENDROOT
BRANCH   6  12
HETATM   12  C10 UNK     1      18.614   1.439  29.560  1.00  0.00     0.024 C 
HETATM   13  C11 UNK     1      19.732   0.730  29.381  1.00  0.00     0.082 C 
BRANCH  13  14
HETATM   14  C12 UNK     1      19.651  -0.623  28.797  1.00  0.00     0.165 C 
HETATM   15  O4  UNK     1      20.254  -1.612  29.177  1.00  0.00    -0.647 OA
BRANCH  14  16
HETATM   16  O3  UNK     1      18.784  -0.596  27.758  1.00  0.00    -0.773 OA
HETATM   17  H8  UNK     1      18.997  -1.277  27.085  1.00  0.00     0.167 HD
ENDBRANCH  14  16
ENDBRANCH  13  14
ENDBRANCH   6  12
TORSDOF 3
ENDMDL
MODEL 3
REMARK VINA RESULT:      -7.4      2.576      6.806
REMARK  3 active torsions:
REMARK  status: ('A' for Active; 'I' for Inactive)
REMARK    1  A    between atoms: C12_16  and  O3_3 
REMARK    2  A    between atoms: C10_14  and  C4_8 
REMARK    3  A    between atoms: C11_15  and  C12_16 
ROOT
HETATM    1  O1  UNK     1      18.891   0.454  32.689  1.00  0.00    -0.321 OA
HETATM    2  O2  UNK     1      18.829   2.966  29.474  1.00  0.00    -0.286 OA
HETATM    3  C1  UNK     1      19.340   0.835  30.335  1.00  0.00     0.049 A 
HETATM    4  C2  UNK     1      19.339   0.021  31.467  1.00  0.00     0.089 A 
HETATM    5  C3  UNK     1      18.843   2.220  30.444  1.00  0.00     0.197 A 
HETATM    6  C4  UNK     1      18.371   2.648  31.789  1.00  0.00     0.037 A 
HETATM    7  C5  UNK     1      19.808   0.340  29.114  1.00  0.00     0.018 A 
HETATM    8  C6  UNK     1      19.806  -1.290  31.387  1.00  0.00     0.038 A 
HETATM    9  C7  UNK     1      18.433   1.746  32.778  1.00  0.00     0.158 A 
HETATM   10  C8  UNK     1      20.275  -0.973  29.036  1.00  0.00     0.001 A 
HETATM   11  C9  UNK     1      20.273  -1.787  30.169  1.00  0.00     0.003 A 
ENDROOT
BRANCH   6  12
HETATM   12  C10 UNK     1      17.872   3.980  31.997  1.00  0.00     0.024 C 
HETATM   13  C11 UNK     1      18.071   4.662  33.129  1.00  0.00     0.082 C 
BRANCH  13  14
HETATM   14  C12 UNK     1      17.524   6.026  33.262  1.00  0.00     0.165 C 
HETATM   15  O4  UNK     1      17.125   6.737  32.355  1.00  0.00    -0.647 OA
BRANCH  14  16
HETATM   16  O3  UNK     1      17.532   6.372  34.571  1.00  0.00    -0.773 OA
HETATM   17  H8  UNK     1      18.420   6.664  34.868  1.00  0.00     0.167 HD
ENDBRANCH  14  16
ENDBRANCH  13  14
ENDBRANCH   6  12
TORSDOF 3
ENDMDL
MODEL 4
REMARK VINA RESULT:      -7.4     22.382     24.822
REMARK  3 active torsions:
REMARK  status: ('A' for Active; 'I' for Inactive)
REMARK    1  A    between atoms: C12_16  and  O3_3 
REMARK    2  A    between atoms: C10_14  and  C4_8 
REMARK    3  A    between atoms: C11_15  and  C12_16 
ROOT
HETATM    1  O1  UNK     1      11.143   5.528   9.629  1.00  0.00    -0.321 OA
HETATM    2  O2  UNK     1      13.420   6.654   6.435  1.00  0.00    -0.286 OA
HETATM    3  C1  UNK     1      11.272   6.273   7.323  1.00  0.00     0.049 A 
HETATM    4  C2  UNK     1      10.546   5.880   8.446  1.00  0.00     0.089 A 
HETATM    5  C3  UNK     1      12.745   6.316   7.399  1.00  0.00     0.197 A 
HETATM    6  C4  UNK     1      13.351   5.922   8.700  1.00  0.00     0.037 A 
HETATM    7  C5  UNK     1      10.610   6.622   6.143  1.00  0.00     0.018 A 
HETATM    8  C6  UNK     1       9.153   5.831   8.396  1.00  0.00     0.038 A 
HETATM    9  C7  UNK     1      12.515   5.569   9.686  1.00  0.00     0.158 A 
HETATM   10  C8  UNK     1       9.215   6.572   6.096  1.00  0.00     0.001 A 
HETATM   11  C9  UNK     1       8.488   6.178   7.219  1.00  0.00     0.003 A 
ENDROOT
BRANCH   6  12
HETATM   12  C10 UNK     1      14.779   5.928   8.872  1.00  0.00     0.024 C 
HETATM   13  C11 UNK     1      15.418   6.835   9.617  1.00  0.00     0.082 C 
BRANCH  13  14
HETATM   14  C12 UNK     1      16.887   6.770   9.741  1.00  0.00     0.165 C 
HETATM   15  O4  UNK     1      17.624   7.677  10.089  1.00  0.00    -0.647 OA
BRANCH  14  16
HETATM   16  O3  UNK     1      17.296   5.524   9.407  1.00  0.00    -0.773 OA
HETATM   17  H8  UNK     1      18.269   5.423   9.487  1.00  0.00     0.167 HD
ENDBRANCH  14  16
ENDBRANCH  13  14
ENDBRANCH   6  12
TORSDOF 3
ENDMDL
MODEL 5
REMARK VINA RESULT:      -7.3      2.706      6.875
REMARK  3 active torsions:
REMARK  status: ('A' for Active; 'I' for Inactive)
REMARK    1  A    between atoms: C12_16  and  O3_3 
REMARK    2  A    between atoms: C10_14  and  C4_8 
REMARK    3  A    between atoms: C11_15  and  C12_16 
ROOT
HETATM    1  O1  UNK     1      19.261   1.646  29.216  1.00  0.00    -0.321 OA
HETATM    2  O2  UNK     1      18.651   0.802  33.162  1.00  0.00    -0.286 OA
HETATM    3  C1  UNK     1      19.412   0.071  31.057  1.00  0.00     0.049 A 
HETATM    4  C2  UNK     1      19.597   0.415  29.718  1.00  0.00     0.089 A 
HETATM    5  C3  UNK     1      18.831   1.064  31.980  1.00  0.00     0.197 A 
HETATM    6  C4  UNK     1      18.478   2.385  31.392  1.00  0.00     0.037 A 
HETATM    7  C5  UNK     1      19.775  -1.199  31.514  1.00  0.00     0.018 A 
HETATM    8  C6  UNK     1      20.143  -0.509  28.828  1.00  0.00     0.038 A 
HETATM    9  C7  UNK     1      18.718   2.561  30.085  1.00  0.00     0.158 A 
HETATM   10  C8  UNK     1      20.321  -2.122  30.620  1.00  0.00     0.001 A 
HETATM   11  C9  UNK     1      20.506  -1.779  29.281  1.00  0.00     0.003 A 
ENDROOT
BRANCH   6  12
HETATM   12  C10 UNK     1      17.902   3.418  32.211  1.00  0.00     0.024 C 
HETATM   13  C11 UNK     1      18.235   4.707  32.094  1.00  0.00     0.082 C 
BRANCH  13  14
HETATM   14  C12 UNK     1      17.596   5.705  32.974  1.00  0.00     0.165 C 
HETATM   15  O4  UNK     1      16.688   6.461  32.671  1.00  0.00    -0.647 OA
BRANCH  14  16
HETATM   16  O3  UNK     1      18.184   5.651  34.192  1.00  0.00    -0.773 OA
HETATM   17  H8  UNK     1      19.113   5.340  34.138  1.00  0.00     0.167 HD
ENDBRANCH  14  16
ENDBRANCH  13  14
ENDBRANCH   6  12
TORSDOF 3
ENDMDL
MODEL 6
REMARK VINA RESULT:      -7.3      1.788      2.894
REMARK  3 active torsions:
REMARK  status: ('A' for Active; 'I' for Inactive)
REMARK    1  A    between atoms: C12_16  and  O3_3 
REMARK    2  A    between atoms: C10_14  and  C4_8 
REMARK    3  A    between atoms: C11_15  and  C12_16 
ROOT
HETATM    1  O1  UNK     1      17.985   3.309  33.066  1.00  0.00    -0.321 OA
HETATM    2  O2  UNK     1      19.142   4.734  29.421  1.00  0.00    -0.286 OA
HETATM    3  C1  UNK     1      18.488   5.203  31.634  1.00  0.00     0.049 A 
HETATM    4  C2  UNK     1      18.097   4.660  32.857  1.00  0.00     0.089 A 
HETATM    5  C3  UNK     1      18.796   4.297  30.511  1.00  0.00     0.197 A 
HETATM    6  C4  UNK     1      18.658   2.840  30.781  1.00  0.00     0.037 A 
HETATM    7  C5  UNK     1      18.586   6.588  31.479  1.00  0.00     0.018 A 
HETATM    8  C6  UNK     1      17.799   5.498  33.931  1.00  0.00     0.038 A 
HETATM    9  C7  UNK     1      18.272   2.476  32.012  1.00  0.00     0.158 A 
HETATM   10  C8  UNK     1      18.287   7.425  32.556  1.00  0.00     0.001 A 
HETATM   11  C9  UNK     1      17.895   6.882  33.780  1.00  0.00     0.003 A 
ENDROOT
BRANCH   6  12
HETATM   12  C10 UNK     1      18.933   1.877  29.749  1.00  0.00     0.024 C 
HETATM   13  C11 UNK     1      19.595   0.738  29.975  1.00  0.00     0.082 C 
BRANCH  13  14
HETATM   14  C12 UNK     1      19.836  -0.197  28.860  1.00  0.00     0.165 C 
HETATM   15  O4  UNK     1      20.833  -0.879  28.689  1.00  0.00    -0.647 OA
BRANCH  14  16
HETATM   16  O3  UNK     1      18.758  -0.184  28.041  1.00  0.00    -0.773 OA
HETATM   17  H8  UNK     1      18.736   0.617  27.475  1.00  0.00     0.167 HD
ENDBRANCH  14  16
ENDBRANCH  13  14
ENDBRANCH   6  12
TORSDOF 3
ENDMDL
MODEL 7
REMARK VINA RESULT:      -7.2      0.751      2.201
REMARK  3 active torsions:
REMARK  status: ('A' for Active; 'I' for Inactive)
REMARK    1  A    between atoms: C12_16  and  O3_3 
REMARK    2  A    between atoms: C10_14  and  C4_8 
REMARK    3  A    between atoms: C11_15  and  C12_16 
ROOT
HETATM    1  O1  UNK     1      17.194   5.719  33.076  1.00  0.00    -0.321 OA
HETATM    2  O2  UNK     1      20.849   5.803  31.263  1.00  0.00    -0.286 OA
HETATM    3  C1  UNK     1      19.419   6.676  32.918  1.00  0.00     0.049 A 
HETATM    4  C2  UNK     1      18.154   6.603  33.499  1.00  0.00     0.089 A 
HETATM    5  C3  UNK     1      19.750   5.770  31.801  1.00  0.00     0.197 A 
HETATM    6  C4  UNK     1      18.678   4.830  31.373  1.00  0.00     0.037 A 
HETATM    7  C5  UNK     1      20.358   7.597  33.390  1.00  0.00     0.018 A 
HETATM    8  C6  UNK     1      17.819   7.452  34.554  1.00  0.00     0.038 A 
HETATM    9  C7  UNK     1      17.514   4.883  32.034  1.00  0.00     0.158 A 
HETATM   10  C8  UNK     1      20.020   8.445  34.446  1.00  0.00     0.001 A 
HETATM   11  C9  UNK     1      18.754   8.373  35.028  1.00  0.00     0.003 A 
ENDROOT
BRANCH   6  12
HETATM   12  C10 UNK     1      18.904   3.910  30.291  1.00  0.00     0.024 C 
HETATM   13  C11 UNK     1      18.352   2.694  30.245  1.00  0.00     0.082 C 
BRANCH  13  14
HETATM   14  C12 UNK     1      18.634   1.810  29.097  1.00  0.00     0.165 C 
HETATM   15  O4  UNK     1      19.394   0.856  29.089  1.00  0.00    -0.647 OA
BRANCH  14  16
HETATM   16  O3  UNK     1      17.905   2.228  28.036  1.00  0.00    -0.773 OA
HETATM   17  H8  UNK     1      17.994   1.625  27.268  1.00  0.00     0.167 HD
ENDBRANCH  14  16
ENDBRANCH  13  14
ENDBRANCH   6  12
TORSDOF 3
ENDMDL
MODEL 8
REMARK VINA RESULT:      -7.2      5.155      7.847
REMARK  3 active torsions:
REMARK  status: ('A' for Active; 'I' for Inactive)
REMARK    1  A    between atoms: C12_16  and  O3_3 
REMARK    2  A    between atoms: C10_14  and  C4_8 
REMARK    3  A    between atoms: C11_15  and  C12_16 
ROOT
HETATM    1  O1  UNK     1      19.479  -1.781  32.907  1.00  0.00    -0.321 OA
HETATM    2  O2  UNK     1      17.985   2.013  32.751  1.00  0.00    -0.286 OA
HETATM    3  C1  UNK     1      19.120   0.266  31.653  1.00  0.00     0.049 A 
HETATM    4  C2  UNK     1      19.611  -1.034  31.764  1.00  0.00     0.089 A 
HETATM    5  C3  UNK     1      18.429   0.874  32.807  1.00  0.00     0.197 A 
HETATM    6  C4  UNK     1      18.312   0.029  34.027  1.00  0.00     0.037 A 
HETATM    7  C5  UNK     1      19.282   0.980  30.463  1.00  0.00     0.018 A 
HETATM    8  C6  UNK     1      20.268  -1.628  30.687  1.00  0.00     0.038 A 
HETATM    9  C7  UNK     1      18.836  -1.203  33.975  1.00  0.00     0.158 A 
HETATM   10  C8  UNK     1      19.941   0.384  29.386  1.00  0.00     0.001 A 
HETATM   11  C9  UNK     1      20.432  -0.917  29.497  1.00  0.00     0.003 A 
ENDROOT
BRANCH   6  12
HETATM   12  C10 UNK     1      17.659   0.534  35.205  1.00  0.00     0.024 C 
HETATM   13  C11 UNK     1      18.274   0.645  36.386  1.00  0.00     0.082 C 
BRANCH  13  14
HETATM   14  C12 UNK     1      17.530   1.174  37.546  1.00  0.00     0.165 C 
HETATM   15  O4  UNK     1      17.928   1.225  38.697  1.00  0.00    -0.647 OA
BRANCH  14  16
HETATM   16  O3  UNK     1      16.317   1.603  37.126  1.00  0.00    -0.773 OA
HETATM   17  H8  UNK     1      15.586   1.191  37.633  1.00  0.00     0.167 HD
ENDBRANCH  14  16
ENDBRANCH  13  14
ENDBRANCH   6  12
TORSDOF 3
ENDMDL
MODEL 9
REMARK VINA RESULT:      -7.1     13.828     16.009
REMARK  3 active torsions:
REMARK  status: ('A' for Active; 'I' for Inactive)
REMARK    1  A    between atoms: C12_16  and  O3_3 
REMARK    2  A    between atoms: C10_14  and  C4_8 
REMARK    3  A    between atoms: C11_15  and  C12_16 
ROOT
HETATM    1  O1  UNK     1      20.961  -8.177  34.518  1.00  0.00    -0.321 OA
HETATM    2  O2  UNK     1      20.660 -10.565  37.814  1.00  0.00    -0.286 OA
HETATM    3  C1  UNK     1      19.966  -8.616  36.688  1.00  0.00     0.049 A 
HETATM    4  C2  UNK     1      20.111  -7.838  35.540  1.00  0.00     0.089 A 
HETATM    5  C3  UNK     1      20.756  -9.855  36.821  1.00  0.00     0.197 A 
HETATM    6  C4  UNK     1      21.668 -10.181  35.691  1.00  0.00     0.037 A 
HETATM    7  C5  UNK     1      19.084  -8.223  37.698  1.00  0.00     0.018 A 
HETATM    8  C6  UNK     1      19.375  -6.662  35.395  1.00  0.00     0.038 A 
HETATM    9  C7  UNK     1      21.692  -9.332  34.655  1.00  0.00     0.158 A 
HETATM   10  C8  UNK     1      18.349  -7.045  37.550  1.00  0.00     0.001 A 
HETATM   11  C9  UNK     1      18.493  -6.267  36.401  1.00  0.00     0.003 A 
ENDROOT
BRANCH   6  12
HETATM   12  C10 UNK     1      22.482 -11.367  35.728  1.00  0.00     0.024 C 
HETATM   13  C11 UNK     1      23.805 -11.334  35.915  1.00  0.00     0.082 C 
BRANCH  13  14
HETATM   14  C12 UNK     1      24.567 -12.597  35.941  1.00  0.00     0.165 C 
HETATM   15  O4  UNK     1      24.496 -13.502  35.125  1.00  0.00    -0.647 OA
BRANCH  14  16
HETATM   16  O3  UNK     1      25.374 -12.596  37.027  1.00  0.00    -0.773 OA
HETATM   17  H8  UNK     1      25.777 -13.476  37.186  1.00  0.00     0.167 HD
ENDBRANCH  14  16
ENDBRANCH  13  14
ENDBRANCH   6  12
TORSDOF 3
ENDMDL
MODEL 10
REMARK VINA RESULT:      -7.1      4.639      7.647
REMARK  3 active torsions:
REMARK  status: ('A' for Active; 'I' for Inactive)
REMARK    1  A    between atoms: C12_16  and  O3_3 
REMARK    2  A    between atoms: C10_14  and  C4_8 
REMARK    3  A    between atoms: C11_15  and  C12_16 
ROOT
HETATM    1  O1  UNK     1      18.674   1.712  31.118  1.00  0.00    -0.321 OA
HETATM    2  O2  UNK     1      19.118  -1.428  33.687  1.00  0.00    -0.286 OA
HETATM    3  C1  UNK     1      19.467  -0.544  31.532  1.00  0.00     0.049 A 
HETATM    4  C2  UNK     1      19.287   0.559  30.699  1.00  0.00     0.089 A 
HETATM    5  C3  UNK     1      18.981  -0.480  32.924  1.00  0.00     0.197 A 
HETATM    6  C4  UNK     1      18.319   0.788  33.335  1.00  0.00     0.037 A 
HETATM    7  C5  UNK     1      20.100  -1.693  31.051  1.00  0.00     0.018 A 
HETATM    8  C6  UNK     1      19.737   0.520  29.380  1.00  0.00     0.038 A 
HETATM    9  C7  UNK     1      18.224   1.758  32.415  1.00  0.00     0.158 A 
HETATM   10  C8  UNK     1      20.550  -1.730  29.730  1.00  0.00     0.001 A 
HETATM   11  C9  UNK     1      20.370  -0.626  28.896  1.00  0.00     0.003 A 
ENDROOT
BRANCH   6  12
HETATM   12  C10 UNK     1      17.808   0.945  34.670  1.00  0.00     0.024 C 
HETATM   13  C11 UNK     1      16.651   0.414  35.073  1.00  0.00     0.082 C 
BRANCH  13  14
HETATM   14  C12 UNK     1      16.198   0.623  36.462  1.00  0.00     0.165 C 
HETATM   15  O4  UNK     1      16.896   0.593  37.462  1.00  0.00    -0.647 OA
BRANCH  14  16
HETATM   16  O3  UNK     1      14.866   0.860  36.454  1.00  0.00    -0.773 OA
HETATM   17  H8  UNK     1      14.473   0.780  37.349  1.00  0.00     0.167 HD
ENDBRANCH  14  16
ENDBRANCH  13  14
ENDBRANCH   6  12
TORSDOF 3
ENDMDL
