MODEL 1
REMARK VINA RESULT:      -7.0      0.000      0.000
REMARK  2 active torsions:
REMARK  status: ('A' for Active; 'I' for Inactive)
REMARK    1  A    between atoms: C4_8  and  O2_2 
REMARK    2  A    between atoms: C6_10  and  O3_3 
ROOT
HETATM    1  O1  UNK     1      20.163  -0.777  32.106  1.00  0.00    -0.275 OA
HETATM    2  O4  UNK     1      21.192  -2.718  32.751  1.00  0.00    -0.260 OA
HETATM    3  C1  UNK     1      19.660  -0.429  29.750  1.00  0.00     0.001 A 
HETATM    4  C2  UNK     1      19.632   0.017  31.068  1.00  0.00     0.092 A 
HETATM    5  C3  UNK     1      19.124   0.385  28.750  1.00  0.00     0.053 A 
HETATM    6  C4  UNK     1      18.553   2.058  30.408  1.00  0.00     0.103 A 
HETATM    7  C5  UNK     1      19.085   1.252  31.412  1.00  0.00     0.077 A 
HETATM    8  C6  UNK     1      18.572   1.626  29.080  1.00  0.00     0.100 A 
HETATM    9  C7  UNK     1      20.246  -1.728  29.461  1.00  0.00     0.020 A 
HETATM   10  C8  UNK     1      20.746  -2.474  30.450  1.00  0.00     0.083 A 
HETATM   11  C9  UNK     1      20.727  -2.023  31.854  1.00  0.00     0.288 A 
ENDROOT
BRANCH   6  12
HETATM   12  O2  UNK     1      18.018   3.267  30.734  1.00  0.00    -0.353 OA
HETATM   13  C10 UNK     1      18.926   4.352  30.908  1.00  0.00     0.210 C 
ENDBRANCH   6  12
BRANCH   8  14
HETATM   14  O3  UNK     1      18.054   2.410  28.093  1.00  0.00    -0.358 OA
HETATM   15  H5  UNK     1      18.080   1.921  27.252  1.00  0.00     0.217 HD
ENDBRANCH   8  14
TORSDOF 2
ENDMDL
MODEL 2
REMARK VINA RESULT:      -6.6      2.092      4.752
REMARK  2 active torsions:
REMARK  status: ('A' for Active; 'I' for Inactive)
REMARK    1  A    between atoms: C4_8  and  O2_2 
REMARK    2  A    between atoms: C6_10  and  O3_3 
ROOT
HETATM    1  O1  UNK     1      18.723   0.717  30.706  1.00  0.00    -0.275 OA
HETATM    2  O4  UNK     1      18.794   1.662  28.621  1.00  0.00    -0.260 OA
HETATM    3  C1  UNK     1      20.109  -1.228  31.173  1.00  0.00     0.001 A 
HETATM    4  C2  UNK     1      19.177  -0.283  31.590  1.00  0.00     0.092 A 
HETATM    5  C3  UNK     1      20.535  -2.202  32.077  1.00  0.00     0.053 A 
HETATM    6  C4  UNK     1      19.091  -1.261  33.781  1.00  0.00     0.103 A 
HETATM    7  C5  UNK     1      18.660  -0.285  32.885  1.00  0.00     0.077 A 
HETATM    8  C6  UNK     1      20.026  -2.217  33.379  1.00  0.00     0.100 A 
HETATM    9  C7  UNK     1      20.606  -1.167  29.808  1.00  0.00     0.020 A 
HETATM   10  C8  UNK     1      20.172  -0.216  28.977  1.00  0.00     0.083 A 
HETATM   11  C9  UNK     1      19.185   0.796  29.397  1.00  0.00     0.288 A 
ENDROOT
BRANCH   6  12
HETATM   12  O2  UNK     1      18.591  -1.273  35.048  1.00  0.00    -0.353 OA
HETATM   13  C10 UNK     1      18.622  -0.042  35.768  1.00  0.00     0.210 C 
ENDBRANCH   6  12
BRANCH   8  14
HETATM   14  O3  UNK     1      20.451  -3.175  34.250  1.00  0.00    -0.358 OA
HETATM   15  H5  UNK     1      19.738  -3.366  34.885  1.00  0.00     0.217 HD
ENDBRANCH   8  14
TORSDOF 2
ENDMDL
MODEL 3
REMARK VINA RESULT:      -6.4     11.591     13.611
REMARK  2 active torsions:
REMARK  status: ('A' for Active; 'I' for Inactive)
REMARK    1  A    between atoms: C4_8  and  O2_2 
REMARK    2  A    between atoms: C6_10  and  O3_3 
ROOT
HETATM    1  O1  UNK     1      19.346   0.881  15.294  1.00  0.00    -0.275 OA
HETATM    2  O4  UNK     1      19.198  -0.701  13.645  1.00  0.00    -0.260 OA
HETATM    3  C1  UNK     1      18.933   0.228  17.602  1.00  0.00     0.001 A 
HETATM    4  C2  UNK     1      19.254   1.204  16.664  1.00  0.00     0.092 A 
HETATM    5  C3  UNK     1      18.852   0.587  18.949  1.00  0.00     0.053 A 
HETATM    6  C4  UNK     1      19.413   2.876  18.381  1.00  0.00     0.103 A 
HETATM    7  C5  UNK     1      19.496   2.527  17.034  1.00  0.00     0.077 A 
HETATM    8  C6  UNK     1      19.093   1.909  19.336  1.00  0.00     0.100 A 
HETATM    9  C7  UNK     1      18.693  -1.130  17.147  1.00  0.00     0.020 A 
HETATM   10  C8  UNK     1      18.783  -1.429  15.848  1.00  0.00     0.083 A 
HETATM   11  C9  UNK     1      19.122  -0.412  14.835  1.00  0.00     0.288 A 
ENDROOT
BRANCH   6  12
HETATM   12  O2  UNK     1      19.647   4.165  18.752  1.00  0.00    -0.353 OA
HETATM   13  C10 UNK     1      20.914   4.720  18.405  1.00  0.00     0.210 C 
ENDBRANCH   6  12
BRANCH   8  14
HETATM   14  O3  UNK     1      19.009   2.244  20.654  1.00  0.00    -0.358 OA
HETATM   15  H5  UNK     1      18.627   3.136  20.732  1.00  0.00     0.217 HD
ENDBRANCH   8  14
TORSDOF 2
ENDMDL
MODEL 4
REMARK VINA RESULT:      -6.4      6.262      8.032
REMARK  2 active torsions:
REMARK  status: ('A' for Active; 'I' for Inactive)
REMARK    1  A    between atoms: C4_8  and  O2_2 
REMARK    2  A    between atoms: C6_10  and  O3_3 
ROOT
HETATM    1  O1  UNK     1      18.296   6.333  31.084  1.00  0.00    -0.275 OA
HETATM    2  O4  UNK     1      20.016   5.719  29.703  1.00  0.00    -0.260 OA
HETATM    3  C1  UNK     1      18.785   6.919  33.396  1.00  0.00     0.001 A 
HETATM    4  C2  UNK     1      17.868   6.749  32.362  1.00  0.00     0.092 A 
HETATM    5  C3  UNK     1      18.323   7.332  34.647  1.00  0.00     0.053 A 
HETATM    6  C4  UNK     1      16.053   7.391  33.797  1.00  0.00     0.103 A 
HETATM    7  C5  UNK     1      16.505   6.979  32.545  1.00  0.00     0.077 A 
HETATM    8  C6  UNK     1      16.959   7.567  34.846  1.00  0.00     0.100 A 
HETATM    9  C7  UNK     1      20.191   6.661  33.135  1.00  0.00     0.020 A 
HETATM   10  C8  UNK     1      20.588   6.269  31.922  1.00  0.00     0.083 A 
HETATM   11  C9  UNK     1      19.636   6.082  30.812  1.00  0.00     0.288 A 
ENDROOT
BRANCH   6  12
HETATM   12  O2  UNK     1      14.724   7.617  33.986  1.00  0.00    -0.353 OA
HETATM   13  C10 UNK     1      13.856   7.333  32.891  1.00  0.00     0.210 C 
ENDBRANCH   6  12
BRANCH   8  14
HETATM   14  O3  UNK     1      16.523   7.968  36.073  1.00  0.00    -0.358 OA
HETATM   15  H5  UNK     1      15.754   8.553  35.962  1.00  0.00     0.217 HD
ENDBRANCH   8  14
TORSDOF 2
ENDMDL
MODEL 5
REMARK VINA RESULT:      -6.3     23.542     25.135
REMARK  2 active torsions:
REMARK  status: ('A' for Active; 'I' for Inactive)
REMARK    1  A    between atoms: C4_8  and  O2_2 
REMARK    2  A    between atoms: C6_10  and  O3_3 
ROOT
HETATM    1  O1  UNK     1       9.029   5.941  10.003  1.00  0.00    -0.275 OA
HETATM    2  O4  UNK     1       7.060   6.421  11.068  1.00  0.00    -0.260 OA
HETATM    3  C1  UNK     1       9.292   6.560   7.664  1.00  0.00     0.001 A 
HETATM    4  C2  UNK     1       9.803   5.988   8.825  1.00  0.00     0.092 A 
HETATM    5  C3  UNK     1      10.089   6.588   6.517  1.00  0.00     0.053 A 
HETATM    6  C4  UNK     1      11.875   5.478   7.723  1.00  0.00     0.103 A 
HETATM    7  C5  UNK     1      11.087   5.445   8.872  1.00  0.00     0.077 A 
HETATM    8  C6  UNK     1      11.378   6.048   6.549  1.00  0.00     0.100 A 
HETATM    9  C7  UNK     1       7.946   7.107   7.685  1.00  0.00     0.020 A 
HETATM   10  C8  UNK     1       7.220   7.060   8.805  1.00  0.00     0.083 A 
HETATM   11  C9  UNK     1       7.740   6.459  10.047  1.00  0.00     0.288 A 
ENDROOT
BRANCH   6  12
HETATM   12  O2  UNK     1      13.129   4.949   7.758  1.00  0.00    -0.353 OA
HETATM   13  C10 UNK     1      14.131   5.702   8.439  1.00  0.00     0.210 C 
ENDBRANCH   6  12
BRANCH   8  14
HETATM   14  O3  UNK     1      12.143   6.082   5.422  1.00  0.00    -0.358 OA
HETATM   15  H5  UNK     1      12.354   5.171   5.153  1.00  0.00     0.217 HD
ENDBRANCH   8  14
TORSDOF 2
ENDMDL
MODEL 6
REMARK VINA RESULT:      -6.3      4.278      6.697
REMARK  2 active torsions:
REMARK  status: ('A' for Active; 'I' for Inactive)
REMARK    1  A    between atoms: C4_8  and  O2_2 
REMARK    2  A    between atoms: C6_10  and  O3_3 
ROOT
HETATM    1  O1  UNK     1      17.376   4.127  32.095  1.00  0.00    -0.275 OA
HETATM    2  O4  UNK     1      17.357   2.416  30.573  1.00  0.00    -0.260 OA
HETATM    3  C1  UNK     1      19.184   5.754  32.026  1.00  0.00     0.001 A 
HETATM    4  C2  UNK     1      18.007   5.282  32.599  1.00  0.00     0.092 A 
HETATM    5  C3  UNK     1      19.779   6.902  32.553  1.00  0.00     0.053 A 
HETATM    6  C4  UNK     1      18.011   7.070  34.202  1.00  0.00     0.103 A 
HETATM    7  C5  UNK     1      17.410   5.926  33.682  1.00  0.00     0.077 A 
HETATM    8  C6  UNK     1      19.193   7.558  33.639  1.00  0.00     0.100 A 
HETATM    9  C7  UNK     1      19.752   5.035  30.898  1.00  0.00     0.020 A 
HETATM   10  C8  UNK     1      19.148   3.941  30.426  1.00  0.00     0.083 A 
HETATM   11  C9  UNK     1      17.900   3.423  31.016  1.00  0.00     0.288 A 
ENDROOT
BRANCH   6  12
HETATM   12  O2  UNK     1      17.436   7.705  35.261  1.00  0.00    -0.353 OA
HETATM   13  C10 UNK     1      16.349   8.583  34.978  1.00  0.00     0.210 C 
ENDBRANCH   6  12
BRANCH   8  14
HETATM   14  O3  UNK     1      19.786   8.676  34.143  1.00  0.00    -0.358 OA
HETATM   15  H5  UNK     1      19.355   8.914  34.982  1.00  0.00     0.217 HD
ENDBRANCH   8  14
TORSDOF 2
ENDMDL
MODEL 7
REMARK VINA RESULT:      -6.2     22.277     24.482
REMARK  2 active torsions:
REMARK  status: ('A' for Active; 'I' for Inactive)
REMARK    1  A    between atoms: C4_8  and  O2_2 
REMARK    2  A    between atoms: C6_10  and  O3_3 
ROOT
HETATM    1  O1  UNK     1       9.828   5.058   9.847  1.00  0.00    -0.275 OA
HETATM    2  O4  UNK     1       7.635   4.858  10.475  1.00  0.00    -0.260 OA
HETATM    3  C1  UNK     1      10.356   6.035   7.681  1.00  0.00     0.001 A 
HETATM    4  C2  UNK     1      10.771   5.465   8.881  1.00  0.00     0.092 A 
HETATM    5  C3  UNK     1      11.320   6.425   6.750  1.00  0.00     0.053 A 
HETATM    6  C4  UNK     1      13.076   5.666   8.238  1.00  0.00     0.103 A 
HETATM    7  C5  UNK     1      12.121   5.274   9.174  1.00  0.00     0.077 A 
HETATM    8  C6  UNK     1      12.677   6.241   7.029  1.00  0.00     0.100 A 
HETATM    9  C7  UNK     1       8.933   6.204   7.441  1.00  0.00     0.020 A 
HETATM   10  C8  UNK     1       8.045   5.817   8.361  1.00  0.00     0.083 A 
HETATM   11  C9  UNK     1       8.461   5.211   9.640  1.00  0.00     0.288 A 
ENDROOT
BRANCH   6  12
HETATM   12  O2  UNK     1      14.397   5.483   8.514  1.00  0.00    -0.353 OA
HETATM   13  C10 UNK     1      14.732   5.082   9.842  1.00  0.00     0.210 C 
ENDBRANCH   6  12
BRANCH   8  14
HETATM   14  O3  UNK     1      13.606   6.626   6.109  1.00  0.00    -0.358 OA
HETATM   15  H5  UNK     1      13.256   6.463   5.217  1.00  0.00     0.217 HD
ENDBRANCH   8  14
TORSDOF 2
ENDMDL
MODEL 8
REMARK VINA RESULT:      -6.2      2.041      2.927
REMARK  2 active torsions:
REMARK  status: ('A' for Active; 'I' for Inactive)
REMARK    1  A    between atoms: C4_8  and  O2_2 
REMARK    2  A    between atoms: C6_10  and  O3_3 
ROOT
HETATM    1  O1  UNK     1      18.834  -0.221  33.442  1.00  0.00    -0.275 OA
HETATM    2  O4  UNK     1      18.654  -1.071  35.561  1.00  0.00    -0.260 OA
HETATM    3  C1  UNK     1      20.120  -1.448  31.780  1.00  0.00     0.001 A 
HETATM    4  C2  UNK     1      19.341  -0.350  32.133  1.00  0.00     0.092 A 
HETATM    5  C3  UNK     1      20.604  -1.541  30.473  1.00  0.00     0.053 A 
HETATM    6  C4  UNK     1      19.520   0.555  29.916  1.00  0.00     0.103 A 
HETATM    7  C5  UNK     1      19.033   0.655  31.217  1.00  0.00     0.077 A 
HETATM    8  C6  UNK     1      20.303  -0.540  29.544  1.00  0.00     0.100 A 
HETATM    9  C7  UNK     1      20.403  -2.459  32.784  1.00  0.00     0.020 A 
HETATM   10  C8  UNK     1      19.918  -2.330  34.022  1.00  0.00     0.083 A 
HETATM   11  C9  UNK     1      19.090  -1.177  34.420  1.00  0.00     0.288 A 
ENDROOT
BRANCH   6  12
HETATM   12  O2  UNK     1      19.226   1.532  29.015  1.00  0.00    -0.353 OA
HETATM   13  C10 UNK     1      17.845   1.778  28.753  1.00  0.00     0.210 C 
ENDBRANCH   6  12
BRANCH   8  14
HETATM   14  O3  UNK     1      20.783  -0.645  28.273  1.00  0.00    -0.358 OA
HETATM   15  H5  UNK     1      20.368   0.039  27.719  1.00  0.00     0.217 HD
ENDBRANCH   8  14
TORSDOF 2
ENDMDL
MODEL 9
REMARK VINA RESULT:      -6.2      8.244     12.003
REMARK  2 active torsions:
REMARK  status: ('A' for Active; 'I' for Inactive)
REMARK    1  A    between atoms: C4_8  and  O2_2 
REMARK    2  A    between atoms: C6_10  and  O3_3 
ROOT
HETATM    1  O1  UNK     1      20.748  -6.806  35.668  1.00  0.00    -0.275 OA
HETATM    2  O4  UNK     1      20.187  -4.627  35.245  1.00  0.00    -0.260 OA
HETATM    3  C1  UNK     1      19.334  -8.128  37.143  1.00  0.00     0.001 A 
HETATM    4  C2  UNK     1      20.454  -8.019  36.324  1.00  0.00     0.092 A 
HETATM    5  C3  UNK     1      19.077  -9.346  37.776  1.00  0.00     0.053 A 
HETATM    6  C4  UNK     1      21.057 -10.303  36.757  1.00  0.00     0.103 A 
HETATM    7  C5  UNK     1      21.322  -9.091  36.121  1.00  0.00     0.077 A 
HETATM    8  C6  UNK     1      19.938 -10.430  37.583  1.00  0.00     0.100 A 
HETATM    9  C7  UNK     1      18.473  -6.970  37.311  1.00  0.00     0.020 A 
HETATM   10  C8  UNK     1      18.757  -5.825  36.685  1.00  0.00     0.083 A 
HETATM   11  C9  UNK     1      19.937  -5.685  35.812  1.00  0.00     0.288 A 
ENDROOT
BRANCH   6  12
HETATM   12  O2  UNK     1      21.899 -11.356  36.566  1.00  0.00    -0.353 OA
HETATM   13  C10 UNK     1      23.059 -11.121  35.770  1.00  0.00     0.210 C 
ENDBRANCH   6  12
BRANCH   8  14
HETATM   14  O3  UNK     1      19.673 -11.612  38.208  1.00  0.00    -0.358 OA
HETATM   15  H5  UNK     1      19.829 -11.508  39.163  1.00  0.00     0.217 HD
ENDBRANCH   8  14
TORSDOF 2
ENDMDL
MODEL 10
REMARK VINA RESULT:      -6.1     22.366     24.775
REMARK  2 active torsions:
REMARK  status: ('A' for Active; 'I' for Inactive)
REMARK    1  A    between atoms: C4_8  and  O2_2 
REMARK    2  A    between atoms: C6_10  and  O3_3 
ROOT
HETATM    1  O1  UNK     1       9.427   6.861   8.823  1.00  0.00    -0.275 OA
HETATM    2  O4  UNK     1       7.263   7.128   8.126  1.00  0.00    -0.260 OA
HETATM    3  C1  UNK     1      11.099   6.096   7.228  1.00  0.00     0.001 A 
HETATM    4  C2  UNK     1      10.756   6.503   8.513  1.00  0.00     0.092 A 
HETATM    5  C3  UNK     1      12.425   5.750   6.960  1.00  0.00     0.053 A 
HETATM    6  C4  UNK     1      13.022   6.228   9.260  1.00  0.00     0.103 A 
HETATM    7  C5  UNK     1      11.701   6.575   9.536  1.00  0.00     0.077 A 
HETATM    8  C6  UNK     1      13.384   5.817   7.976  1.00  0.00     0.100 A 
HETATM    9  C7  UNK     1      10.064   6.043   6.209  1.00  0.00     0.020 A 
HETATM   10  C8  UNK     1       8.808   6.384   6.510  1.00  0.00     0.083 A 
HETATM   11  C9  UNK     1       8.421   6.820   7.864  1.00  0.00     0.288 A 
ENDROOT
BRANCH   6  12
HETATM   12  O2  UNK     1      13.951   6.294  10.253  1.00  0.00    -0.353 OA
HETATM   13  C10 UNK     1      14.576   7.558  10.473  1.00  0.00     0.210 C 
ENDBRANCH   6  12
BRANCH   8  14
HETATM   14  O3  UNK     1      14.674   5.476   7.699  1.00  0.00    -0.358 OA
HETATM   15  H5  UNK     1      15.134   6.247   7.326  1.00  0.00     0.217 HD
ENDBRANCH   8  14
TORSDOF 2
ENDMDL
