MODEL 1
REMARK VINA RESULT:      -9.1      0.000      0.000
REMARK  5 active torsions:
REMARK  status: ('A' for Active; 'I' for Inactive)
REMARK    1  A    between atoms: C10_16  and  O2_2 
REMARK    2  A    between atoms: C17_23  and  O2_2 
REMARK    3  A    between atoms: C5_11  and  O3_3 
REMARK    4  A    between atoms: C6_12  and  N1_6 
REMARK       I    between atoms: C8_14  and  N1_6 
REMARK    5  A    between atoms: C3_9  and  C8_14 
ROOT
HETATM    1  O1  UNK     1      19.456  -1.218  34.778  1.00  0.00    -0.271 OA
HETATM    2  O5  UNK     1      20.591  -3.134  34.267  1.00  0.00    -0.259 OA
HETATM    3  C1  UNK     1      18.508  -0.941  37.000  1.00  0.00     0.002 A 
HETATM    4  C2  UNK     1      18.735  -0.454  35.717  1.00  0.00     0.123 A 
HETATM    5  C3  UNK     1      19.709  -2.975  36.460  1.00  0.00     0.108 A 
HETATM    6  C4  UNK     1      19.025  -2.254  37.356  1.00  0.00     0.037 A 
HETATM    7  C5  UNK     1      18.267   0.794  35.313  1.00  0.00     0.102 A 
HETATM    8  C7  UNK     1      17.790  -0.154  37.903  1.00  0.00     0.014 A 
HETATM    9  C9  UNK     1      19.964  -2.476  35.090  1.00  0.00     0.304 A 
HETATM   10  C11 UNK     1      17.552   1.573  36.220  1.00  0.00     0.040 A 
HETATM   11  C12 UNK     1      17.313   1.100  37.512  1.00  0.00     0.004 A 
ENDROOT
BRANCH   5  12
HETATM   12  C8  UNK     1      20.190  -4.285  36.913  1.00  0.00     0.262 C 
HETATM   13  O4  UNK     1      21.394  -4.466  37.089  1.00  0.00    -0.267 OA
HETATM   14  N1  UNK     1      19.154  -5.192  37.089  1.00  0.00    -0.320 N 
HETATM   15  H3  UNK     1      18.205  -4.892  36.879  1.00  0.00     0.169 HD
BRANCH  14  16
HETATM   16  C6  UNK     1      19.247  -6.540  37.514  1.00  0.00     0.068 A 
HETATM   17  C10 UNK     1      18.867  -7.562  36.661  1.00  0.00     0.095 A 
HETATM   18  C14 UNK     1      18.965  -8.884  37.094  1.00  0.00     0.039 A 
HETATM   19  C16 UNK     1      19.443  -9.166  38.374  1.00  0.00     0.003 A 
HETATM   20  C15 UNK     1      19.823  -8.125  39.221  1.00  0.00     0.002 A 
HETATM   21  C13 UNK     1      19.725  -6.803  38.788  1.00  0.00     0.032 A 
BRANCH  17  22
HETATM   22  O2  UNK     1      18.395  -7.308  35.407  1.00  0.00    -0.349 OA
BRANCH  22  23
HETATM   23  C17 UNK     1      17.111  -7.833  35.082  1.00  0.00     0.171 C 
HETATM   24  C18 UNK     1      16.056  -6.801  35.422  1.00  0.00     0.034 C 
ENDBRANCH  22  23
ENDBRANCH  17  22
ENDBRANCH  14  16
ENDBRANCH   5  12
BRANCH   7  25
HETATM   25  O3  UNK     1      18.496   1.259  34.056  1.00  0.00    -0.353 OA
HETATM   26  C19 UNK     1      18.273   2.651  33.827  1.00  0.00     0.210 C 
ENDBRANCH   7  25
TORSDOF 5
ENDMDL
MODEL 2
REMARK VINA RESULT:      -9.0      5.582     11.371
REMARK  5 active torsions:
REMARK  status: ('A' for Active; 'I' for Inactive)
REMARK    1  A    between atoms: C10_16  and  O2_2 
REMARK    2  A    between atoms: C17_23  and  O2_2 
REMARK    3  A    between atoms: C5_11  and  O3_3 
REMARK    4  A    between atoms: C6_12  and  N1_6 
REMARK       I    between atoms: C8_14  and  N1_6 
REMARK    5  A    between atoms: C3_9  and  C8_14 
ROOT
HETATM    1  O1  UNK     1      18.721   0.849  32.652  1.00  0.00    -0.271 OA
HETATM    2  O5  UNK     1      17.934   2.741  33.666  1.00  0.00    -0.259 OA
HETATM    3  C1  UNK     1      19.425   0.938  30.327  1.00  0.00     0.002 A 
HETATM    4  C2  UNK     1      19.237   0.219  31.503  1.00  0.00     0.123 A 
HETATM    5  C3  UNK     1      18.588   2.943  31.397  1.00  0.00     0.108 A 
HETATM    6  C4  UNK     1      19.077   2.350  30.302  1.00  0.00     0.037 A 
HETATM    7  C5  UNK     1      19.549  -1.135  31.592  1.00  0.00     0.102 A 
HETATM    8  C7  UNK     1      19.939   0.278  29.208  1.00  0.00     0.014 A 
HETATM    9  C9  UNK     1      18.382   2.199  32.660  1.00  0.00     0.304 A 
HETATM   10  C11 UNK     1      20.061  -1.786  30.472  1.00  0.00     0.040 A 
HETATM   11  C12 UNK     1      20.255  -1.081  29.283  1.00  0.00     0.004 A 
ENDROOT
BRANCH   5  12
HETATM   12  C8  UNK     1      18.269   4.371  31.274  1.00  0.00     0.262 C 
HETATM   13  O4  UNK     1      18.707   5.014  30.321  1.00  0.00    -0.267 OA
HETATM   14  N1  UNK     1      17.470   4.821  32.315  1.00  0.00    -0.320 N 
HETATM   15  H3  UNK     1      17.207   4.164  33.046  1.00  0.00     0.169 HD
BRANCH  14  16
HETATM   16  C6  UNK     1      16.973   6.132  32.519  1.00  0.00     0.068 A 
HETATM   17  C10 UNK     1      17.660   7.013  33.337  1.00  0.00     0.095 A 
HETATM   18  C14 UNK     1      17.158   8.301  33.527  1.00  0.00     0.039 A 
HETATM   19  C16 UNK     1      15.976   8.689  32.896  1.00  0.00     0.003 A 
HETATM   20  C15 UNK     1      15.296   7.789  32.075  1.00  0.00     0.002 A 
HETATM   21  C13 UNK     1      15.798   6.502  31.885  1.00  0.00     0.032 A 
BRANCH  17  22
HETATM   22  O2  UNK     1      18.816   6.653  33.964  1.00  0.00    -0.349 OA
BRANCH  22  23
HETATM   23  C17 UNK     1      19.999   7.357  33.592  1.00  0.00     0.171 C 
HETATM   24  C18 UNK     1      20.893   6.431  32.795  1.00  0.00     0.034 C 
ENDBRANCH  22  23
ENDBRANCH  17  22
ENDBRANCH  14  16
ENDBRANCH   5  12
BRANCH   7  25
HETATM   25  O3  UNK     1      19.360  -1.827  32.748  1.00  0.00    -0.353 OA
HETATM   26  C19 UNK     1      20.497  -2.491  33.301  1.00  0.00     0.210 C 
ENDBRANCH   7  25
TORSDOF 5
ENDMDL
MODEL 3
REMARK VINA RESULT:      -8.7      1.842      7.681
REMARK  5 active torsions:
REMARK  status: ('A' for Active; 'I' for Inactive)
REMARK    1  A    between atoms: C10_16  and  O2_2 
REMARK    2  A    between atoms: C17_23  and  O2_2 
REMARK    3  A    between atoms: C5_11  and  O3_3 
REMARK    4  A    between atoms: C6_12  and  N1_6 
REMARK       I    between atoms: C8_14  and  N1_6 
REMARK    5  A    between atoms: C3_9  and  C8_14 
ROOT
HETATM    1  O1  UNK     1      20.367  -7.190  35.825  1.00  0.00    -0.271 OA
HETATM    2  O5  UNK     1      20.322  -5.175  34.746  1.00  0.00    -0.259 OA
HETATM    3  C1  UNK     1      20.122  -7.261  38.243  1.00  0.00     0.002 A 
HETATM    4  C2  UNK     1      20.298  -7.918  37.029  1.00  0.00     0.123 A 
HETATM    5  C3  UNK     1      20.077  -5.125  37.102  1.00  0.00     0.108 A 
HETATM    6  C4  UNK     1      20.012  -5.811  38.249  1.00  0.00     0.037 A 
HETATM    7  C5  UNK     1      20.411  -9.304  36.955  1.00  0.00     0.102 A 
HETATM    8  C7  UNK     1      20.059  -8.018  39.416  1.00  0.00     0.014 A 
HETATM    9  C9  UNK     1      20.262  -5.802  35.799  1.00  0.00     0.304 A 
HETATM   10  C11 UNK     1      20.347 -10.051  38.129  1.00  0.00     0.040 A 
HETATM   11  C12 UNK     1      20.171  -9.409  39.356  1.00  0.00     0.004 A 
ENDROOT
BRANCH   5  12
HETATM   12  C8  UNK     1      19.955  -3.666  37.211  1.00  0.00     0.262 C 
HETATM   13  O4  UNK     1      20.785  -3.031  37.859  1.00  0.00    -0.267 OA
HETATM   14  N1  UNK     1      18.850  -3.180  36.526  1.00  0.00    -0.320 N 
HETATM   15  H3  UNK     1      18.241  -3.843  36.052  1.00  0.00     0.169 HD
BRANCH  14  16
HETATM   16  C6  UNK     1      18.424  -1.833  36.416  1.00  0.00     0.068 A 
HETATM   17  C10 UNK     1      18.732  -1.101  35.282  1.00  0.00     0.095 A 
HETATM   18  C14 UNK     1      18.305   0.224  35.188  1.00  0.00     0.039 A 
HETATM   19  C16 UNK     1      17.575   0.797  36.230  1.00  0.00     0.003 A 
HETATM   20  C15 UNK     1      17.272   0.045  37.365  1.00  0.00     0.002 A 
HETATM   21  C13 UNK     1      17.699  -1.279  37.459  1.00  0.00     0.032 A 
BRANCH  17  22
HETATM   22  O2  UNK     1      19.446  -1.642  34.254  1.00  0.00    -0.349 OA
BRANCH  22  23
HETATM   23  C17 UNK     1      18.990  -1.362  32.933  1.00  0.00     0.171 C 
HETATM   24  C18 UNK     1      20.067  -1.758  31.945  1.00  0.00     0.034 C 
ENDBRANCH  22  23
ENDBRANCH  17  22
ENDBRANCH  14  16
ENDBRANCH   5  12
BRANCH   7  25
HETATM   25  O3  UNK     1      20.583  -9.933  35.762  1.00  0.00    -0.353 OA
HETATM   26  C19 UNK     1      21.689 -10.830  35.653  1.00  0.00     0.210 C 
ENDBRANCH   7  25
TORSDOF 5
ENDMDL
MODEL 4
REMARK VINA RESULT:      -8.5      2.433      3.605
REMARK  5 active torsions:
REMARK  status: ('A' for Active; 'I' for Inactive)
REMARK    1  A    between atoms: C10_16  and  O2_2 
REMARK    2  A    between atoms: C17_23  and  O2_2 
REMARK    3  A    between atoms: C5_11  and  O3_3 
REMARK    4  A    between atoms: C6_12  and  N1_6 
REMARK       I    between atoms: C8_14  and  N1_6 
REMARK    5  A    between atoms: C3_9  and  C8_14 
ROOT
HETATM    1  O1  UNK     1      18.854  -0.340  33.675  1.00  0.00    -0.271 OA
HETATM    2  O5  UNK     1      18.436  -0.491  35.917  1.00  0.00    -0.259 OA
HETATM    3  C1  UNK     1      20.189  -2.055  32.585  1.00  0.00     0.002 A 
HETATM    4  C2  UNK     1      19.457  -0.874  32.519  1.00  0.00     0.123 A 
HETATM    5  C3  UNK     1      19.750  -2.216  34.962  1.00  0.00     0.108 A 
HETATM    6  C4  UNK     1      20.325  -2.728  33.868  1.00  0.00     0.037 A 
HETATM    7  C5  UNK     1      19.289  -0.180  31.323  1.00  0.00     0.102 A 
HETATM    8  C7  UNK     1      20.772  -2.553  31.417  1.00  0.00     0.014 A 
HETATM    9  C9  UNK     1      18.965  -0.963  34.915  1.00  0.00     0.304 A 
HETATM   10  C11 UNK     1      19.873  -0.684  30.163  1.00  0.00     0.040 A 
HETATM   11  C12 UNK     1      20.613  -1.867  30.210  1.00  0.00     0.004 A 
ENDROOT
BRANCH   5  12
HETATM   12  C8  UNK     1      19.943  -2.969  36.208  1.00  0.00     0.262 C 
HETATM   13  O4  UNK     1      20.163  -2.365  37.257  1.00  0.00    -0.267 OA
HETATM   14  N1  UNK     1      19.846  -4.339  36.013  1.00  0.00    -0.320 N 
HETATM   15  H3  UNK     1      19.680  -4.686  35.071  1.00  0.00     0.169 HD
BRANCH  14  16
HETATM   16  C6  UNK     1      19.977  -5.362  36.983  1.00  0.00     0.068 A 
HETATM   17  C10 UNK     1      18.972  -6.303  37.138  1.00  0.00     0.095 A 
HETATM   18  C14 UNK     1      19.117  -7.305  38.098  1.00  0.00     0.039 A 
HETATM   19  C16 UNK     1      20.265  -7.352  38.889  1.00  0.00     0.003 A 
HETATM   20  C15 UNK     1      21.269  -6.399  38.719  1.00  0.00     0.002 A 
HETATM   21  C13 UNK     1      21.124  -5.397  37.760  1.00  0.00     0.032 A 
BRANCH  17  22
HETATM   22  O2  UNK     1      17.842  -6.272  36.376  1.00  0.00    -0.349 OA
BRANCH  22  23
HETATM   23  C17 UNK     1      17.638  -7.361  35.479  1.00  0.00     0.171 C 
HETATM   24  C18 UNK     1      16.215  -7.314  34.962  1.00  0.00     0.034 C 
ENDBRANCH  22  23
ENDBRANCH  17  22
ENDBRANCH  14  16
ENDBRANCH   5  12
BRANCH   7  25
HETATM   25  O3  UNK     1      18.571   0.973  31.273  1.00  0.00    -0.353 OA
HETATM   26  C19 UNK     1      18.732   1.790  30.113  1.00  0.00     0.210 C 
ENDBRANCH   7  25
TORSDOF 5
ENDMDL
MODEL 5
REMARK VINA RESULT:      -8.4      1.414      2.308
REMARK  5 active torsions:
REMARK  status: ('A' for Active; 'I' for Inactive)
REMARK    1  A    between atoms: C10_16  and  O2_2 
REMARK    2  A    between atoms: C17_23  and  O2_2 
REMARK    3  A    between atoms: C5_11  and  O3_3 
REMARK    4  A    between atoms: C6_12  and  N1_6 
REMARK       I    between atoms: C8_14  and  N1_6 
REMARK    5  A    between atoms: C3_9  and  C8_14 
ROOT
HETATM    1  O1  UNK     1      19.583  -1.393  34.602  1.00  0.00    -0.271 OA
HETATM    2  O5  UNK     1      20.845  -3.168  33.907  1.00  0.00    -0.259 OA
HETATM    3  C1  UNK     1      18.687  -1.370  36.862  1.00  0.00     0.002 A 
HETATM    4  C2  UNK     1      18.836  -0.765  35.618  1.00  0.00     0.123 A 
HETATM    5  C3  UNK     1      20.022  -3.254  36.127  1.00  0.00     0.108 A 
HETATM    6  C4  UNK     1      19.313  -2.663  37.095  1.00  0.00     0.037 A 
HETATM    7  C5  UNK     1      18.263   0.470  35.329  1.00  0.00     0.102 A 
HETATM    8  C7  UNK     1      17.939  -0.716  37.844  1.00  0.00     0.014 A 
HETATM    9  C9  UNK     1      20.195  -2.628  34.797  1.00  0.00     0.304 A 
HETATM   10  C11 UNK     1      17.518   1.116  36.314  1.00  0.00     0.040 A 
HETATM   11  C12 UNK     1      17.357   0.524  37.568  1.00  0.00     0.004 A 
ENDROOT
BRANCH   5  12
HETATM   12  C8  UNK     1      20.615  -4.555  36.459  1.00  0.00     0.262 C 
HETATM   13  O4  UNK     1      21.620  -4.604  37.167  1.00  0.00    -0.267 OA
HETATM   14  N1  UNK     1      19.915  -5.610  35.892  1.00  0.00    -0.320 N 
HETATM   15  H3  UNK     1      19.108  -5.401  35.308  1.00  0.00     0.169 HD
BRANCH  14  16
HETATM   16  C6  UNK     1      20.199  -6.994  35.999  1.00  0.00     0.068 A 
HETATM   17  C10 UNK     1      19.841  -7.687  37.143  1.00  0.00     0.095 A 
HETATM   18  C14 UNK     1      20.128  -9.050  37.232  1.00  0.00     0.039 A 
HETATM   19  C16 UNK     1      20.768  -9.699  36.177  1.00  0.00     0.003 A 
HETATM   20  C15 UNK     1      21.120  -8.986  35.031  1.00  0.00     0.002 A 
HETATM   21  C13 UNK     1      20.834  -7.625  34.941  1.00  0.00     0.032 A 
BRANCH  17  22
HETATM   22  O2  UNK     1      19.217  -7.070  38.186  1.00  0.00    -0.349 OA
BRANCH  22  23
HETATM   23  C17 UNK     1      19.748  -7.308  39.488  1.00  0.00     0.171 C 
HETATM   24  C18 UNK     1      21.214  -6.927  39.499  1.00  0.00     0.034 C 
ENDBRANCH  22  23
ENDBRANCH  17  22
ENDBRANCH  14  16
ENDBRANCH   5  12
BRANCH   7  25
HETATM   25  O3  UNK     1      18.416   1.050  34.109  1.00  0.00    -0.353 OA
HETATM   26  C19 UNK     1      18.171   2.454  34.021  1.00  0.00     0.210 C 
ENDBRANCH   7  25
TORSDOF 5
ENDMDL
MODEL 6
REMARK VINA RESULT:      -8.4     18.180     20.409
REMARK  5 active torsions:
REMARK  status: ('A' for Active; 'I' for Inactive)
REMARK    1  A    between atoms: C10_16  and  O2_2 
REMARK    2  A    between atoms: C17_23  and  O2_2 
REMARK    3  A    between atoms: C5_11  and  O3_3 
REMARK    4  A    between atoms: C6_12  and  N1_6 
REMARK       I    between atoms: C8_14  and  N1_6 
REMARK    5  A    between atoms: C3_9  and  C8_14 
ROOT
HETATM    1  O1  UNK     1      19.371   1.805  17.197  1.00  0.00    -0.271 OA
HETATM    2  O5  UNK     1      19.159   1.036  15.055  1.00  0.00    -0.259 OA
HETATM    3  C1  UNK     1      19.191   0.247  19.054  1.00  0.00     0.002 A 
HETATM    4  C2  UNK     1      19.384   1.541  18.580  1.00  0.00     0.123 A 
HETATM    5  C3  UNK     1      18.963  -0.570  16.786  1.00  0.00     0.108 A 
HETATM    6  C4  UNK     1      18.973  -0.827  18.098  1.00  0.00     0.037 A 
HETATM    7  C5  UNK     1      19.596   2.614  19.442  1.00  0.00     0.102 A 
HETATM    8  C7  UNK     1      19.210   0.025  20.434  1.00  0.00     0.014 A 
HETATM    9  C9  UNK     1      19.168   0.797  16.258  1.00  0.00     0.304 A 
HETATM   10  C11 UNK     1      19.615   2.384  20.816  1.00  0.00     0.040 A 
HETATM   11  C12 UNK     1      19.422   1.092  21.310  1.00  0.00     0.004 A 
ENDROOT
BRANCH   5  12
HETATM   12  C8  UNK     1      18.737  -1.720  15.902  1.00  0.00     0.262 C 
HETATM   13  O4  UNK     1      17.684  -2.351  15.978  1.00  0.00    -0.267 OA
HETATM   14  N1  UNK     1      19.811  -1.947  15.052  1.00  0.00    -0.320 N 
HETATM   15  H3  UNK     1      20.626  -1.344  15.127  1.00  0.00     0.169 HD
BRANCH  14  16
HETATM   16  C6  UNK     1      19.940  -2.963  14.074  1.00  0.00     0.068 A 
HETATM   17  C10 UNK     1      20.319  -4.241  14.449  1.00  0.00     0.095 A 
HETATM   18  C14 UNK     1      20.441  -5.231  13.474  1.00  0.00     0.039 A 
HETATM   19  C16 UNK     1      20.181  -4.929  12.137  1.00  0.00     0.003 A 
HETATM   20  C15 UNK     1      19.798  -3.638  11.776  1.00  0.00     0.002 A 
HETATM   21  C13 UNK     1      19.677  -2.648  12.750  1.00  0.00     0.032 A 
BRANCH  17  22
HETATM   22  O2  UNK     1      20.580  -4.556  15.750  1.00  0.00    -0.349 OA
BRANCH  22  23
HETATM   23  C17 UNK     1      21.948  -4.564  16.151  1.00  0.00     0.171 C 
HETATM   24  C18 UNK     1      22.149  -3.530  17.239  1.00  0.00     0.034 C 
ENDBRANCH  22  23
ENDBRANCH  17  22
ENDBRANCH  14  16
ENDBRANCH   5  12
BRANCH   7  25
HETATM   25  O3  UNK     1      19.784   3.874  18.965  1.00  0.00    -0.353 OA
HETATM   26  C19 UNK     1      21.106   4.224  18.556  1.00  0.00     0.210 C 
ENDBRANCH   7  25
TORSDOF 5
ENDMDL
MODEL 7
REMARK VINA RESULT:      -8.3     19.139     21.223
REMARK  5 active torsions:
REMARK  status: ('A' for Active; 'I' for Inactive)
REMARK    1  A    between atoms: C10_16  and  O2_2 
REMARK    2  A    between atoms: C17_23  and  O2_2 
REMARK    3  A    between atoms: C5_11  and  O3_3 
REMARK    4  A    between atoms: C6_12  and  N1_6 
REMARK       I    between atoms: C8_14  and  N1_6 
REMARK    5  A    between atoms: C3_9  and  C8_14 
ROOT
HETATM    1  O1  UNK     1      19.370   1.204  16.318  1.00  0.00    -0.271 OA
HETATM    2  O5  UNK     1      19.405   0.056  14.342  1.00  0.00    -0.259 OA
HETATM    3  C1  UNK     1      18.782   0.042  18.371  1.00  0.00     0.002 A 
HETATM    4  C2  UNK     1      19.157   1.208  17.711  1.00  0.00     0.123 A 
HETATM    5  C3  UNK     1      18.815  -1.177  16.278  1.00  0.00     0.108 A 
HETATM    6  C4  UNK     1      18.611  -1.180  17.600  1.00  0.00     0.037 A 
HETATM    7  C5  UNK     1      19.337   2.410  18.390  1.00  0.00     0.102 A 
HETATM    8  C7  UNK     1      18.581   0.085  19.753  1.00  0.00     0.014 A 
HETATM    9  C9  UNK     1      19.216   0.051  15.554  1.00  0.00     0.304 A 
HETATM   10  C11 UNK     1      19.134   2.444  19.768  1.00  0.00     0.040 A 
HETATM   11  C12 UNK     1      18.756   1.285  20.447  1.00  0.00     0.004 A 
ENDROOT
BRANCH   5  12
HETATM   12  C8  UNK     1      18.619  -2.458  15.588  1.00  0.00     0.262 C 
HETATM   13  O4  UNK     1      17.554  -3.060  15.712  1.00  0.00    -0.267 OA
HETATM   14  N1  UNK     1      19.733  -2.832  14.849  1.00  0.00    -0.320 N 
HETATM   15  H3  UNK     1      20.552  -2.229  14.866  1.00  0.00     0.169 HD
BRANCH  14  16
HETATM   16  C6  UNK     1      19.898  -3.999  14.064  1.00  0.00     0.068 A 
HETATM   17  C10 UNK     1      19.488  -4.007  12.741  1.00  0.00     0.095 A 
HETATM   18  C14 UNK     1      19.658  -5.164  11.981  1.00  0.00     0.039 A 
HETATM   19  C16 UNK     1      20.236  -6.297  12.554  1.00  0.00     0.003 A 
HETATM   20  C15 UNK     1      20.645  -6.272  13.887  1.00  0.00     0.002 A 
HETATM   21  C13 UNK     1      20.475  -5.116  14.648  1.00  0.00     0.032 A 
BRANCH  17  22
HETATM   22  O2  UNK     1      18.919  -2.911  12.163  1.00  0.00    -0.349 OA
BRANCH  22  23
HETATM   23  C17 UNK     1      19.560  -2.387  11.003  1.00  0.00     0.171 C 
HETATM   24  C18 UNK     1      20.791  -1.613  11.427  1.00  0.00     0.034 C 
ENDBRANCH  22  23
ENDBRANCH  17  22
ENDBRANCH  14  16
ENDBRANCH   5  12
BRANCH   7  25
HETATM   25  O3  UNK     1      19.704   3.542  17.732  1.00  0.00    -0.353 OA
HETATM   26  C19 UNK     1      20.686   4.368  18.358  1.00  0.00     0.210 C 
ENDBRANCH   7  25
TORSDOF 5
ENDMDL
MODEL 8
REMARK VINA RESULT:      -8.2      1.319      2.625
REMARK  5 active torsions:
REMARK  status: ('A' for Active; 'I' for Inactive)
REMARK    1  A    between atoms: C10_16  and  O2_2 
REMARK    2  A    between atoms: C17_23  and  O2_2 
REMARK    3  A    between atoms: C5_11  and  O3_3 
REMARK    4  A    between atoms: C6_12  and  N1_6 
REMARK       I    between atoms: C8_14  and  N1_6 
REMARK    5  A    between atoms: C3_9  and  C8_14 
ROOT
HETATM    1  O1  UNK     1      19.647  -1.278  34.800  1.00  0.00    -0.271 OA
HETATM    2  O5  UNK     1      20.587  -3.139  33.863  1.00  0.00    -0.259 OA
HETATM    3  C1  UNK     1      18.557  -1.446  36.966  1.00  0.00     0.002 A 
HETATM    4  C2  UNK     1      18.946  -0.685  35.868  1.00  0.00     0.123 A 
HETATM    5  C3  UNK     1      19.550  -3.420  35.975  1.00  0.00     0.108 A 
HETATM    6  C4  UNK     1      18.883  -2.863  36.992  1.00  0.00     0.037 A 
HETATM    7  C5  UNK     1      18.664   0.676  35.782  1.00  0.00     0.102 A 
HETATM    8  C7  UNK     1      17.863  -0.822  38.007  1.00  0.00     0.014 A 
HETATM    9  C9  UNK     1      19.975  -2.631  34.797  1.00  0.00     0.304 A 
HETATM   10  C11 UNK     1      17.972   1.290  36.823  1.00  0.00     0.040 A 
HETATM   11  C12 UNK     1      17.573   0.543  37.933  1.00  0.00     0.004 A 
ENDROOT
BRANCH   5  12
HETATM   12  C8  UNK     1      19.833  -4.856  36.093  1.00  0.00     0.262 C 
HETATM   13  O4  UNK     1      20.470  -5.427  35.209  1.00  0.00    -0.267 OA
HETATM   14  N1  UNK     1      19.309  -5.399  37.258  1.00  0.00    -0.320 N 
HETATM   15  H3  UNK     1      18.784  -4.793  37.884  1.00  0.00     0.169 HD
BRANCH  14  16
HETATM   16  C6  UNK     1      19.388  -6.743  37.698  1.00  0.00     0.068 A 
HETATM   17  C10 UNK     1      20.315  -7.102  38.663  1.00  0.00     0.095 A 
HETATM   18  C14 UNK     1      20.380  -8.429  39.086  1.00  0.00     0.039 A 
HETATM   19  C16 UNK     1      19.517  -9.379  38.538  1.00  0.00     0.003 A 
HETATM   20  C15 UNK     1      18.589  -9.001  37.568  1.00  0.00     0.002 A 
HETATM   21  C13 UNK     1      18.524  -7.674  37.145  1.00  0.00     0.032 A 
BRANCH  17  22
HETATM   22  O2  UNK     1      21.168  -6.189  39.208  1.00  0.00    -0.349 OA
BRANCH  22  23
HETATM   23  C17 UNK     1      22.397  -5.962  38.521  1.00  0.00     0.171 C 
HETATM   24  C18 UNK     1      23.537  -6.495  39.363  1.00  0.00     0.034 C 
ENDBRANCH  22  23
ENDBRANCH  17  22
ENDBRANCH  14  16
ENDBRANCH   5  12
BRANCH   7  25
HETATM   25  O3  UNK     1      19.050   1.407  34.703  1.00  0.00    -0.353 OA
HETATM   26  C19 UNK     1      18.309   2.596  34.424  1.00  0.00     0.210 C 
ENDBRANCH   7  25
TORSDOF 5
ENDMDL
MODEL 9
REMARK VINA RESULT:      -8.1      5.748     11.474
REMARK  5 active torsions:
REMARK  status: ('A' for Active; 'I' for Inactive)
REMARK    1  A    between atoms: C10_16  and  O2_2 
REMARK    2  A    between atoms: C17_23  and  O2_2 
REMARK    3  A    between atoms: C5_11  and  O3_3 
REMARK    4  A    between atoms: C6_12  and  N1_6 
REMARK       I    between atoms: C8_14  and  N1_6 
REMARK    5  A    between atoms: C3_9  and  C8_14 
ROOT
HETATM    1  O1  UNK     1      17.995   1.893  32.464  1.00  0.00    -0.271 OA
HETATM    2  O5  UNK     1      18.040   3.542  30.882  1.00  0.00    -0.259 OA
HETATM    3  C1  UNK     1      18.346   2.464  34.801  1.00  0.00     0.002 A 
HETATM    4  C2  UNK     1      18.100   1.513  33.817  1.00  0.00     0.123 A 
HETATM    5  C3  UNK     1      18.397   4.213  33.126  1.00  0.00     0.108 A 
HETATM    6  C4  UNK     1      18.497   3.858  34.412  1.00  0.00     0.037 A 
HETATM    7  C5  UNK     1      17.946   0.163  34.123  1.00  0.00     0.102 A 
HETATM    8  C7  UNK     1      18.443   2.048  36.132  1.00  0.00     0.014 A 
HETATM    9  C9  UNK     1      18.133   3.219  32.062  1.00  0.00     0.304 A 
HETATM   10  C11 UNK     1      18.043  -0.243  35.452  1.00  0.00     0.040 A 
HETATM   11  C12 UNK     1      18.292   0.697  36.454  1.00  0.00     0.004 A 
ENDROOT
BRANCH   5  12
HETATM   12  C8  UNK     1      18.563   5.642  32.833  1.00  0.00     0.262 C 
HETATM   13  O4  UNK     1      18.749   6.010  31.674  1.00  0.00    -0.267 OA
HETATM   14  N1  UNK     1      18.482   6.424  33.977  1.00  0.00    -0.320 N 
HETATM   15  H3  UNK     1      18.345   5.963  34.873  1.00  0.00     0.169 HD
BRANCH  14  16
HETATM   16  C6  UNK     1      18.597   7.833  34.071  1.00  0.00     0.068 A 
HETATM   17  C10 UNK     1      17.468   8.628  33.960  1.00  0.00     0.095 A 
HETATM   18  C14 UNK     1      17.597  10.013  34.056  1.00  0.00     0.039 A 
HETATM   19  C16 UNK     1      18.853  10.584  34.262  1.00  0.00     0.003 A 
HETATM   20  C15 UNK     1      19.980   9.770  34.372  1.00  0.00     0.002 A 
HETATM   21  C13 UNK     1      19.851   8.385  34.276  1.00  0.00     0.032 A 
BRANCH  17  22
HETATM   22  O2  UNK     1      16.232   8.089  33.757  1.00  0.00    -0.349 OA
BRANCH  22  23
HETATM   23  C17 UNK     1      15.603   8.368  32.509  1.00  0.00     0.171 C 
HETATM   24  C18 UNK     1      15.242   7.061  31.835  1.00  0.00     0.034 C 
ENDBRANCH  22  23
ENDBRANCH  17  22
ENDBRANCH  14  16
ENDBRANCH   5  12
BRANCH   7  25
HETATM   25  O3  UNK     1      17.705  -0.756  33.151  1.00  0.00    -0.353 OA
HETATM   26  C19 UNK     1      18.841  -1.369  32.539  1.00  0.00     0.210 C 
ENDBRANCH   7  25
TORSDOF 5
ENDMDL
MODEL 10
REMARK VINA RESULT:      -8.1      5.553     11.280
REMARK  5 active torsions:
REMARK  status: ('A' for Active; 'I' for Inactive)
REMARK    1  A    between atoms: C10_16  and  O2_2 
REMARK    2  A    between atoms: C17_23  and  O2_2 
REMARK    3  A    between atoms: C5_11  and  O3_3 
REMARK    4  A    between atoms: C6_12  and  N1_6 
REMARK       I    between atoms: C8_14  and  N1_6 
REMARK    5  A    between atoms: C3_9  and  C8_14 
ROOT
HETATM    1  O1  UNK     1      18.672   0.862  32.701  1.00  0.00    -0.271 OA
HETATM    2  O5  UNK     1      17.971   2.721  33.830  1.00  0.00    -0.259 OA
HETATM    3  C1  UNK     1      19.474   1.077  30.416  1.00  0.00     0.002 A 
HETATM    4  C2  UNK     1      19.191   0.286  31.525  1.00  0.00     0.123 A 
HETATM    5  C3  UNK     1      18.729   3.049  31.609  1.00  0.00     0.108 A 
HETATM    6  C4  UNK     1      19.222   2.508  30.489  1.00  0.00     0.037 A 
HETATM    7  C5  UNK     1      19.409  -1.089  31.519  1.00  0.00     0.102 A 
HETATM    8  C7  UNK     1      19.988   0.470  29.268  1.00  0.00     0.014 A 
HETATM    9  C9  UNK     1      18.423   2.228  32.802  1.00  0.00     0.304 A 
HETATM   10  C11 UNK     1      19.922  -1.687  30.370  1.00  0.00     0.040 A 
HETATM   11  C12 UNK     1      20.211  -0.909  29.247  1.00  0.00     0.004 A 
ENDROOT
BRANCH   5  12
HETATM   12  C8  UNK     1      18.510   4.501  31.586  1.00  0.00     0.262 C 
HETATM   13  O4  UNK     1      18.278   5.066  30.519  1.00  0.00    -0.267 OA
HETATM   14  N1  UNK     1      18.604   5.065  32.851  1.00  0.00    -0.320 N 
HETATM   15  H3  UNK     1      18.826   4.460  33.638  1.00  0.00     0.169 HD
BRANCH  14  16
HETATM   16  C6  UNK     1      18.452   6.429  33.203  1.00  0.00     0.068 A 
HETATM   17  C10 UNK     1      17.230   7.057  33.027  1.00  0.00     0.095 A 
HETATM   18  C14 UNK     1      17.097   8.400  33.380  1.00  0.00     0.039 A 
HETATM   19  C16 UNK     1      18.186   9.096  33.903  1.00  0.00     0.003 A 
HETATM   20  C15 UNK     1      19.409   8.448  34.076  1.00  0.00     0.002 A 
HETATM   21  C13 UNK     1      19.544   7.106  33.724  1.00  0.00     0.032 A 
BRANCH  17  22
HETATM   22  O2  UNK     1      16.154   6.395  32.515  1.00  0.00    -0.349 OA
BRANCH  22  23
HETATM   23  C17 UNK     1      15.186   7.177  31.820  1.00  0.00     0.171 C 
HETATM   24  C18 UNK     1      13.868   7.104  32.563  1.00  0.00     0.034 C 
ENDBRANCH  22  23
ENDBRANCH  17  22
ENDBRANCH  14  16
ENDBRANCH   5  12
BRANCH   7  25
HETATM   25  O3  UNK     1      19.128  -1.851  32.610  1.00  0.00    -0.353 OA
HETATM   26  C19 UNK     1      20.237  -2.406  33.318  1.00  0.00     0.210 C 
ENDBRANCH   7  25
TORSDOF 5
ENDMDL
