MODEL 1
REMARK VINA RESULT:      -7.5      0.000      0.000
REMARK  3 active torsions:
REMARK  status: ('A' for Active; 'I' for Inactive)
REMARK    1  A    between atoms: C6_9  and  N1_2 
REMARK    2  A    between atoms: C11_14  and  C12_15 
REMARK    3  A    between atoms: C13_16  and  C14_17 
ROOT
HETATM    1  N2  UNK     1      32.518  -9.202  28.590  1.00  0.00    -0.191 NA
HETATM    2  C12 UNK     1      32.142  -8.083  31.800  1.00  0.00     0.034 C 
HETATM    3  C13 UNK     1      31.393  -8.207  30.702  1.00  0.00     0.055 C 
HETATM    4  C19 UNK     1      32.016  -8.756  29.536  1.00  0.00     0.100 C 
ENDROOT
BRANCH   3   5
HETATM    5  C14 UNK     1      29.975  -7.806  30.597  1.00  0.00    -0.015 A 
HETATM    6  C15 UNK     1      28.989  -8.767  30.731  1.00  0.00     0.014 A 
HETATM    7  C17 UNK     1      27.651  -8.388  30.634  1.00  0.00     0.024 A 
HETATM    8  C20 UNK     1      27.320  -7.053  30.405  1.00  0.00     0.034 A 
HETATM    9  C18 UNK     1      28.327  -6.097  30.273  1.00  0.00     0.024 A 
HETATM   10 Cl1  UNK     1      25.668  -6.584  30.285  1.00  0.00    -0.084 Cl
HETATM   11  C16 UNK     1      29.666  -6.477  30.370  1.00  0.00     0.014 A 
ENDBRANCH   3   5
BRANCH   2  12
HETATM   12  C11 UNK     1      31.642  -7.554  33.059  1.00  0.00    -0.035 A 
HETATM   13  C10 UNK     1      30.997  -8.398  33.963  1.00  0.00     0.013 A 
HETATM   14  C8  UNK     1      30.516  -7.892  35.171  1.00  0.00     0.030 A 
HETATM   15  C6  UNK     1      30.672  -6.530  35.496  1.00  0.00     0.030 A 
HETATM   16  C7  UNK     1      31.325  -5.695  34.570  1.00  0.00     0.030 A 
HETATM   17  C9  UNK     1      31.806  -6.203  33.363  1.00  0.00     0.013 A 
BRANCH  15  18
HETATM   18  N1  UNK     1      30.191  -6.021  36.709  1.00  0.00    -0.381 N 
HETATM   19  C4  UNK     1      28.857  -6.414  37.179  1.00  0.00     0.123 C 
HETATM   20  C2  UNK     1      28.752  -6.249  38.694  1.00  0.00     0.020 C 
HETATM   21  C1  UNK     1      29.159  -4.849  39.136  1.00  0.00     0.003 C 
HETATM   22  C3  UNK     1      30.560  -4.526  38.632  1.00  0.00     0.020 C 
HETATM   23  C5  UNK     1      30.659  -4.688  37.116  1.00  0.00     0.123 C 
ENDBRANCH  15  18
ENDBRANCH   2  12
TORSDOF 3
ENDMDL
MODEL 2
REMARK VINA RESULT:      -7.5      0.029      1.425
REMARK  3 active torsions:
REMARK  status: ('A' for Active; 'I' for Inactive)
REMARK    1  A    between atoms: C6_9  and  N1_2 
REMARK    2  A    between atoms: C11_14  and  C12_15 
REMARK    3  A    between atoms: C13_16  and  C14_17 
ROOT
HETATM    1  N2  UNK     1      32.520  -9.200  28.574  1.00  0.00    -0.191 NA
HETATM    2  C12 UNK     1      32.150  -8.084  31.786  1.00  0.00     0.034 C 
HETATM    3  C13 UNK     1      31.399  -8.207  30.689  1.00  0.00     0.055 C 
HETATM    4  C19 UNK     1      32.019  -8.755  29.522  1.00  0.00     0.100 C 
ENDROOT
BRANCH   3   5
HETATM    5  C14 UNK     1      29.981  -7.805  30.588  1.00  0.00    -0.015 A 
HETATM    6  C15 UNK     1      29.668  -6.472  30.393  1.00  0.00     0.014 A 
HETATM    7  C17 UNK     1      28.329  -6.094  30.296  1.00  0.00     0.024 A 
HETATM    8  C20 UNK     1      27.324  -7.056  30.395  1.00  0.00     0.034 A 
HETATM    9  C18 UNK     1      27.658  -8.396  30.591  1.00  0.00     0.024 A 
HETATM   10 Cl1  UNK     1      25.672  -6.590  30.275  1.00  0.00    -0.084 Cl
HETATM   11  C16 UNK     1      28.997  -8.774  30.689  1.00  0.00     0.014 A 
ENDBRANCH   3   5
BRANCH   2  12
HETATM   12  C11 UNK     1      31.652  -7.555  33.047  1.00  0.00    -0.035 A 
HETATM   13  C10 UNK     1      31.853  -6.212  33.366  1.00  0.00     0.013 A 
HETATM   14  C8  UNK     1      31.377  -5.704  34.575  1.00  0.00     0.030 A 
HETATM   15  C6  UNK     1      30.691  -6.530  35.487  1.00  0.00     0.030 A 
HETATM   16  C7  UNK     1      30.500  -7.882  35.145  1.00  0.00     0.030 A 
HETATM   17  C9  UNK     1      30.976  -8.389  33.936  1.00  0.00     0.013 A 
BRANCH  15  18
HETATM   18  N1  UNK     1      30.212  -6.021  36.700  1.00  0.00    -0.381 N 
HETATM   19  C4  UNK     1      28.873  -6.404  37.165  1.00  0.00     0.123 C 
HETATM   20  C2  UNK     1      28.765  -6.243  38.680  1.00  0.00     0.020 C 
HETATM   21  C1  UNK     1      29.186  -4.850  39.129  1.00  0.00     0.003 C 
HETATM   22  C3  UNK     1      30.590  -4.538  38.630  1.00  0.00     0.020 C 
HETATM   23  C5  UNK     1      30.692  -4.695  37.115  1.00  0.00     0.123 C 
ENDBRANCH  15  18
ENDBRANCH   2  12
TORSDOF 3
ENDMDL
MODEL 3
REMARK VINA RESULT:      -7.4      0.390      1.487
REMARK  3 active torsions:
REMARK  status: ('A' for Active; 'I' for Inactive)
REMARK    1  A    between atoms: C6_9  and  N1_2 
REMARK    2  A    between atoms: C11_14  and  C12_15 
REMARK    3  A    between atoms: C13_16  and  C14_17 
ROOT
HETATM    1  N2  UNK     1      32.179  -9.633  28.567  1.00  0.00    -0.191 NA
HETATM    2  C12 UNK     1      31.938  -8.334  31.722  1.00  0.00     0.034 C 
HETATM    3  C13 UNK     1      31.163  -8.459  30.642  1.00  0.00     0.055 C 
HETATM    4  C19 UNK     1      31.725  -9.107  29.497  1.00  0.00     0.100 C 
ENDROOT
BRANCH   3   5
HETATM    5  C14 UNK     1      29.775  -7.965  30.537  1.00  0.00    -0.015 A 
HETATM    6  C15 UNK     1      29.551  -6.617  30.317  1.00  0.00     0.014 A 
HETATM    7  C17 UNK     1      28.241  -6.152  30.217  1.00  0.00     0.024 A 
HETATM    8  C20 UNK     1      27.174  -7.042  30.338  1.00  0.00     0.034 A 
HETATM    9  C18 UNK     1      27.418  -8.398  30.558  1.00  0.00     0.024 A 
HETATM   10 Cl1  UNK     1      25.556  -6.468  30.214  1.00  0.00    -0.084 Cl
HETATM   11  C16 UNK     1      28.729  -8.863  30.659  1.00  0.00     0.014 A 
ENDBRANCH   3   5
BRANCH   2  12
HETATM   12  C11 UNK     1      31.498  -7.709  32.959  1.00  0.00    -0.035 A 
HETATM   13  C10 UNK     1      30.787  -8.454  33.901  1.00  0.00     0.013 A 
HETATM   14  C8  UNK     1      30.364  -7.856  35.089  1.00  0.00     0.030 A 
HETATM   15  C6  UNK     1      30.644  -6.501  35.355  1.00  0.00     0.030 A 
HETATM   16  C7  UNK     1      31.361  -5.768  34.391  1.00  0.00     0.030 A 
HETATM   17  C9  UNK     1      31.784  -6.367  33.205  1.00  0.00     0.013 A 
BRANCH  15  18
HETATM   18  N1  UNK     1      30.221  -5.900  36.547  1.00  0.00    -0.381 N 
HETATM   19  C4  UNK     1      30.950  -4.738  37.068  1.00  0.00     0.123 C 
HETATM   20  C2  UNK     1      30.053  -3.909  37.986  1.00  0.00     0.020 C 
HETATM   21  C1  UNK     1      29.422  -4.765  39.077  1.00  0.00     0.003 C 
HETATM   22  C3  UNK     1      28.665  -5.932  38.457  1.00  0.00     0.020 C 
HETATM   23  C5  UNK     1      29.566  -6.760  37.544  1.00  0.00     0.123 C 
ENDBRANCH  15  18
ENDBRANCH   2  12
TORSDOF 3
ENDMDL
MODEL 4
REMARK VINA RESULT:      -7.3      4.056      7.411
REMARK  3 active torsions:
REMARK  status: ('A' for Active; 'I' for Inactive)
REMARK    1  A    between atoms: C6_9  and  N1_2 
REMARK    2  A    between atoms: C11_14  and  C12_15 
REMARK    3  A    between atoms: C13_16  and  C14_17 
ROOT
HETATM    1  N2  UNK     1      29.261  -3.626  39.983  1.00  0.00    -0.191 NA
HETATM    2  C12 UNK     1      31.820  -4.847  38.070  1.00  0.00     0.034 C 
HETATM    3  C13 UNK     1      30.541  -5.139  38.312  1.00  0.00     0.055 C 
HETATM    4  C19 UNK     1      29.835  -4.303  39.235  1.00  0.00     0.100 C 
ENDROOT
BRANCH   3   5
HETATM    5  C14 UNK     1      29.804  -6.269  37.709  1.00  0.00    -0.015 A 
HETATM    6  C15 UNK     1      29.727  -7.468  38.395  1.00  0.00     0.014 A 
HETATM    7  C17 UNK     1      29.031  -8.534  37.826  1.00  0.00     0.024 A 
HETATM    8  C20 UNK     1      28.421  -8.383  36.580  1.00  0.00     0.034 A 
HETATM    9  C18 UNK     1      28.508  -7.166  35.904  1.00  0.00     0.024 A 
HETATM   10 Cl1  UNK     1      27.561  -9.698  35.878  1.00  0.00    -0.084 Cl
HETATM   11  C16 UNK     1      29.206  -6.100  36.473  1.00  0.00     0.014 A 
ENDBRANCH   3   5
BRANCH   2  12
HETATM   12  C11 UNK     1      32.657  -5.600  37.149  1.00  0.00    -0.035 A 
HETATM   13  C10 UNK     1      33.404  -6.683  37.612  1.00  0.00     0.013 A 
HETATM   14  C8  UNK     1      34.207  -7.405  36.729  1.00  0.00     0.030 A 
HETATM   15  C6  UNK     1      34.278  -7.057  35.366  1.00  0.00     0.030 A 
HETATM   16  C7  UNK     1      33.517  -5.961  34.920  1.00  0.00     0.030 A 
HETATM   17  C9  UNK     1      32.714  -5.239  35.803  1.00  0.00     0.013 A 
BRANCH  15  18
HETATM   18  N1  UNK     1      35.083  -7.782  34.480  1.00  0.00    -0.381 N 
HETATM   19  C4  UNK     1      36.441  -7.308  34.186  1.00  0.00     0.123 C 
HETATM   20  C2  UNK     1      37.319  -8.462  33.702  1.00  0.00     0.020 C 
HETATM   21  C1  UNK     1      36.675  -9.209  32.541  1.00  0.00     0.003 C 
HETATM   22  C3  UNK     1      35.283  -9.688  32.932  1.00  0.00     0.020 C 
HETATM   23  C5  UNK     1      34.408  -8.531  33.410  1.00  0.00     0.123 C 
ENDBRANCH  15  18
ENDBRANCH   2  12
TORSDOF 3
ENDMDL
MODEL 5
REMARK VINA RESULT:      -7.1      1.329      1.798
REMARK  3 active torsions:
REMARK  status: ('A' for Active; 'I' for Inactive)
REMARK    1  A    between atoms: C6_9  and  N1_2 
REMARK    2  A    between atoms: C11_14  and  C12_15 
REMARK    3  A    between atoms: C13_16  and  C14_17 
ROOT
HETATM    1  N2  UNK     1      32.713  -9.233  28.792  1.00  0.00    -0.191 NA
HETATM    2  C12 UNK     1      31.831  -9.038  32.091  1.00  0.00     0.034 C 
HETATM    3  C13 UNK     1      31.284  -8.769  30.904  1.00  0.00     0.055 C 
HETATM    4  C19 UNK     1      32.074  -9.026  29.739  1.00  0.00     0.100 C 
ENDROOT
BRANCH   3   5
HETATM    5  C14 UNK     1      29.929  -8.214  30.705  1.00  0.00    -0.015 A 
HETATM    6  C15 UNK     1      28.854  -9.077  30.592  1.00  0.00     0.014 A 
HETATM    7  C17 UNK     1      27.576  -8.553  30.406  1.00  0.00     0.024 A 
HETATM    8  C20 UNK     1      27.393  -7.172  30.337  1.00  0.00     0.034 A 
HETATM    9  C18 UNK     1      28.488  -6.315  30.454  1.00  0.00     0.024 A 
HETATM   10 Cl1  UNK     1      25.815  -6.524  30.108  1.00  0.00    -0.084 Cl
HETATM   11  C16 UNK     1      29.767  -6.841  30.639  1.00  0.00     0.014 A 
ENDBRANCH   3   5
BRANCH   2  12
HETATM   12  C11 UNK     1      31.144  -8.839  33.358  1.00  0.00    -0.035 A 
HETATM   13  C10 UNK     1      30.364  -9.864  33.895  1.00  0.00     0.013 A 
HETATM   14  C8  UNK     1      29.704  -9.674  35.110  1.00  0.00     0.030 A 
HETATM   15  C6  UNK     1      29.811  -8.456  35.809  1.00  0.00     0.030 A 
HETATM   16  C7  UNK     1      30.603  -7.436  35.248  1.00  0.00     0.030 A 
HETATM   17  C9  UNK     1      31.263  -7.626  34.034  1.00  0.00     0.013 A 
BRANCH  15  18
HETATM   18  N1  UNK     1      29.150  -8.265  37.028  1.00  0.00    -0.381 N 
HETATM   19  C4  UNK     1      28.246  -9.307  37.529  1.00  0.00     0.123 C 
HETATM   20  C2  UNK     1      28.091  -9.199  39.045  1.00  0.00     0.020 C 
HETATM   21  C1  UNK     1      27.687  -7.793  39.470  1.00  0.00     0.003 C 
HETATM   22  C3  UNK     1      28.684  -6.775  38.933  1.00  0.00     0.020 C 
HETATM   23  C5  UNK     1      28.832  -6.884  37.417  1.00  0.00     0.123 C 
ENDBRANCH  15  18
ENDBRANCH   2  12
TORSDOF 3
ENDMDL
MODEL 6
REMARK VINA RESULT:      -7.0      3.126      7.819
REMARK  3 active torsions:
REMARK  status: ('A' for Active; 'I' for Inactive)
REMARK    1  A    between atoms: C6_9  and  N1_2 
REMARK    2  A    between atoms: C11_14  and  C12_15 
REMARK    3  A    between atoms: C13_16  and  C14_17 
ROOT
HETATM    1  N2  UNK     1      28.436  -5.743  39.365  1.00  0.00    -0.191 NA
HETATM    2  C12 UNK     1      28.066  -7.025  36.216  1.00  0.00     0.034 C 
HETATM    3  C13 UNK     1      29.065  -6.685  37.034  1.00  0.00     0.055 C 
HETATM    4  C19 UNK     1      28.716  -6.165  38.321  1.00  0.00     0.100 C 
ENDROOT
BRANCH   3   5
HETATM    5  C14 UNK     1      30.501  -6.793  36.704  1.00  0.00    -0.015 A 
HETATM    6  C15 UNK     1      31.112  -5.768  36.004  1.00  0.00     0.014 A 
HETATM    7  C17 UNK     1      32.468  -5.871  35.694  1.00  0.00     0.024 A 
HETATM    8  C20 UNK     1      33.191  -6.996  36.090  1.00  0.00     0.034 A 
HETATM    9  C18 UNK     1      32.558  -8.019  36.796  1.00  0.00     0.024 A 
HETATM   10 Cl1  UNK     1      34.864  -7.122  35.708  1.00  0.00    -0.084 Cl
HETATM   11  C16 UNK     1      31.202  -7.917  37.105  1.00  0.00     0.014 A 
ENDBRANCH   3   5
BRANCH   2  12
HETATM   12  C11 UNK     1      28.269  -7.577  34.886  1.00  0.00    -0.035 A 
HETATM   13  C10 UNK     1      28.198  -6.745  33.768  1.00  0.00     0.013 A 
HETATM   14  C8  UNK     1      28.392  -7.273  32.491  1.00  0.00     0.030 A 
HETATM   15  C6  UNK     1      28.660  -8.644  32.309  1.00  0.00     0.030 A 
HETATM   16  C7  UNK     1      28.727  -9.466  33.451  1.00  0.00     0.030 A 
HETATM   17  C9  UNK     1      28.533  -8.937  34.727  1.00  0.00     0.013 A 
BRANCH  15  18
HETATM   18  N1  UNK     1      28.855  -9.175  31.029  1.00  0.00    -0.381 N 
HETATM   19  C4  UNK     1      30.182  -9.677  30.650  1.00  0.00     0.123 C 
HETATM   20  C2  UNK     1      30.067 -10.692  29.514  1.00  0.00     0.020 C 
HETATM   21  C1  UNK     1      29.274 -10.134  28.339  1.00  0.00     0.003 C 
HETATM   22  C3  UNK     1      27.905  -9.659  28.808  1.00  0.00     0.020 C 
HETATM   23  C5  UNK     1      28.025  -8.641  29.940  1.00  0.00     0.123 C 
ENDBRANCH  15  18
ENDBRANCH   2  12
TORSDOF 3
ENDMDL
MODEL 7
REMARK VINA RESULT:      -7.0      3.617      7.845
REMARK  3 active torsions:
REMARK  status: ('A' for Active; 'I' for Inactive)
REMARK    1  A    between atoms: C6_9  and  N1_2 
REMARK    2  A    between atoms: C11_14  and  C12_15 
REMARK    3  A    between atoms: C13_16  and  C14_17 
ROOT
HETATM    1  N2  UNK     1      27.363  -9.868  40.091  1.00  0.00    -0.191 NA
HETATM    2  C12 UNK     1      27.681  -9.327  36.728  1.00  0.00     0.034 C 
HETATM    3  C13 UNK     1      28.425  -9.183  37.828  1.00  0.00     0.055 C 
HETATM    4  C19 UNK     1      27.837  -9.562  39.077  1.00  0.00     0.100 C 
ENDROOT
BRANCH   3   5
HETATM    5  C14 UNK     1      29.802  -8.650  37.851  1.00  0.00    -0.015 A 
HETATM    6  C15 UNK     1      30.013  -7.340  38.243  1.00  0.00     0.014 A 
HETATM    7  C17 UNK     1      31.314  -6.838  38.266  1.00  0.00     0.024 A 
HETATM    8  C20 UNK     1      32.383  -7.654  37.898  1.00  0.00     0.034 A 
HETATM    9  C18 UNK     1      32.152  -8.973  37.506  1.00  0.00     0.024 A 
HETATM   10 Cl1  UNK     1      33.988  -7.034  37.927  1.00  0.00    -0.084 Cl
HETATM   11  C16 UNK     1      30.850  -9.474  37.482  1.00  0.00     0.014 A 
ENDBRANCH   3   5
BRANCH   2  12
HETATM   12  C11 UNK     1      28.149  -8.996  35.392  1.00  0.00    -0.035 A 
HETATM   13  C10 UNK     1      28.124  -7.672  34.952  1.00  0.00     0.013 A 
HETATM   14  C8  UNK     1      28.572  -7.353  33.670  1.00  0.00     0.030 A 
HETATM   15  C6  UNK     1      29.053  -8.354  32.803  1.00  0.00     0.030 A 
HETATM   16  C7  UNK     1      29.071  -9.683  33.266  1.00  0.00     0.030 A 
HETATM   17  C9  UNK     1      28.623 -10.001  34.548  1.00  0.00     0.013 A 
BRANCH  15  18
HETATM   18  N1  UNK     1      29.504  -8.035  31.517  1.00  0.00    -0.381 N 
HETATM   19  C4  UNK     1      29.435  -9.047  30.456  1.00  0.00     0.123 C 
HETATM   20  C2  UNK     1      29.413  -8.383  29.081  1.00  0.00     0.020 C 
HETATM   21  C1  UNK     1      30.570  -7.406  28.910  1.00  0.00     0.003 C 
HETATM   22  C3  UNK     1      30.558  -6.376  30.031  1.00  0.00     0.020 C 
HETATM   23  C5  UNK     1      30.585  -7.045  31.404  1.00  0.00     0.123 C 
ENDBRANCH  15  18
ENDBRANCH   2  12
TORSDOF 3
ENDMDL
MODEL 8
REMARK VINA RESULT:      -7.0      9.700     12.158
REMARK  3 active torsions:
REMARK  status: ('A' for Active; 'I' for Inactive)
REMARK    1  A    between atoms: C6_9  and  N1_2 
REMARK    2  A    between atoms: C11_14  and  C12_15 
REMARK    3  A    between atoms: C13_16  and  C14_17 
ROOT
HETATM    1  N2  UNK     1      18.172   1.173  36.686  1.00  0.00    -0.191 NA
HETATM    2  C12 UNK     1      18.959  -2.122  37.154  1.00  0.00     0.034 C 
HETATM    3  C13 UNK     1      18.950  -1.240  36.152  1.00  0.00     0.055 C 
HETATM    4  C19 UNK     1      18.520   0.092  36.448  1.00  0.00     0.100 C 
ENDROOT
BRANCH   3   5
HETATM    5  C14 UNK     1      19.337  -1.542  34.759  1.00  0.00    -0.015 A 
HETATM    6  C15 UNK     1      20.473  -2.295  34.521  1.00  0.00     0.014 A 
HETATM    7  C17 UNK     1      20.838  -2.580  33.206  1.00  0.00     0.024 A 
HETATM    8  C20 UNK     1      20.059  -2.109  32.149  1.00  0.00     0.034 A 
HETATM    9  C18 UNK     1      18.916  -1.353  32.407  1.00  0.00     0.024 A 
HETATM   10 Cl1  UNK     1      20.508  -2.463  30.525  1.00  0.00    -0.084 Cl
HETATM   11  C16 UNK     1      18.552  -1.066  33.723  1.00  0.00     0.014 A 
ENDBRANCH   3   5
BRANCH   2  12
HETATM   12  C11 UNK     1      19.381  -3.506  37.005  1.00  0.00    -0.035 A 
HETATM   13  C10 UNK     1      20.652  -3.896  37.429  1.00  0.00     0.013 A 
HETATM   14  C8  UNK     1      21.059  -5.222  37.286  1.00  0.00     0.030 A 
HETATM   15  C6  UNK     1      20.202  -6.184  36.715  1.00  0.00     0.030 A 
HETATM   16  C7  UNK     1      18.925  -5.769  36.293  1.00  0.00     0.030 A 
HETATM   17  C9  UNK     1      18.519  -4.442  36.437  1.00  0.00     0.013 A 
BRANCH  15  18
HETATM   18  N1  UNK     1      20.609  -7.515  36.571  1.00  0.00    -0.381 N 
HETATM   19  C4  UNK     1      20.682  -8.108  35.230  1.00  0.00     0.123 C 
HETATM   20  C2  UNK     1      21.647  -9.291  35.218  1.00  0.00     0.020 C 
HETATM   21  C1  UNK     1      21.312 -10.302  36.307  1.00  0.00     0.003 C 
HETATM   22  C3  UNK     1      21.280  -9.617  37.667  1.00  0.00     0.020 C 
HETATM   23  C5  UNK     1      20.310  -8.438  37.676  1.00  0.00     0.123 C 
ENDBRANCH  15  18
ENDBRANCH   2  12
TORSDOF 3
ENDMDL
MODEL 9
REMARK VINA RESULT:      -6.9      2.515      3.738
REMARK  3 active torsions:
REMARK  status: ('A' for Active; 'I' for Inactive)
REMARK    1  A    between atoms: C6_9  and  N1_2 
REMARK    2  A    between atoms: C11_14  and  C12_15 
REMARK    3  A    between atoms: C13_16  and  C14_17 
ROOT
HETATM    1  N2  UNK     1      28.123 -10.308  28.058  1.00  0.00    -0.191 NA
HETATM    2  C12 UNK     1      28.328  -8.846  31.143  1.00  0.00     0.034 C 
HETATM    3  C13 UNK     1      29.086  -8.958  30.050  1.00  0.00     0.055 C 
HETATM    4  C19 UNK     1      28.553  -9.704  28.951  1.00  0.00     0.100 C 
ENDROOT
BRANCH   3   5
HETATM    5  C14 UNK     1      30.437  -8.383  29.897  1.00  0.00    -0.015 A 
HETATM    6  C15 UNK     1      30.574  -7.107  29.381  1.00  0.00     0.014 A 
HETATM    7  C17 UNK     1      31.850  -6.563  29.238  1.00  0.00     0.024 A 
HETATM    8  C20 UNK     1      32.970  -7.305  29.615  1.00  0.00     0.034 A 
HETATM    9  C18 UNK     1      32.813  -8.590  30.135  1.00  0.00     0.024 A 
HETATM   10 Cl1  UNK     1      34.545  -6.634  29.439  1.00  0.00    -0.084 Cl
HETATM   11  C16 UNK     1      31.536  -9.133  30.277  1.00  0.00     0.014 A 
ENDBRANCH   3   5
BRANCH   2  12
HETATM   12  C11 UNK     1      28.733  -8.110  32.331  1.00  0.00    -0.035 A 
HETATM   13  C10 UNK     1      28.411  -6.758  32.456  1.00  0.00     0.013 A 
HETATM   14  C8  UNK     1      28.799  -6.051  33.594  1.00  0.00     0.030 A 
HETATM   15  C6  UNK     1      29.517  -6.683  34.628  1.00  0.00     0.030 A 
HETATM   16  C7  UNK     1      29.831  -8.047  34.481  1.00  0.00     0.030 A 
HETATM   17  C9  UNK     1      29.443  -8.753  33.343  1.00  0.00     0.013 A 
BRANCH  15  18
HETATM   18  N1  UNK     1      29.906  -5.974  35.771  1.00  0.00    -0.381 N 
HETATM   19  C4  UNK     1      31.301  -5.536  35.908  1.00  0.00     0.123 C 
HETATM   20  C2  UNK     1      31.397  -4.347  36.863  1.00  0.00     0.020 C 
HETATM   21  C1  UNK     1      30.722  -4.641  38.197  1.00  0.00     0.003 C 
HETATM   22  C3  UNK     1      29.277  -5.064  37.972  1.00  0.00     0.020 C 
HETATM   23  C5  UNK     1      29.185  -6.255  37.020  1.00  0.00     0.123 C 
ENDBRANCH  15  18
ENDBRANCH   2  12
TORSDOF 3
ENDMDL
MODEL 10
REMARK VINA RESULT:      -6.8      4.029      7.710
REMARK  3 active torsions:
REMARK  status: ('A' for Active; 'I' for Inactive)
REMARK    1  A    between atoms: C6_9  and  N1_2 
REMARK    2  A    between atoms: C11_14  and  C12_15 
REMARK    3  A    between atoms: C13_16  and  C14_17 
ROOT
HETATM    1  N2  UNK     1      29.498  -3.988  39.803  1.00  0.00    -0.191 NA
HETATM    2  C12 UNK     1      29.536  -6.889  37.991  1.00  0.00     0.034 C 
HETATM    3  C13 UNK     1      30.231  -5.751  38.051  1.00  0.00     0.055 C 
HETATM    4  C19 UNK     1      29.826  -4.779  39.019  1.00  0.00     0.100 C 
ENDROOT
BRANCH   3   5
HETATM    5  C14 UNK     1      31.378  -5.417  37.182  1.00  0.00    -0.015 A 
HETATM    6  C15 UNK     1      31.142  -4.901  35.919  1.00  0.00     0.014 A 
HETATM    7  C17 UNK     1      32.226  -4.585  35.100  1.00  0.00     0.024 A 
HETATM    8  C20 UNK     1      33.528  -4.787  35.557  1.00  0.00     0.034 A 
HETATM    9  C18 UNK     1      33.747  -5.307  36.833  1.00  0.00     0.024 A 
HETATM   10 Cl1  UNK     1      34.865  -4.396  34.547  1.00  0.00    -0.084 Cl
HETATM   11  C16 UNK     1      32.663  -5.625  37.652  1.00  0.00     0.014 A 
ENDBRANCH   3   5
BRANCH   2  12
HETATM   12  C11 UNK     1      29.840  -7.970  37.067  1.00  0.00    -0.035 A 
HETATM   13  C10 UNK     1      29.140  -8.078  35.866  1.00  0.00     0.013 A 
HETATM   14  C8  UNK     1      29.430  -9.115  34.979  1.00  0.00     0.030 A 
HETATM   15  C6  UNK     1      30.427 -10.064  35.278  1.00  0.00     0.030 A 
HETATM   16  C7  UNK     1      31.121  -9.937  36.496  1.00  0.00     0.030 A 
HETATM   17  C9  UNK     1      30.830  -8.900  37.382  1.00  0.00     0.013 A 
BRANCH  15  18
HETATM   18  N1  UNK     1      30.720 -11.105  34.389  1.00  0.00    -0.381 N 
HETATM   19  C4  UNK     1      31.742 -12.095  34.748  1.00  0.00     0.123 C 
HETATM   20  C2  UNK     1      31.519 -13.398  33.983  1.00  0.00     0.020 C 
HETATM   21  C1  UNK     1      31.411 -13.158  32.482  1.00  0.00     0.003 C 
HETATM   22  C3  UNK     1      30.316 -12.141  32.190  1.00  0.00     0.020 C 
HETATM   23  C5  UNK     1      30.546 -10.838  32.954  1.00  0.00     0.123 C 
ENDBRANCH  15  18
ENDBRANCH   2  12
TORSDOF 3
ENDMDL
