MODEL 1
REMARK VINA RESULT:      -7.9      0.000      0.000
REMARK  7 active torsions:
REMARK  status: ('A' for Active; 'I' for Inactive)
REMARK    1  A    between atoms: C4_10  and  O1_2 
REMARK    2  A    between atoms: C7_13  and  O1_2 
REMARK    3  A    between atoms: C14_20  and  O4_5 
REMARK    4  A    between atoms: C16_22  and  O4_5 
REMARK    5  A    between atoms: C1_7  and  C2_8 
REMARK    6  A    between atoms: C1_7  and  C3_9 
REMARK    7  A    between atoms: C1_7  and  C4_10 
ROOT
HETATM    1  O3  UNK     1      10.034   4.521  10.052  1.00  0.00    -0.319 OA
HETATM    2  O5  UNK     1       7.470   6.472   7.543  1.00  0.00    -0.284 OA
HETATM    3  C7  UNK     1      12.433   6.405   8.104  1.00  0.00     0.082 A 
HETATM    4  C8  UNK     1       9.703   6.080   8.215  1.00  0.00     0.051 A 
HETATM    5  C9  UNK     1      10.525   5.382   9.103  1.00  0.00     0.092 A 
HETATM    6  C10 UNK     1      11.910   5.547   9.047  1.00  0.00     0.075 A 
HETATM    7  C11 UNK     1      11.644   7.106   7.216  1.00  0.00     0.038 A 
HETATM    8  C12 UNK     1      10.259   6.943   7.269  1.00  0.00     0.021 A 
HETATM    9  C13 UNK     1       8.242   5.890   8.292  1.00  0.00     0.220 A 
HETATM   10  C14 UNK     1       7.766   4.950   9.332  1.00  0.00     0.149 A 
HETATM   11  C15 UNK     1       8.671   4.353  10.112  1.00  0.00     0.184 A 
ENDROOT
BRANCH   3  12
HETATM   12  O1  UNK     1      13.819   6.572   8.046  1.00  0.00    -0.279 OA
BRANCH  12  13
HETATM   13  C4  UNK     1      14.293   7.489   8.976  1.00  0.00     0.268 C 
HETATM   14  O2  UNK     1      14.136   8.704   8.948  1.00  0.00    -0.264 OA
BRANCH  13  15
HETATM   15  C1  UNK     1      15.062   6.771  10.076  1.00  0.00     0.085 C 
BRANCH  15  16
HETATM   16  C2  UNK     1      16.004   7.737  10.815  1.00  0.00     0.010 C 
HETATM   17  C5  UNK     1      17.464   7.556  10.419  1.00  0.00     0.006 C 
ENDBRANCH  15  16
BRANCH  15  18
HETATM   18  C3  UNK     1      15.841   5.570   9.514  1.00  0.00     0.010 C 
HETATM   19  C6  UNK     1      15.334   4.235  10.045  1.00  0.00     0.006 C 
ENDBRANCH  15  18
ENDBRANCH  13  15
ENDBRANCH  12  13
ENDBRANCH   3  12
BRANCH  10  20
HETATM   20  O4  UNK     1       6.417   4.718   9.469  1.00  0.00    -0.303 OA
BRANCH  20  21
HETATM   21  C16 UNK     1       5.821   5.177  10.611  1.00  0.00     0.093 A 
HETATM   22  C17 UNK     1       5.354   4.300  11.586  1.00  0.00     0.044 A 
HETATM   23 Br1  UNK     1       5.518   2.423  11.383  1.00  0.00    -0.048 Br
HETATM   24  C19 UNK     1       4.752   4.800  12.741  1.00  0.00     0.022 A 
HETATM   25  C21 UNK     1       4.619   6.178  12.915  1.00  0.00     0.002 A 
HETATM   26  C20 UNK     1       5.087   7.054  11.936  1.00  0.00     0.003 A 
HETATM   27  C18 UNK     1       5.690   6.553  10.783  1.00  0.00     0.039 A 
ENDBRANCH  20  21
ENDBRANCH  10  20
TORSDOF 7
ENDMDL
MODEL 2
REMARK VINA RESULT:      -7.8     23.006     25.200
REMARK  7 active torsions:
REMARK  status: ('A' for Active; 'I' for Inactive)
REMARK    1  A    between atoms: C4_10  and  O1_2 
REMARK    2  A    between atoms: C7_13  and  O1_2 
REMARK    3  A    between atoms: C14_20  and  O4_5 
REMARK    4  A    between atoms: C16_22  and  O4_5 
REMARK    5  A    between atoms: C1_7  and  C2_8 
REMARK    6  A    between atoms: C1_7  and  C3_9 
REMARK    7  A    between atoms: C1_7  and  C4_10 
ROOT
HETATM    1  O3  UNK     1      18.176   3.188  33.726  1.00  0.00    -0.319 OA
HETATM    2  O5  UNK     1      18.740   3.127  29.683  1.00  0.00    -0.284 OA
HETATM    3  C7  UNK     1      18.427   6.746  33.112  1.00  0.00     0.082 A 
HETATM    4  C8  UNK     1      18.523   4.413  31.654  1.00  0.00     0.051 A 
HETATM    5  C9  UNK     1      18.327   4.365  33.037  1.00  0.00     0.092 A 
HETATM    6  C10 UNK     1      18.279   5.548  33.776  1.00  0.00     0.075 A 
HETATM    7  C11 UNK     1      18.622   6.822  31.748  1.00  0.00     0.038 A 
HETATM    8  C12 UNK     1      18.671   5.641  31.006  1.00  0.00     0.021 A 
HETATM    9  C13 UNK     1      18.572   3.151  30.894  1.00  0.00     0.220 A 
HETATM   10  C14 UNK     1      18.404   1.912  31.685  1.00  0.00     0.149 A 
HETATM   11  C15 UNK     1      18.225   2.019  33.005  1.00  0.00     0.184 A 
ENDROOT
BRANCH   3  12
HETATM   12  O1  UNK     1      18.379   7.931  33.849  1.00  0.00    -0.279 OA
BRANCH  12  13
HETATM   13  C4  UNK     1      17.164   8.116  34.497  1.00  0.00     0.268 C 
HETATM   14  O2  UNK     1      16.935   7.922  35.686  1.00  0.00    -0.264 OA
BRANCH  13  15
HETATM   15  C1  UNK     1      16.112   8.607  33.513  1.00  0.00     0.085 C 
BRANCH  15  16
HETATM   16  C2  UNK     1      15.631  10.022  33.877  1.00  0.00     0.010 C 
HETATM   17  C5  UNK     1      14.304  10.020  34.626  1.00  0.00     0.006 C 
ENDBRANCH  15  16
BRANCH  15  18
HETATM   18  C3  UNK     1      14.927   7.629  33.436  1.00  0.00     0.010 C 
HETATM   19  C6  UNK     1      14.708   7.076  32.033  1.00  0.00     0.006 C 
ENDBRANCH  15  18
ENDBRANCH  13  15
ENDBRANCH  12  13
ENDBRANCH   3  12
BRANCH  10  20
HETATM   20  O4  UNK     1      18.438   0.692  31.050  1.00  0.00    -0.303 OA
BRANCH  20  21
HETATM   21  C16 UNK     1      19.125  -0.314  31.672  1.00  0.00     0.093 A 
HETATM   22  C17 UNK     1      20.166  -0.981  31.033  1.00  0.00     0.044 A 
HETATM   23 Br1  UNK     1      20.686  -0.533  29.266  1.00  0.00    -0.048 Br
HETATM   24  C19 UNK     1      20.849  -2.001  31.696  1.00  0.00     0.022 A 
HETATM   25  C21 UNK     1      20.487  -2.350  32.997  1.00  0.00     0.002 A 
HETATM   26  C20 UNK     1      19.443  -1.680  33.634  1.00  0.00     0.003 A 
HETATM   27  C18 UNK     1      18.761  -0.659  32.972  1.00  0.00     0.039 A 
ENDBRANCH  20  21
ENDBRANCH  10  20
TORSDOF 7
ENDMDL
MODEL 3
REMARK VINA RESULT:      -7.8      1.428      2.295
REMARK  7 active torsions:
REMARK  status: ('A' for Active; 'I' for Inactive)
REMARK    1  A    between atoms: C4_10  and  O1_2 
REMARK    2  A    between atoms: C7_13  and  O1_2 
REMARK    3  A    between atoms: C14_20  and  O4_5 
REMARK    4  A    between atoms: C16_22  and  O4_5 
REMARK    5  A    between atoms: C1_7  and  C2_8 
REMARK    6  A    between atoms: C1_7  and  C3_9 
REMARK    7  A    between atoms: C1_7  and  C4_10 
ROOT
HETATM    1  O3  UNK     1      10.122   4.503  10.013  1.00  0.00    -0.319 OA
HETATM    2  O5  UNK     1       7.693   6.721   7.594  1.00  0.00    -0.284 OA
HETATM    3  C7  UNK     1      12.626   5.977   7.853  1.00  0.00     0.082 A 
HETATM    4  C8  UNK     1       9.889   6.040   8.143  1.00  0.00     0.051 A 
HETATM    5  C9  UNK     1      10.664   5.260   9.004  1.00  0.00     0.092 A 
HETATM    6  C10 UNK     1      12.052   5.227   8.857  1.00  0.00     0.075 A 
HETATM    7  C11 UNK     1      11.884   6.755   6.989  1.00  0.00     0.038 A 
HETATM    8  C12 UNK     1      10.496   6.790   7.132  1.00  0.00     0.021 A 
HETATM    9  C13 UNK     1       8.425   6.058   8.315  1.00  0.00     0.220 A 
HETATM   10  C14 UNK     1       7.893   5.225   9.417  1.00  0.00     0.149 A 
HETATM   11  C15 UNK     1       8.756   4.529  10.162  1.00  0.00     0.184 A 
ENDROOT
BRANCH   3  12
HETATM   12  O1  UNK     1      14.014   5.946   7.704  1.00  0.00    -0.279 OA
BRANCH  12  13
HETATM   13  C4  UNK     1      14.683   5.758   8.907  1.00  0.00     0.268 C 
HETATM   14  O2  UNK     1      15.242   4.732   9.278  1.00  0.00    -0.264 OA
BRANCH  13  15
HETATM   15  C1  UNK     1      14.635   7.032   9.740  1.00  0.00     0.085 C 
BRANCH  15  16
HETATM   16  C2  UNK     1      14.750   8.280   8.849  1.00  0.00     0.010 C 
HETATM   17  C5  UNK     1      13.669   9.313   9.140  1.00  0.00     0.006 C 
ENDBRANCH  15  16
BRANCH  15  18
HETATM   18  C3  UNK     1      15.729   7.027  10.821  1.00  0.00     0.010 C 
HETATM   19  C6  UNK     1      16.920   7.906  10.460  1.00  0.00     0.006 C 
ENDBRANCH  15  18
ENDBRANCH  13  15
ENDBRANCH  12  13
ENDBRANCH   3  12
BRANCH  10  20
HETATM   20  O4  UNK     1       6.537   5.188   9.644  1.00  0.00    -0.303 OA
BRANCH  20  21
HETATM   21  C16 UNK     1       6.088   4.293  10.577  1.00  0.00     0.093 A 
HETATM   22  C17 UNK     1       5.773   4.696  11.872  1.00  0.00     0.044 A 
HETATM   23 Br1  UNK     1       5.949   6.504  12.412  1.00  0.00    -0.048 Br
HETATM   24  C19 UNK     1       5.315   3.759  12.799  1.00  0.00     0.022 A 
HETATM   25  C21 UNK     1       5.176   2.422  12.427  1.00  0.00     0.002 A 
HETATM   26  C20 UNK     1       5.494   2.022  11.129  1.00  0.00     0.003 A 
HETATM   27  C18 UNK     1       5.950   2.959  10.202  1.00  0.00     0.039 A 
ENDBRANCH  20  21
ENDBRANCH  10  20
TORSDOF 7
ENDMDL
MODEL 4
REMARK VINA RESULT:      -7.6     22.947     24.837
REMARK  7 active torsions:
REMARK  status: ('A' for Active; 'I' for Inactive)
REMARK    1  A    between atoms: C4_10  and  O1_2 
REMARK    2  A    between atoms: C7_13  and  O1_2 
REMARK    3  A    between atoms: C14_20  and  O4_5 
REMARK    4  A    between atoms: C16_22  and  O4_5 
REMARK    5  A    between atoms: C1_7  and  C2_8 
REMARK    6  A    between atoms: C1_7  and  C3_9 
REMARK    7  A    between atoms: C1_7  and  C4_10 
ROOT
HETATM    1  O3  UNK     1      17.952   4.260  33.404  1.00  0.00    -0.319 OA
HETATM    2  O5  UNK     1      18.723   6.700  30.222  1.00  0.00    -0.284 OA
HETATM    3  C7  UNK     1      18.551   1.749  30.867  1.00  0.00     0.082 A 
HETATM    4  C8  UNK     1      18.517   4.495  31.050  1.00  0.00     0.051 A 
HETATM    5  C9  UNK     1      18.244   3.717  32.178  1.00  0.00     0.092 A 
HETATM    6  C10 UNK     1      18.260   2.324  32.085  1.00  0.00     0.075 A 
HETATM    7  C11 UNK     1      18.824   2.494  29.738  1.00  0.00     0.038 A 
HETATM    8  C12 UNK     1      18.808   3.887  29.827  1.00  0.00     0.021 A 
HETATM    9  C13 UNK     1      18.493   5.965  31.172  1.00  0.00     0.220 A 
HETATM   10  C14 UNK     1      18.172   6.498  32.515  1.00  0.00     0.149 A 
HETATM   11  C15 UNK     1      17.932   5.631  33.502  1.00  0.00     0.184 A 
ENDROOT
BRANCH   3  12
HETATM   12  O1  UNK     1      18.569   0.356  30.771  1.00  0.00    -0.279 OA
BRANCH  12  13
HETATM   13  C4  UNK     1      19.672  -0.215  31.393  1.00  0.00     0.268 C 
HETATM   14  O2  UNK     1      20.848   0.070  31.199  1.00  0.00    -0.264 OA
BRANCH  13  15
HETATM   15  C1  UNK     1      19.224  -1.281  32.383  1.00  0.00     0.085 C 
BRANCH  15  16
HETATM   16  C2  UNK     1      18.785  -0.650  33.716  1.00  0.00     0.010 C 
HETATM   17  C5  UNK     1      17.297  -0.823  33.989  1.00  0.00     0.006 C 
ENDBRANCH  15  16
BRANCH  15  18
HETATM   18  C3  UNK     1      20.329  -2.326  32.610  1.00  0.00     0.010 C 
HETATM   19  C6  UNK     1      20.492  -2.705  34.077  1.00  0.00     0.006 C 
ENDBRANCH  15  18
ENDBRANCH  13  15
ENDBRANCH  12  13
ENDBRANCH   3  12
BRANCH  10  20
HETATM   20  O4  UNK     1      18.129   7.858  32.711  1.00  0.00    -0.303 OA
BRANCH  20  21
HETATM   21  C16 UNK     1      16.985   8.371  33.257  1.00  0.00     0.093 A 
HETATM   22  C17 UNK     1      16.985   9.597  33.917  1.00  0.00     0.044 A 
HETATM   23 Br1  UNK     1      18.570  10.620  34.095  1.00  0.00    -0.048 Br
HETATM   24  C19 UNK     1      15.800  10.094  34.461  1.00  0.00     0.022 A 
HETATM   25  C21 UNK     1      14.619   9.360  34.343  1.00  0.00     0.002 A 
HETATM   26  C20 UNK     1      14.623   8.133  33.683  1.00  0.00     0.003 A 
HETATM   27  C18 UNK     1      15.807   7.637  33.138  1.00  0.00     0.039 A 
ENDBRANCH  20  21
ENDBRANCH  10  20
TORSDOF 7
ENDMDL
MODEL 5
REMARK VINA RESULT:      -7.6      3.513      6.439
REMARK  7 active torsions:
REMARK  status: ('A' for Active; 'I' for Inactive)
REMARK    1  A    between atoms: C4_10  and  O1_2 
REMARK    2  A    between atoms: C7_13  and  O1_2 
REMARK    3  A    between atoms: C14_20  and  O4_5 
REMARK    4  A    between atoms: C16_22  and  O4_5 
REMARK    5  A    between atoms: C1_7  and  C2_8 
REMARK    6  A    between atoms: C1_7  and  C3_9 
REMARK    7  A    between atoms: C1_7  and  C4_10 
ROOT
HETATM    1  O3  UNK     1      13.619   9.526   9.054  1.00  0.00    -0.319 OA
HETATM    2  O5  UNK     1      13.644   5.629  10.272  1.00  0.00    -0.284 OA
HETATM    3  C7  UNK     1      17.148   9.154   9.769  1.00  0.00     0.082 A 
HETATM    4  C8  UNK     1      14.873   7.606   9.864  1.00  0.00     0.051 A 
HETATM    5  C9  UNK     1      14.797   8.935   9.438  1.00  0.00     0.092 A 
HETATM    6  C10 UNK     1      15.950   9.720   9.390  1.00  0.00     0.075 A 
HETATM    7  C11 UNK     1      17.251   7.845  10.194  1.00  0.00     0.038 A 
HETATM    8  C12 UNK     1      16.100   7.058  10.244  1.00  0.00     0.021 A 
HETATM    9  C13 UNK     1      13.642   6.796   9.908  1.00  0.00     0.220 A 
HETATM   10  C14 UNK     1      12.401   7.482   9.484  1.00  0.00     0.149 A 
HETATM   11  C15 UNK     1      12.479   8.759   9.100  1.00  0.00     0.184 A 
ENDROOT
BRANCH   3  12
HETATM   12  O1  UNK     1      18.303   9.936   9.722  1.00  0.00    -0.279 OA
BRANCH  12  13
HETATM   13  C4  UNK     1      18.073  11.263  10.067  1.00  0.00     0.268 C 
HETATM   14  O2  UNK     1      17.327  11.667  10.952  1.00  0.00    -0.264 OA
BRANCH  13  15
HETATM   15  C1  UNK     1      18.890  12.188   9.176  1.00  0.00     0.085 C 
BRANCH  15  16
HETATM   16  C2  UNK     1      18.720  11.820   7.693  1.00  0.00     0.010 C 
HETATM   17  C5  UNK     1      17.388  12.285   7.118  1.00  0.00     0.006 C 
ENDBRANCH  15  16
BRANCH  15  18
HETATM   18  C3  UNK     1      20.375  12.173   9.578  1.00  0.00     0.010 C 
HETATM   19  C6  UNK     1      21.303  11.908   8.399  1.00  0.00     0.006 C 
ENDBRANCH  15  18
ENDBRANCH  13  15
ENDBRANCH  12  13
ENDBRANCH   3  12
BRANCH  10  20
HETATM   20  O4  UNK     1      11.209   6.795   9.496  1.00  0.00    -0.303 OA
BRANCH  20  21
HETATM   21  C16 UNK     1      10.588   6.609   8.292  1.00  0.00     0.093 A 
HETATM   22  C17 UNK     1       9.224   6.843   8.138  1.00  0.00     0.044 A 
HETATM   23 Br1  UNK     1       8.155   7.431   9.588  1.00  0.00    -0.048 Br
HETATM   24  C19 UNK     1       8.621   6.645   6.896  1.00  0.00     0.022 A 
HETATM   25  C21 UNK     1       9.385   6.212   5.811  1.00  0.00     0.002 A 
HETATM   26  C20 UNK     1      10.751   5.979   5.969  1.00  0.00     0.003 A 
HETATM   27  C18 UNK     1      11.354   6.178   7.211  1.00  0.00     0.039 A 
ENDBRANCH  20  21
ENDBRANCH  10  20
TORSDOF 7
ENDMDL
MODEL 6
REMARK VINA RESULT:      -7.6      1.945      2.539
REMARK  7 active torsions:
REMARK  status: ('A' for Active; 'I' for Inactive)
REMARK    1  A    between atoms: C4_10  and  O1_2 
REMARK    2  A    between atoms: C7_13  and  O1_2 
REMARK    3  A    between atoms: C14_20  and  O4_5 
REMARK    4  A    between atoms: C16_22  and  O4_5 
REMARK    5  A    between atoms: C1_7  and  C2_8 
REMARK    6  A    between atoms: C1_7  and  C3_9 
REMARK    7  A    between atoms: C1_7  and  C4_10 
ROOT
HETATM    1  O3  UNK     1       9.526   8.403   9.700  1.00  0.00    -0.319 OA
HETATM    2  O5  UNK     1       7.652   5.376   7.700  1.00  0.00    -0.284 OA
HETATM    3  C7  UNK     1      12.331   7.123   7.805  1.00  0.00     0.082 A 
HETATM    4  C8  UNK     1       9.654   6.564   8.115  1.00  0.00     0.051 A 
HETATM    5  C9  UNK     1      10.235   7.614   8.829  1.00  0.00     0.092 A 
HETATM    6  C10 UNK     1      11.592   7.898   8.673  1.00  0.00     0.075 A 
HETATM    7  C11 UNK     1      11.783   6.080   7.087  1.00  0.00     0.038 A 
HETATM    8  C12 UNK     1      10.426   5.793   7.242  1.00  0.00     0.021 A 
HETATM    9  C13 UNK     1       8.218   6.281   8.297  1.00  0.00     0.220 A 
HETATM   10  C14 UNK     1       7.501   7.161   9.247  1.00  0.00     0.149 A 
HETATM   11  C15 UNK     1       8.189   8.128   9.861  1.00  0.00     0.184 A 
ENDROOT
BRANCH   3  12
HETATM   12  O1  UNK     1      13.689   7.404   7.645  1.00  0.00    -0.279 OA
BRANCH  12  13
HETATM   13  C4  UNK     1      14.500   6.653   8.488  1.00  0.00     0.268 C 
HETATM   14  O2  UNK     1      14.874   5.501   8.304  1.00  0.00    -0.264 OA
BRANCH  13  15
HETATM   15  C1  UNK     1      14.880   7.469   9.716  1.00  0.00     0.085 C 
BRANCH  15  16
HETATM   16  C2  UNK     1      15.247   8.912   9.330  1.00  0.00     0.010 C 
HETATM   17  C5  UNK     1      14.444   9.951  10.102  1.00  0.00     0.006 C 
ENDBRANCH  15  16
BRANCH  15  18
HETATM   18  C3  UNK     1      16.028   6.800  10.491  1.00  0.00     0.010 C 
HETATM   19  C6  UNK     1      17.382   7.443  10.214  1.00  0.00     0.006 C 
ENDBRANCH  15  18
ENDBRANCH  13  15
ENDBRANCH  12  13
ENDBRANCH   3  12
BRANCH  10  20
HETATM   20  O4  UNK     1       6.159   6.963   9.474  1.00  0.00    -0.303 OA
BRANCH  20  21
HETATM   21  C16 UNK     1       5.803   6.451  10.691  1.00  0.00     0.093 A 
HETATM   22  C17 UNK     1       5.176   7.240  11.651  1.00  0.00     0.044 A 
HETATM   23 Br1  UNK     1       4.782   9.064  11.325  1.00  0.00    -0.048 Br
HETATM   24  C19 UNK     1       4.824   6.686  12.883  1.00  0.00     0.022 A 
HETATM   25  C21 UNK     1       5.102   5.345  13.149  1.00  0.00     0.002 A 
HETATM   26  C20 UNK     1       5.731   4.559  12.184  1.00  0.00     0.003 A 
HETATM   27  C18 UNK     1       6.082   5.112  10.953  1.00  0.00     0.039 A 
ENDBRANCH  20  21
ENDBRANCH  10  20
TORSDOF 7
ENDMDL
MODEL 7
REMARK VINA RESULT:      -7.6     24.376     26.497
REMARK  7 active torsions:
REMARK  status: ('A' for Active; 'I' for Inactive)
REMARK    1  A    between atoms: C4_10  and  O1_2 
REMARK    2  A    between atoms: C7_13  and  O1_2 
REMARK    3  A    between atoms: C14_20  and  O4_5 
REMARK    4  A    between atoms: C16_22  and  O4_5 
REMARK    5  A    between atoms: C1_7  and  C2_8 
REMARK    6  A    between atoms: C1_7  and  C3_9 
REMARK    7  A    between atoms: C1_7  and  C4_10 
ROOT
HETATM    1  O3  UNK     1      18.082   2.933  34.214  1.00  0.00    -0.319 OA
HETATM    2  O5  UNK     1      18.850   3.182  30.212  1.00  0.00    -0.284 OA
HETATM    3  C7  UNK     1      18.677  -0.567  33.508  1.00  0.00     0.082 A 
HETATM    4  C8  UNK     1      18.644   1.814  32.129  1.00  0.00     0.051 A 
HETATM    5  C9  UNK     1      18.372   1.797  33.499  1.00  0.00     0.092 A 
HETATM    6  C10 UNK     1      18.388   0.590  34.199  1.00  0.00     0.075 A 
HETATM    7  C11 UNK     1      18.949  -0.579  32.156  1.00  0.00     0.038 A 
HETATM    8  C12 UNK     1      18.933   0.627  31.453  1.00  0.00     0.021 A 
HETATM    9  C13 UNK     1      18.620   3.102  31.410  1.00  0.00     0.220 A 
HETATM   10  C14 UNK     1      18.302   4.294  32.228  1.00  0.00     0.149 A 
HETATM   11  C15 UNK     1      18.062   4.125  33.531  1.00  0.00     0.184 A 
ENDROOT
BRANCH   3  12
HETATM   12  O1  UNK     1      18.694  -1.777  34.206  1.00  0.00    -0.279 OA
BRANCH  12  13
HETATM   13  C4  UNK     1      19.914  -2.029  34.822  1.00  0.00     0.268 C 
HETATM   14  O2  UNK     1      21.000  -2.151  34.266  1.00  0.00    -0.264 OA
BRANCH  13  15
HETATM   15  C1  UNK     1      19.729  -2.141  36.328  1.00  0.00     0.085 C 
BRANCH  15  16
HETATM   16  C2  UNK     1      20.445  -3.384  36.883  1.00  0.00     0.010 C 
HETATM   17  C5  UNK     1      19.805  -4.687  36.423  1.00  0.00     0.006 C 
ENDBRANCH  15  16
BRANCH  15  18
HETATM   18  C3  UNK     1      18.238  -2.154  36.703  1.00  0.00     0.010 C 
HETATM   19  C6  UNK     1      17.848  -1.001  37.619  1.00  0.00     0.006 C 
ENDBRANCH  15  18
ENDBRANCH  13  15
ENDBRANCH  12  13
ENDBRANCH   3  12
BRANCH  10  20
HETATM   20  O4  UNK     1      18.259   5.532  31.632  1.00  0.00    -0.303 OA
BRANCH  20  21
HETATM   21  C16 UNK     1      18.510   6.615  32.431  1.00  0.00     0.093 A 
HETATM   22  C17 UNK     1      17.520   7.554  32.706  1.00  0.00     0.044 A 
HETATM   23 Br1  UNK     1      15.774   7.385  31.990  1.00  0.00    -0.048 Br
HETATM   24  C19 UNK     1      17.807   8.645  33.527  1.00  0.00     0.022 A 
HETATM   25  C21 UNK     1      19.085   8.793  34.068  1.00  0.00     0.002 A 
HETATM   26  C20 UNK     1      20.073   7.850  33.788  1.00  0.00     0.003 A 
HETATM   27  C18 UNK     1      19.786   6.759  32.969  1.00  0.00     0.039 A 
ENDBRANCH  20  21
ENDBRANCH  10  20
TORSDOF 7
ENDMDL
MODEL 8
REMARK VINA RESULT:      -7.5     26.064     28.180
REMARK  7 active torsions:
REMARK  status: ('A' for Active; 'I' for Inactive)
REMARK    1  A    between atoms: C4_10  and  O1_2 
REMARK    2  A    between atoms: C7_13  and  O1_2 
REMARK    3  A    between atoms: C14_20  and  O4_5 
REMARK    4  A    between atoms: C16_22  and  O4_5 
REMARK    5  A    between atoms: C1_7  and  C2_8 
REMARK    6  A    between atoms: C1_7  and  C3_9 
REMARK    7  A    between atoms: C1_7  and  C4_10 
ROOT
HETATM    1  O3  UNK     1      19.600  -0.848  33.020  1.00  0.00    -0.319 OA
HETATM    2  O5  UNK     1      17.066   1.134  35.534  1.00  0.00    -0.284 OA
HETATM    3  C7  UNK     1      20.015  -2.872  35.992  1.00  0.00     0.082 A 
HETATM    4  C8  UNK     1      18.583  -0.652  35.220  1.00  0.00     0.051 A 
HETATM    5  C9  UNK     1      19.434  -1.285  34.310  1.00  0.00     0.092 A 
HETATM    6  C10 UNK     1      20.161  -2.410  34.702  1.00  0.00     0.075 A 
HETATM    7  C11 UNK     1      19.181  -2.267  36.910  1.00  0.00     0.038 A 
HETATM    8  C12 UNK     1      18.454  -1.140  36.522  1.00  0.00     0.021 A 
HETATM    9  C13 UNK     1      17.826   0.537  34.785  1.00  0.00     0.220 A 
HETATM   10  C14 UNK     1      18.042   0.964  33.384  1.00  0.00     0.149 A 
HETATM   11  C15 UNK     1      18.889   0.261  32.628  1.00  0.00     0.184 A 
ENDROOT
BRANCH   3  12
HETATM   12  O1  UNK     1      20.740  -3.998  36.387  1.00  0.00    -0.279 OA
BRANCH  12  13
HETATM   13  C4  UNK     1      20.171  -5.189  35.950  1.00  0.00     0.268 C 
HETATM   14  O2  UNK     1      20.248  -5.663  34.822  1.00  0.00    -0.264 OA
BRANCH  13  15
HETATM   15  C1  UNK     1      19.410  -5.856  37.087  1.00  0.00     0.085 C 
BRANCH  15  16
HETATM   16  C2  UNK     1      20.331  -6.779  37.903  1.00  0.00     0.010 C 
HETATM   17  C5  UNK     1      20.016  -6.760  39.393  1.00  0.00     0.006 C 
ENDBRANCH  15  16
BRANCH  15  18
HETATM   18  C3  UNK     1      18.190  -6.628  36.558  1.00  0.00     0.010 C 
HETATM   19  C6  UNK     1      18.486  -8.102  36.308  1.00  0.00     0.006 C 
ENDBRANCH  15  18
ENDBRANCH  13  15
ENDBRANCH  12  13
ENDBRANCH   3  12
BRANCH  10  20
HETATM   20  O4  UNK     1      17.373   2.064  32.901  1.00  0.00    -0.303 OA
BRANCH  20  21
HETATM   21  C16 UNK     1      18.097   3.216  32.753  1.00  0.00     0.093 A 
HETATM   22  C17 UNK     1      18.535   3.638  31.501  1.00  0.00     0.044 A 
HETATM   23 Br1  UNK     1      18.155   2.640  29.935  1.00  0.00    -0.048 Br
HETATM   24  C19 UNK     1      19.270   4.818  31.383  1.00  0.00     0.022 A 
HETATM   25  C21 UNK     1      19.564   5.572  32.520  1.00  0.00     0.002 A 
HETATM   26  C20 UNK     1      19.123   5.145  33.772  1.00  0.00     0.003 A 
HETATM   27  C18 UNK     1      18.388   3.966  33.889  1.00  0.00     0.039 A 
ENDBRANCH  20  21
ENDBRANCH  10  20
TORSDOF 7
ENDMDL
MODEL 9
REMARK VINA RESULT:      -7.5      4.564     10.151
REMARK  7 active torsions:
REMARK  status: ('A' for Active; 'I' for Inactive)
REMARK    1  A    between atoms: C4_10  and  O1_2 
REMARK    2  A    between atoms: C7_13  and  O1_2 
REMARK    3  A    between atoms: C14_20  and  O4_5 
REMARK    4  A    between atoms: C16_22  and  O4_5 
REMARK    5  A    between atoms: C1_7  and  C2_8 
REMARK    6  A    between atoms: C1_7  and  C3_9 
REMARK    7  A    between atoms: C1_7  and  C4_10 
ROOT
HETATM    1  O3  UNK     1      14.701   9.736   9.774  1.00  0.00    -0.319 OA
HETATM    2  O5  UNK     1      18.157   7.583  10.076  1.00  0.00    -0.284 OA
HETATM    3  C7  UNK     1      13.308   6.397   9.896  1.00  0.00     0.082 A 
HETATM    4  C8  UNK     1      15.796   7.572   9.956  1.00  0.00     0.051 A 
HETATM    5  C9  UNK     1      14.652   8.366   9.851  1.00  0.00     0.092 A 
HETATM    6  C10 UNK     1      13.390   7.771   9.820  1.00  0.00     0.075 A 
HETATM    7  C11 UNK     1      14.422   5.590  10.000  1.00  0.00     0.038 A 
HETATM    8  C12 UNK     1      15.685   6.182  10.030  1.00  0.00     0.021 A 
HETATM    9  C13 UNK     1      17.119   8.223   9.986  1.00  0.00     0.220 A 
HETATM   10  C14 UNK     1      17.115   9.701   9.900  1.00  0.00     0.149 A 
HETATM   11  C15 UNK     1      15.941  10.329   9.803  1.00  0.00     0.184 A 
ENDROOT
BRANCH   3  12
HETATM   12  O1  UNK     1      12.047   5.798   9.865  1.00  0.00    -0.279 OA
BRANCH  12  13
HETATM   13  C4  UNK     1      11.666   5.403   8.588  1.00  0.00     0.268 C 
HETATM   14  O2  UNK     1      11.940   4.340   8.042  1.00  0.00    -0.264 OA
BRANCH  13  15
HETATM   15  C1  UNK     1      10.836   6.493   7.926  1.00  0.00     0.085 C 
BRANCH  15  16
HETATM   16  C2  UNK     1       9.354   6.378   8.321  1.00  0.00     0.010 C 
HETATM   17  C5  UNK     1       8.847   7.601   9.074  1.00  0.00     0.006 C 
ENDBRANCH  15  16
BRANCH  15  18
HETATM   18  C3  UNK     1      10.999   6.461   6.397  1.00  0.00     0.010 C 
HETATM   19  C6  UNK     1       9.702   6.126   5.671  1.00  0.00     0.006 C 
ENDBRANCH  15  18
ENDBRANCH  13  15
ENDBRANCH  12  13
ENDBRANCH   3  12
BRANCH  10  20
HETATM   20  O4  UNK     1      18.309  10.384   9.921  1.00  0.00    -0.303 OA
BRANCH  20  21
HETATM   21  C16 UNK     1      18.432  11.447   9.068  1.00  0.00     0.093 A 
HETATM   22  C17 UNK     1      18.438  12.756   9.540  1.00  0.00     0.044 A 
HETATM   23 Br1  UNK     1      18.277  13.137  11.390  1.00  0.00    -0.048 Br
HETATM   24  C19 UNK     1      18.567  13.817   8.644  1.00  0.00     0.022 A 
HETATM   25  C21 UNK     1      18.688  13.564   7.278  1.00  0.00     0.002 A 
HETATM   26  C20 UNK     1      18.680  12.251   6.808  1.00  0.00     0.003 A 
HETATM   27  C18 UNK     1      18.553  11.190   7.704  1.00  0.00     0.039 A 
ENDBRANCH  20  21
ENDBRANCH  10  20
TORSDOF 7
ENDMDL
MODEL 10
REMARK VINA RESULT:      -7.5     24.149     25.999
REMARK  7 active torsions:
REMARK  status: ('A' for Active; 'I' for Inactive)
REMARK    1  A    between atoms: C4_10  and  O1_2 
REMARK    2  A    between atoms: C7_13  and  O1_2 
REMARK    3  A    between atoms: C14_20  and  O4_5 
REMARK    4  A    between atoms: C16_22  and  O4_5 
REMARK    5  A    between atoms: C1_7  and  C2_8 
REMARK    6  A    between atoms: C1_7  and  C3_9 
REMARK    7  A    between atoms: C1_7  and  C4_10 
ROOT
HETATM    1  O3  UNK     1      18.071   5.912  34.570  1.00  0.00    -0.319 OA
HETATM    2  O5  UNK     1      17.518   7.057  30.690  1.00  0.00    -0.284 OA
HETATM    3  C7  UNK     1      18.400   2.691  32.950  1.00  0.00     0.082 A 
HETATM    4  C8  UNK     1      17.934   5.303  32.219  1.00  0.00     0.051 A 
HETATM    5  C9  UNK     1      18.114   4.977  33.565  1.00  0.00     0.092 A 
HETATM    6  C10 UNK     1      18.351   3.653  33.937  1.00  0.00     0.075 A 
HETATM    7  C11 UNK     1      18.225   2.986  31.614  1.00  0.00     0.038 A 
HETATM    8  C12 UNK     1      17.988   4.309  31.239  1.00  0.00     0.021 A 
HETATM    9  C13 UNK     1      17.684   6.709  31.850  1.00  0.00     0.220 A 
HETATM   10  C14 UNK     1      17.646   7.675  32.971  1.00  0.00     0.149 A 
HETATM   11  C15 UNK     1      17.837   7.218  34.211  1.00  0.00     0.184 A 
ENDROOT
BRANCH   3  12
HETATM   12  O1  UNK     1      18.637   1.365  33.319  1.00  0.00    -0.279 OA
BRANCH  12  13
HETATM   13  C4  UNK     1      17.767   0.913  34.304  1.00  0.00     0.268 C 
HETATM   14  O2  UNK     1      16.552   0.788  34.202  1.00  0.00    -0.264 OA
BRANCH  13  15
HETATM   15  C1  UNK     1      18.538   0.582  35.574  1.00  0.00     0.085 C 
BRANCH  15  16
HETATM   16  C2  UNK     1      18.369  -0.899  35.953  1.00  0.00     0.010 C 
HETATM   17  C5  UNK     1      19.534  -1.764  35.489  1.00  0.00     0.006 C 
ENDBRANCH  15  16
BRANCH  15  18
HETATM   18  C3  UNK     1      18.112   1.496  36.735  1.00  0.00     0.010 C 
HETATM   19  C6  UNK     1      17.553   0.722  37.923  1.00  0.00     0.006 C 
ENDBRANCH  15  18
ENDBRANCH  13  15
ENDBRANCH  12  13
ENDBRANCH   3  12
BRANCH  10  20
HETATM   20  O4  UNK     1      17.419   9.006  32.711  1.00  0.00    -0.303 OA
BRANCH  20  21
HETATM   21  C16 UNK     1      16.469   9.634  33.469  1.00  0.00     0.093 A 
HETATM   22  C17 UNK     1      16.758  10.804  34.166  1.00  0.00     0.044 A 
HETATM   23 Br1  UNK     1      18.481  11.589  34.102  1.00  0.00    -0.048 Br
HETATM   24  C19 UNK     1      15.766  11.421  34.929  1.00  0.00     0.022 A 
HETATM   25  C21 UNK     1      14.488  10.863  34.993  1.00  0.00     0.002 A 
HETATM   26  C20 UNK     1      14.203   9.691  34.294  1.00  0.00     0.003 A 
HETATM   27  C18 UNK     1      15.194   9.075  33.530  1.00  0.00     0.039 A 
ENDBRANCH  20  21
ENDBRANCH  10  20
TORSDOF 7
ENDMDL
