MODEL 1
REMARK VINA RESULT:      -8.0      0.000      0.000
REMARK  6 active torsions:
REMARK  status: ('A' for Active; 'I' for Inactive)
REMARK    1  A    between atoms: C12_19  and  S1_1 
REMARK    2  A    between atoms: C13_20  and  S1_1 
REMARK    3  A    between atoms: C11_18  and  O2_3 
REMARK    4  A    between atoms: C6_13  and  O2_3 
REMARK    5  A    between atoms: C13_20  and  N1_6 
REMARK    6  A    between atoms: C11_18  and  C12_19 
ROOT
HETATM    1  O1  UNK     1      16.509   8.679  33.178  1.00  0.00    -0.275 OA
HETATM    2  O3  UNK     1      15.907  10.797  33.797  1.00  0.00    -0.260 OA
HETATM    3  C1  UNK     1      18.818   7.950  33.504  1.00  0.00     0.004 A 
HETATM    4  C2  UNK     1      17.514   7.697  33.077  1.00  0.00     0.092 A 
HETATM    5  C3  UNK     1      19.129   9.271  34.066  1.00  0.00    -0.043 A 
HETATM    6  C4  UNK     1      19.758   6.920  33.369  1.00  0.00     0.017 A 
HETATM    7  C5  UNK     1      17.134   6.469  32.531  1.00  0.00     0.075 A 
HETATM    8  C6  UNK     1      18.082   5.459  32.406  1.00  0.00     0.082 A 
HETATM    9  C7  UNK     1      19.392   5.685  32.824  1.00  0.00     0.038 A 
HETATM   10  C8  UNK     1      18.154  10.187  34.151  1.00  0.00     0.090 A 
HETATM   11  C9  UNK     1      20.522   9.575  34.535  1.00  0.00     0.049 C 
HETATM   12  C10 UNK     1      16.773   9.934  33.705  1.00  0.00     0.288 A 
ENDROOT
BRANCH   8  13
HETATM   13  O2  UNK     1      17.732   4.256  31.876  1.00  0.00    -0.278 OA
BRANCH  13  14
HETATM   14  C11 UNK     1      18.491   3.869  30.752  1.00  0.00     0.273 C 
HETATM   15  O4  UNK     1      18.957   4.643  29.926  1.00  0.00    -0.264 OA
BRANCH  14  16
HETATM   16  C12 UNK     1      18.627   2.366  30.749  1.00  0.00     0.193 C 
BRANCH  16  17
HETATM   17  S1  UNK     1      18.257   1.676  29.120  1.00  0.00    -0.083 SA
BRANCH  17  18
HETATM   18  C13 UNK     1      19.445   0.381  28.996  1.00  0.00     0.153 C 
HETATM   19  N2  UNK     1      19.342  -0.516  28.068  1.00  0.00    -0.278 NA
HETATM   20  H12 UNK     1      20.120  -1.179  28.160  1.00  0.00     0.189 HD
BRANCH  18  21
HETATM   21  N1  UNK     1      20.433   0.425  29.939  1.00  0.00    -0.379 N 
HETATM   22  H10 UNK     1      20.601  -0.354  30.567  1.00  0.00     0.158 HD
HETATM   23  H11 UNK     1      21.028   1.239  30.040  1.00  0.00     0.158 HD
ENDBRANCH  18  21
ENDBRANCH  17  18
ENDBRANCH  16  17
ENDBRANCH  14  16
ENDBRANCH  13  14
ENDBRANCH   8  13
TORSDOF 6
ENDMDL
MODEL 2
REMARK VINA RESULT:      -7.9      4.300      8.119
REMARK  6 active torsions:
REMARK  status: ('A' for Active; 'I' for Inactive)
REMARK    1  A    between atoms: C12_19  and  S1_1 
REMARK    2  A    between atoms: C13_20  and  S1_1 
REMARK    3  A    between atoms: C11_18  and  O2_3 
REMARK    4  A    between atoms: C6_13  and  O2_3 
REMARK    5  A    between atoms: C13_20  and  N1_6 
REMARK    6  A    between atoms: C11_18  and  C12_19 
ROOT
HETATM    1  O1  UNK     1      19.155  -0.035  32.864  1.00  0.00    -0.275 OA
HETATM    2  O3  UNK     1      19.946  -2.096  33.461  1.00  0.00    -0.260 OA
HETATM    3  C1  UNK     1      19.390   0.710  30.549  1.00  0.00     0.004 A 
HETATM    4  C2  UNK     1      18.963   0.933  31.859  1.00  0.00     0.092 A 
HETATM    5  C3  UNK     1      20.049  -0.564  30.233  1.00  0.00    -0.043 A 
HETATM    6  C4  UNK     1      19.161   1.723  29.609  1.00  0.00     0.017 A 
HETATM    7  C5  UNK     1      18.328   2.116  32.244  1.00  0.00     0.075 A 
HETATM    8  C6  UNK     1      18.111   3.109  31.296  1.00  0.00     0.082 A 
HETATM    9  C7  UNK     1      18.526   2.913  29.980  1.00  0.00     0.038 A 
HETATM   10  C8  UNK     1      20.219  -1.468  31.208  1.00  0.00     0.090 A 
HETATM   11  C9  UNK     1      20.520  -0.835  28.834  1.00  0.00     0.049 C 
HETATM   12  C10 UNK     1      19.773  -1.246  32.595  1.00  0.00     0.288 A 
ENDROOT
BRANCH   8  13
HETATM   13  O2  UNK     1      17.494   4.269  31.651  1.00  0.00    -0.278 OA
BRANCH  13  14
HETATM   14  C11 UNK     1      18.355   5.246  32.194  1.00  0.00     0.273 C 
HETATM   15  O4  UNK     1      19.467   5.513  31.760  1.00  0.00    -0.264 OA
BRANCH  14  16
HETATM   16  C12 UNK     1      17.675   5.892  33.376  1.00  0.00     0.193 C 
BRANCH  16  17
HETATM   17  S1  UNK     1      17.415   7.660  33.099  1.00  0.00    -0.083 SA
BRANCH  17  18
HETATM   18  C13 UNK     1      16.253   7.653  31.775  1.00  0.00     0.153 C 
HETATM   19  N2  UNK     1      16.575   8.139  30.618  1.00  0.00    -0.278 NA
HETATM   20  H12 UNK     1      15.773   8.046  29.986  1.00  0.00     0.189 HD
BRANCH  18  21
HETATM   21  N1  UNK     1      15.038   7.111  32.089  1.00  0.00    -0.379 N 
HETATM   22  H10 UNK     1      14.729   6.235  31.680  1.00  0.00     0.158 HD
HETATM   23  H11 UNK     1      14.410   7.568  32.739  1.00  0.00     0.158 HD
ENDBRANCH  18  21
ENDBRANCH  17  18
ENDBRANCH  16  17
ENDBRANCH  14  16
ENDBRANCH  13  14
ENDBRANCH   8  13
TORSDOF 6
ENDMDL
MODEL 3
REMARK VINA RESULT:      -7.8      3.807      7.884
REMARK  6 active torsions:
REMARK  status: ('A' for Active; 'I' for Inactive)
REMARK    1  A    between atoms: C12_19  and  S1_1 
REMARK    2  A    between atoms: C13_20  and  S1_1 
REMARK    3  A    between atoms: C11_18  and  O2_3 
REMARK    4  A    between atoms: C6_13  and  O2_3 
REMARK    5  A    between atoms: C13_20  and  N1_6 
REMARK    6  A    between atoms: C11_18  and  C12_19 
ROOT
HETATM    1  O1  UNK     1      19.253  -0.359  32.833  1.00  0.00    -0.275 OA
HETATM    2  O3  UNK     1      20.094  -2.441  33.264  1.00  0.00    -0.260 OA
HETATM    3  C1  UNK     1      19.478   0.580  30.589  1.00  0.00     0.004 A 
HETATM    4  C2  UNK     1      19.041   0.684  31.910  1.00  0.00     0.092 A 
HETATM    5  C3  UNK     1      20.171  -0.646  30.173  1.00  0.00    -0.043 A 
HETATM    6  C4  UNK     1      19.228   1.661  29.734  1.00  0.00     0.017 A 
HETATM    7  C5  UNK     1      18.374   1.814  32.388  1.00  0.00     0.075 A 
HETATM    8  C6  UNK     1      18.135   2.877  31.523  1.00  0.00     0.082 A 
HETATM    9  C7  UNK     1      18.561   2.800  30.198  1.00  0.00     0.038 A 
HETATM   10  C8  UNK     1      20.360  -1.623  31.072  1.00  0.00     0.090 A 
HETATM   11  C9  UNK     1      20.654  -0.790  28.760  1.00  0.00     0.049 C 
HETATM   12  C10 UNK     1      19.903  -1.527  32.469  1.00  0.00     0.288 A 
ENDROOT
BRANCH   8  13
HETATM   13  O2  UNK     1      17.488   3.988  31.968  1.00  0.00    -0.278 OA
BRANCH  13  14
HETATM   14  C11 UNK     1      18.214   4.751  32.907  1.00  0.00     0.273 C 
HETATM   15  O4  UNK     1      18.405   4.426  34.071  1.00  0.00    -0.264 OA
BRANCH  14  16
HETATM   16  C12 UNK     1      18.707   6.009  32.236  1.00  0.00     0.193 C 
BRANCH  16  17
HETATM   17  S1  UNK     1      20.414   6.379  32.705  1.00  0.00    -0.083 SA
BRANCH  17  18
HETATM   18  C13 UNK     1      21.301   5.883  31.265  1.00  0.00     0.153 C 
HETATM   19  N2  UNK     1      22.578   5.674  31.323  1.00  0.00    -0.278 NA
HETATM   20  H12 UNK     1      22.910   5.397  30.392  1.00  0.00     0.189 HD
BRANCH  18  21
HETATM   21  N1  UNK     1      20.534   5.755  30.142  1.00  0.00    -0.379 N 
HETATM   22  H10 UNK     1      20.878   6.038  29.230  1.00  0.00     0.158 HD
HETATM   23  H11 UNK     1      19.596   5.372  30.185  1.00  0.00     0.158 HD
ENDBRANCH  18  21
ENDBRANCH  17  18
ENDBRANCH  16  17
ENDBRANCH  14  16
ENDBRANCH  13  14
ENDBRANCH   8  13
TORSDOF 6
ENDMDL
MODEL 4
REMARK VINA RESULT:      -7.8      8.183     10.135
REMARK  6 active torsions:
REMARK  status: ('A' for Active; 'I' for Inactive)
REMARK    1  A    between atoms: C12_19  and  S1_1 
REMARK    2  A    between atoms: C13_20  and  S1_1 
REMARK    3  A    between atoms: C11_18  and  O2_3 
REMARK    4  A    between atoms: C6_13  and  O2_3 
REMARK    5  A    between atoms: C13_20  and  N1_6 
REMARK    6  A    between atoms: C11_18  and  C12_19 
ROOT
HETATM    1  O1  UNK     1      19.178  -0.576  33.959  1.00  0.00    -0.275 OA
HETATM    2  O3  UNK     1      18.340   1.069  32.610  1.00  0.00    -0.260 OA
HETATM    3  C1  UNK     1      18.305  -0.822  36.227  1.00  0.00     0.004 A 
HETATM    4  C2  UNK     1      19.167  -1.229  35.207  1.00  0.00     0.092 A 
HETATM    5  C3  UNK     1      17.402   0.309  35.975  1.00  0.00    -0.043 A 
HETATM    6  C4  UNK     1      18.355  -1.523  37.438  1.00  0.00     0.017 A 
HETATM    7  C5  UNK     1      20.056  -2.293  35.364  1.00  0.00     0.075 A 
HETATM    8  C6  UNK     1      20.090  -2.977  36.574  1.00  0.00     0.082 A 
HETATM    9  C7  UNK     1      19.241  -2.593  37.610  1.00  0.00     0.038 A 
HETATM   10  C8  UNK     1      17.434   0.911  34.778  1.00  0.00     0.090 A 
HETATM   11  C9  UNK     1      16.464   0.771  37.050  1.00  0.00     0.049 C 
HETATM   12  C10 UNK     1      18.338   0.493  33.692  1.00  0.00     0.288 A 
ENDROOT
BRANCH   8  13
HETATM   13  O2  UNK     1      20.950  -4.017  36.747  1.00  0.00    -0.278 OA
BRANCH  13  14
HETATM   14  C11 UNK     1      20.325  -5.272  36.908  1.00  0.00     0.273 C 
HETATM   15  O4  UNK     1      20.190  -5.851  37.978  1.00  0.00    -0.264 OA
BRANCH  14  16
HETATM   16  C12 UNK     1      19.861  -5.761  35.559  1.00  0.00     0.193 C 
BRANCH  16  17
HETATM   17  S1  UNK     1      19.163  -7.426  35.667  1.00  0.00    -0.083 SA
BRANCH  17  18
HETATM   18  C13 UNK     1      17.463  -7.087  35.978  1.00  0.00     0.153 C 
HETATM   19  N2  UNK     1      17.111  -6.399  37.018  1.00  0.00    -0.278 NA
HETATM   20  H12 UNK     1      16.089  -6.311  37.026  1.00  0.00     0.189 HD
BRANCH  18  21
HETATM   21  N1  UNK     1      16.602  -7.604  35.051  1.00  0.00    -0.379 N 
HETATM   22  H10 UNK     1      16.560  -8.601  34.867  1.00  0.00     0.158 HD
HETATM   23  H11 UNK     1      15.980  -7.006  34.518  1.00  0.00     0.158 HD
ENDBRANCH  18  21
ENDBRANCH  17  18
ENDBRANCH  16  17
ENDBRANCH  14  16
ENDBRANCH  13  14
ENDBRANCH   8  13
TORSDOF 6
ENDMDL
MODEL 5
REMARK VINA RESULT:      -7.8      4.712      6.384
REMARK  6 active torsions:
REMARK  status: ('A' for Active; 'I' for Inactive)
REMARK    1  A    between atoms: C12_19  and  S1_1 
REMARK    2  A    between atoms: C13_20  and  S1_1 
REMARK    3  A    between atoms: C11_18  and  O2_3 
REMARK    4  A    between atoms: C6_13  and  O2_3 
REMARK    5  A    between atoms: C13_20  and  N1_6 
REMARK    6  A    between atoms: C11_18  and  C12_19 
ROOT
HETATM    1  O1  UNK     1      18.208   1.889  30.646  1.00  0.00    -0.275 OA
HETATM    2  O3  UNK     1      18.324   1.569  28.384  1.00  0.00    -0.260 OA
HETATM    3  C1  UNK     1      18.601   4.121  31.558  1.00  0.00     0.004 A 
HETATM    4  C2  UNK     1      18.304   2.770  31.741  1.00  0.00     0.092 A 
HETATM    5  C3  UNK     1      18.815   4.614  30.191  1.00  0.00    -0.043 A 
HETATM    6  C4  UNK     1      18.679   4.930  32.698  1.00  0.00     0.017 A 
HETATM    7  C5  UNK     1      18.087   2.219  33.006  1.00  0.00     0.075 A 
HETATM    8  C6  UNK     1      18.168   3.040  34.126  1.00  0.00     0.082 A 
HETATM    9  C7  UNK     1      18.463   4.393  33.973  1.00  0.00     0.038 A 
HETATM   10  C8  UNK     1      18.717   3.755  29.167  1.00  0.00     0.090 A 
HETATM   11  C9  UNK     1      19.136   6.062  29.960  1.00  0.00     0.049 C 
HETATM   12  C10 UNK     1      18.404   2.326  29.345  1.00  0.00     0.288 A 
ENDROOT
BRANCH   8  13
HETATM   13  O2  UNK     1      17.960   2.523  35.367  1.00  0.00    -0.278 OA
BRANCH  13  14
HETATM   14  C11 UNK     1      19.086   1.888  35.932  1.00  0.00     0.273 C 
HETATM   15  O4  UNK     1      20.097   2.466  36.309  1.00  0.00    -0.264 OA
BRANCH  14  16
HETATM   16  C12 UNK     1      18.829   0.402  35.991  1.00  0.00     0.193 C 
BRANCH  16  17
HETATM   17  S1  UNK     1      17.198   0.045  36.686  1.00  0.00    -0.083 SA
BRANCH  17  18
HETATM   18  C13 UNK     1      16.266  -0.343  35.242  1.00  0.00     0.153 C 
HETATM   19  N2  UNK     1      15.543   0.564  34.665  1.00  0.00    -0.278 NA
HETATM   20  H12 UNK     1      15.079   0.149  33.850  1.00  0.00     0.189 HD
BRANCH  18  21
HETATM   21  N1  UNK     1      16.382  -1.639  34.822  1.00  0.00    -0.379 N 
HETATM   22  H10 UNK     1      15.573  -2.173  34.524  1.00  0.00     0.158 HD
HETATM   23  H11 UNK     1      17.282  -2.105  34.796  1.00  0.00     0.158 HD
ENDBRANCH  18  21
ENDBRANCH  17  18
ENDBRANCH  16  17
ENDBRANCH  14  16
ENDBRANCH  13  14
ENDBRANCH   8  13
TORSDOF 6
ENDMDL
MODEL 6
REMARK VINA RESULT:      -7.8      4.217      7.133
REMARK  6 active torsions:
REMARK  status: ('A' for Active; 'I' for Inactive)
REMARK    1  A    between atoms: C12_19  and  S1_1 
REMARK    2  A    between atoms: C13_20  and  S1_1 
REMARK    3  A    between atoms: C11_18  and  O2_3 
REMARK    4  A    between atoms: C6_13  and  O2_3 
REMARK    5  A    between atoms: C13_20  and  N1_6 
REMARK    6  A    between atoms: C11_18  and  C12_19 
ROOT
HETATM    1  O1  UNK     1      18.025   2.967  33.339  1.00  0.00    -0.275 OA
HETATM    2  O3  UNK     1      17.862   0.768  33.946  1.00  0.00    -0.260 OA
HETATM    3  C1  UNK     1      18.682   3.529  31.054  1.00  0.00     0.004 A 
HETATM    4  C2  UNK     1      18.308   3.920  32.341  1.00  0.00     0.092 A 
HETATM    5  C3  UNK     1      18.777   2.094  30.755  1.00  0.00    -0.043 A 
HETATM    6  C4  UNK     1      18.946   4.538  30.120  1.00  0.00     0.017 A 
HETATM    7  C5  UNK     1      18.194   5.262  32.709  1.00  0.00     0.075 A 
HETATM    8  C6  UNK     1      18.461   6.249  31.766  1.00  0.00     0.082 A 
HETATM    9  C7  UNK     1      18.836   5.888  30.473  1.00  0.00     0.038 A 
HETATM   10  C8  UNK     1      18.501   1.209  31.723  1.00  0.00     0.090 A 
HETATM   11  C9  UNK     1      19.176   1.641  29.382  1.00  0.00     0.049 C 
HETATM   12  C10 UNK     1      18.106   1.607  33.086  1.00  0.00     0.288 A 
ENDROOT
BRANCH   8  13
HETATM   13  O2  UNK     1      18.356   7.563  32.104  1.00  0.00    -0.278 OA
BRANCH  13  14
HETATM   14  C11 UNK     1      17.065   8.107  31.940  1.00  0.00     0.273 C 
HETATM   15  O4  UNK     1      16.482   8.208  30.869  1.00  0.00    -0.264 OA
BRANCH  14  16
HETATM   16  C12 UNK     1      16.540   8.531  33.290  1.00  0.00     0.193 C 
BRANCH  16  17
HETATM   17  S1  UNK     1      15.188   7.462  33.835  1.00  0.00    -0.083 SA
BRANCH  17  18
HETATM   18  C13 UNK     1      13.945   7.808  32.635  1.00  0.00     0.153 C 
HETATM   19  N2  UNK     1      13.661   6.940  31.716  1.00  0.00    -0.278 NA
HETATM   20  H12 UNK     1      12.921   7.322  31.118  1.00  0.00     0.189 HD
BRANCH  18  21
HETATM   21  N1  UNK     1      13.349   9.031  32.771  1.00  0.00    -0.379 N 
HETATM   22  H10 UNK     1      13.029   9.365  33.674  1.00  0.00     0.158 HD
HETATM   23  H11 UNK     1      13.209   9.640  31.973  1.00  0.00     0.158 HD
ENDBRANCH  18  21
ENDBRANCH  17  18
ENDBRANCH  16  17
ENDBRANCH  14  16
ENDBRANCH  13  14
ENDBRANCH   8  13
TORSDOF 6
ENDMDL
MODEL 7
REMARK VINA RESULT:      -7.8      4.052      6.529
REMARK  6 active torsions:
REMARK  status: ('A' for Active; 'I' for Inactive)
REMARK    1  A    between atoms: C12_19  and  S1_1 
REMARK    2  A    between atoms: C13_20  and  S1_1 
REMARK    3  A    between atoms: C11_18  and  O2_3 
REMARK    4  A    between atoms: C6_13  and  O2_3 
REMARK    5  A    between atoms: C13_20  and  N1_6 
REMARK    6  A    between atoms: C11_18  and  C12_19 
ROOT
HETATM    1  O1  UNK     1      17.311   4.252  32.212  1.00  0.00    -0.275 OA
HETATM    2  O3  UNK     1      17.457   2.492  30.759  1.00  0.00    -0.260 OA
HETATM    3  C1  UNK     1      19.010   6.006  32.138  1.00  0.00     0.004 A 
HETATM    4  C2  UNK     1      17.847   5.465  32.688  1.00  0.00     0.092 A 
HETATM    5  C3  UNK     1      19.672   5.283  31.044  1.00  0.00    -0.043 A 
HETATM    6  C4  UNK     1      19.478   7.215  32.668  1.00  0.00     0.017 A 
HETATM    7  C5  UNK     1      17.156   6.087  33.730  1.00  0.00     0.075 A 
HETATM    8  C6  UNK     1      17.637   7.287  34.242  1.00  0.00     0.082 A 
HETATM    9  C7  UNK     1      18.796   7.851  33.711  1.00  0.00     0.038 A 
HETATM   10  C8  UNK     1      19.141   4.132  30.610  1.00  0.00     0.090 A 
HETATM   11  C9  UNK     1      20.924   5.839  30.431  1.00  0.00     0.049 C 
HETATM   12  C10 UNK     1      17.914   3.549  31.181  1.00  0.00     0.288 A 
ENDROOT
BRANCH   8  13
HETATM   13  O2  UNK     1      16.978   7.909  35.257  1.00  0.00    -0.278 OA
BRANCH  13  14
HETATM   14  C11 UNK     1      16.297   9.085  34.878  1.00  0.00     0.273 C 
HETATM   15  O4  UNK     1      16.785  10.207  34.889  1.00  0.00    -0.264 OA
BRANCH  14  16
HETATM   16  C12 UNK     1      14.892   8.723  34.464  1.00  0.00     0.193 C 
BRANCH  16  17
HETATM   17  S1  UNK     1      14.453   9.492  32.888  1.00  0.00    -0.083 SA
BRANCH  17  18
HETATM   18  C13 UNK     1      15.045   8.305  31.728  1.00  0.00     0.153 C 
HETATM   19  N2  UNK     1      16.152   8.511  31.088  1.00  0.00    -0.278 NA
HETATM   20  H12 UNK     1      16.326   7.716  30.464  1.00  0.00     0.189 HD
BRANCH  18  21
HETATM   21  N1  UNK     1      14.246   7.206  31.583  1.00  0.00    -0.379 N 
HETATM   22  H10 UNK     1      14.096   6.556  32.348  1.00  0.00     0.158 HD
HETATM   23  H11 UNK     1      13.780   7.006  30.705  1.00  0.00     0.158 HD
ENDBRANCH  18  21
ENDBRANCH  17  18
ENDBRANCH  16  17
ENDBRANCH  14  16
ENDBRANCH  13  14
ENDBRANCH   8  13
TORSDOF 6
ENDMDL
MODEL 8
REMARK VINA RESULT:      -7.8      4.247      8.012
REMARK  6 active torsions:
REMARK  status: ('A' for Active; 'I' for Inactive)
REMARK    1  A    between atoms: C12_19  and  S1_1 
REMARK    2  A    between atoms: C13_20  and  S1_1 
REMARK    3  A    between atoms: C11_18  and  O2_3 
REMARK    4  A    between atoms: C6_13  and  O2_3 
REMARK    5  A    between atoms: C13_20  and  N1_6 
REMARK    6  A    between atoms: C11_18  and  C12_19 
ROOT
HETATM    1  O1  UNK     1      19.556   1.054  29.398  1.00  0.00    -0.275 OA
HETATM    2  O3  UNK     1      20.502  -0.619  28.159  1.00  0.00    -0.260 OA
HETATM    3  C1  UNK     1      19.048   0.653  31.754  1.00  0.00     0.004 A 
HETATM    4  C2  UNK     1      19.054   1.493  30.639  1.00  0.00     0.092 A 
HETATM    5  C3  UNK     1      19.579  -0.709  31.611  1.00  0.00    -0.043 A 
HETATM    6  C4  UNK     1      18.532   1.166  32.951  1.00  0.00     0.017 A 
HETATM    7  C5  UNK     1      18.568   2.801  30.689  1.00  0.00     0.075 A 
HETATM    8  C6  UNK     1      18.060   3.291  31.887  1.00  0.00     0.082 A 
HETATM    9  C7  UNK     1      18.042   2.475  33.017  1.00  0.00     0.038 A 
HETATM   10  C8  UNK     1      20.050  -1.101  30.419  1.00  0.00     0.090 A 
HETATM   11  C9  UNK     1      19.586  -1.636  32.791  1.00  0.00     0.049 C 
HETATM   12  C10 UNK     1      20.063  -0.226  29.234  1.00  0.00     0.288 A 
ENDROOT
BRANCH   8  13
HETATM   13  O2  UNK     1      17.582   4.563  31.956  1.00  0.00    -0.278 OA
BRANCH  13  14
HETATM   14  C11 UNK     1      18.467   5.489  32.548  1.00  0.00     0.273 C 
HETATM   15  O4  UNK     1      19.633   5.649  32.215  1.00  0.00    -0.264 OA
BRANCH  14  16
HETATM   16  C12 UNK     1      17.735   6.233  33.639  1.00  0.00     0.193 C 
BRANCH  16  17
HETATM   17  S1  UNK     1      17.386   7.938  33.151  1.00  0.00    -0.083 SA
BRANCH  17  18
HETATM   18  C13 UNK     1      16.284   7.709  31.795  1.00  0.00     0.153 C 
HETATM   19  N2  UNK     1      16.554   8.223  30.637  1.00  0.00    -0.278 NA
HETATM   20  H12 UNK     1      15.800   7.983  29.984  1.00  0.00     0.189 HD
BRANCH  18  21
HETATM   21  N1  UNK     1      15.171   6.970  32.086  1.00  0.00    -0.379 N 
HETATM   22  H10 UNK     1      14.861   6.837  33.042  1.00  0.00     0.158 HD
HETATM   23  H11 UNK     1      14.623   6.534  31.354  1.00  0.00     0.158 HD
ENDBRANCH  18  21
ENDBRANCH  17  18
ENDBRANCH  16  17
ENDBRANCH  14  16
ENDBRANCH  13  14
ENDBRANCH   8  13
TORSDOF 6
ENDMDL
MODEL 9
REMARK VINA RESULT:      -7.7      6.920      7.920
REMARK  6 active torsions:
REMARK  status: ('A' for Active; 'I' for Inactive)
REMARK    1  A    between atoms: C12_19  and  S1_1 
REMARK    2  A    between atoms: C13_20  and  S1_1 
REMARK    3  A    between atoms: C11_18  and  O2_3 
REMARK    4  A    between atoms: C6_13  and  O2_3 
REMARK    5  A    between atoms: C13_20  and  N1_6 
REMARK    6  A    between atoms: C11_18  and  C12_19 
ROOT
HETATM    1  O1  UNK     1      16.927  -0.188  34.243  1.00  0.00    -0.275 OA
HETATM    2  O3  UNK     1      15.179   0.872  35.268  1.00  0.00    -0.260 OA
HETATM    3  C1  UNK     1      18.593  -1.339  35.610  1.00  0.00     0.004 A 
HETATM    4  C2  UNK     1      18.106  -0.950  34.361  1.00  0.00     0.092 A 
HETATM    5  C3  UNK     1      17.850  -0.935  36.810  1.00  0.00    -0.043 A 
HETATM    6  C4  UNK     1      19.771  -2.096  35.641  1.00  0.00     0.017 A 
HETATM    7  C5  UNK     1      18.751  -1.291  33.170  1.00  0.00     0.075 A 
HETATM    8  C6  UNK     1      19.919  -2.044  33.223  1.00  0.00     0.082 A 
HETATM    9  C7  UNK     1      20.428  -2.446  34.456  1.00  0.00     0.038 A 
HETATM   10  C8  UNK     1      16.731  -0.210  36.669  1.00  0.00     0.090 A 
HETATM   11  C9  UNK     1      18.347  -1.337  38.168  1.00  0.00     0.049 C 
HETATM   12  C10 UNK     1      16.205   0.208  35.358  1.00  0.00     0.288 A 
ENDROOT
BRANCH   8  13
HETATM   13  O2  UNK     1      20.563  -2.387  32.074  1.00  0.00    -0.278 OA
BRANCH  13  14
HETATM   14  C11 UNK     1      20.704  -1.333  31.147  1.00  0.00     0.273 C 
HETATM   15  O4  UNK     1      21.346  -0.311  31.345  1.00  0.00    -0.264 OA
BRANCH  14  16
HETATM   16  C12 UNK     1      19.941  -1.683  29.892  1.00  0.00     0.193 C 
BRANCH  16  17
HETATM   17  S1  UNK     1      20.111  -0.392  28.638  1.00  0.00    -0.083 SA
BRANCH  17  18
HETATM   18  C13 UNK     1      19.054   0.868  29.270  1.00  0.00     0.153 C 
HETATM   19  N2  UNK     1      19.524   1.783  30.058  1.00  0.00    -0.278 NA
HETATM   20  H12 UNK     1      18.762   2.419  30.318  1.00  0.00     0.189 HD
BRANCH  18  21
HETATM   21  N1  UNK     1      17.754   0.777  28.860  1.00  0.00    -0.379 N 
HETATM   22  H10 UNK     1      17.473   0.130  28.130  1.00  0.00     0.158 HD
HETATM   23  H11 UNK     1      17.030   1.355  29.272  1.00  0.00     0.158 HD
ENDBRANCH  18  21
ENDBRANCH  17  18
ENDBRANCH  16  17
ENDBRANCH  14  16
ENDBRANCH  13  14
ENDBRANCH   8  13
TORSDOF 6
ENDMDL
MODEL 10
REMARK VINA RESULT:      -7.6     14.379     19.405
REMARK  6 active torsions:
REMARK  status: ('A' for Active; 'I' for Inactive)
REMARK    1  A    between atoms: C12_19  and  S1_1 
REMARK    2  A    between atoms: C13_20  and  S1_1 
REMARK    3  A    between atoms: C11_18  and  O2_3 
REMARK    4  A    between atoms: C6_13  and  O2_3 
REMARK    5  A    between atoms: C13_20  and  N1_6 
REMARK    6  A    between atoms: C11_18  and  C12_19 
ROOT
HETATM    1  O1  UNK     1      20.007  -1.238  12.736  1.00  0.00    -0.275 OA
HETATM    2  O3  UNK     1      20.959  -1.278  10.657  1.00  0.00    -0.260 OA
HETATM    3  C1  UNK     1      18.994  -3.276  13.625  1.00  0.00     0.004 A 
HETATM    4  C2  UNK     1      19.328  -1.928  13.760  1.00  0.00     0.092 A 
HETATM    5  C3  UNK     1      19.364  -3.970  12.385  1.00  0.00    -0.043 A 
HETATM    6  C4  UNK     1      18.319  -3.888  14.689  1.00  0.00     0.017 A 
HETATM    7  C5  UNK     1      19.014  -1.193  14.905  1.00  0.00     0.075 A 
HETATM    8  C6  UNK     1      18.344  -1.819  15.951  1.00  0.00     0.082 A 
HETATM    9  C7  UNK     1      17.997  -3.165  15.843  1.00  0.00     0.038 A 
HETATM   10  C8  UNK     1      20.009  -3.291  11.427  1.00  0.00     0.090 A 
HETATM   11  C9  UNK     1      19.018  -5.420  12.208  1.00  0.00     0.049 C 
HETATM   12  C10 UNK     1      20.369  -1.867  11.555  1.00  0.00     0.288 A 
ENDROOT
BRANCH   8  13
HETATM   13  O2  UNK     1      18.028  -1.121  17.075  1.00  0.00    -0.278 OA
BRANCH  13  14
HETATM   14  C11 UNK     1      19.141  -0.654  17.805  1.00  0.00     0.273 C 
HETATM   15  O4  UNK     1      20.136  -1.319  18.060  1.00  0.00    -0.264 OA
BRANCH  14  16
HETATM   16  C12 UNK     1      18.895   0.780  18.205  1.00  0.00     0.193 C 
BRANCH  16  17
HETATM   17  S1  UNK     1      18.066   0.882  19.809  1.00  0.00    -0.083 SA
BRANCH  17  18
HETATM   18  C13 UNK     1      19.430   1.063  20.910  1.00  0.00     0.153 C 
HETATM   19  N2  UNK     1      19.707   2.219  21.425  1.00  0.00    -0.278 NA
HETATM   20  H12 UNK     1      20.528   2.122  22.032  1.00  0.00     0.189 HD
BRANCH  18  21
HETATM   21  N1  UNK     1      20.126  -0.089  21.145  1.00  0.00    -0.379 N 
HETATM   22  H10 UNK     1      21.086  -0.069  21.474  1.00  0.00     0.158 HD
HETATM   23  H11 UNK     1      19.705  -0.998  20.997  1.00  0.00     0.158 HD
ENDBRANCH  18  21
ENDBRANCH  17  18
ENDBRANCH  16  17
ENDBRANCH  14  16
ENDBRANCH  13  14
ENDBRANCH   8  13
TORSDOF 6
ENDMDL
