MODEL 1
REMARK VINA RESULT:     -10.5      0.000      0.000
REMARK  5 active torsions:
REMARK  status: ('A' for Active; 'I' for Inactive)
REMARK    1  A    between atoms: C18_25  and  O3_4 
REMARK       I    between atoms: C12_19  and  N2_7 
REMARK    2  A    between atoms: C6_13  and  N2_7 
REMARK    3  A    between atoms: C1_8  and  C2_9 
REMARK    4  A    between atoms: C2_9  and  C6_13 
REMARK    5  A    between atoms: C12_19  and  C13_20 
ROOT
HETATM    1  O2  UNK     1      17.908   2.454  28.635  1.00  0.00    -0.267 OA
HETATM    2  N2  UNK     1      19.009   3.817  30.173  1.00  0.00    -0.356 N 
HETATM    3  C12 UNK     1      18.538   2.615  29.679  1.00  0.00     0.257 C 
HETATM    4  H11 UNK     1      19.494   3.848  31.064  1.00  0.00     0.162 HD
ENDROOT
BRANCH   2   5
HETATM    5  C6  UNK     1      18.810   5.078  29.497  1.00  0.00     0.127 C 
BRANCH   5   6
HETATM    6  C2  UNK     1      19.653   6.202  30.092  1.00  0.00     0.061 C 
BRANCH   6   7
HETATM    7  C1  UNK     1      19.447   6.370  31.578  1.00  0.00    -0.022 A 
HETATM    8  C3  UNK     1      18.214   6.629  32.200  1.00  0.00     0.000 A 
HETATM    9  C5  UNK     1      18.482   6.708  33.568  1.00  0.00     0.043 A 
HETATM   10  C7  UNK     1      16.889   6.807  31.757  1.00  0.00     0.033 A 
HETATM   11  N1  UNK     1      19.833   6.501  33.729  1.00  0.00    -0.359 N 
HETATM   12  C9  UNK     1      17.486   6.958  34.520  1.00  0.00     0.031 A 
HETATM   13  C4  UNK     1      20.428   6.293  32.514  1.00  0.00     0.013 A 
HETATM   14  H5  UNK     1      20.313   6.502  34.620  1.00  0.00     0.166 HD
HETATM   15  C8  UNK     1      21.879   6.045  32.409  1.00  0.00     0.068 C 
HETATM   16  C11 UNK     1      16.179   7.131  34.057  1.00  0.00     0.021 A 
HETATM   17  C10 UNK     1      15.882   7.057  32.697  1.00  0.00     0.011 A 
HETATM   18 Br1  UNK     1      14.099   7.296  32.112  1.00  0.00    -0.051 Br
ENDBRANCH   6   7
ENDBRANCH   5   6
ENDBRANCH   2   5
BRANCH   3  19
HETATM   19  C13 UNK     1      18.867   1.473  30.542  1.00  0.00     0.108 A 
HETATM   20  C15 UNK     1      19.522   0.461  29.962  1.00  0.00     0.037 A 
HETATM   21  C14 UNK     1      19.891  -0.713  30.736  1.00  0.00     0.002 A 
HETATM   22  C16 UNK     1      19.553  -0.764  32.084  1.00  0.00     0.123 A 
HETATM   23  C19 UNK     1      20.574  -1.794  30.172  1.00  0.00     0.014 A 
HETATM   24  O1  UNK     1      18.865   0.306  32.690  1.00  0.00    -0.271 OA
HETATM   25  C18 UNK     1      19.877  -1.860  32.883  1.00  0.00     0.102 A 
HETATM   26  C17 UNK     1      18.497   1.442  31.975  1.00  0.00     0.304 A 
HETATM   27  O4  UNK     1      17.897   2.368  32.511  1.00  0.00    -0.259 OA
HETATM   28  C20 UNK     1      20.558  -2.932  32.311  1.00  0.00     0.040 A 
HETATM   29  C21 UNK     1      20.906  -2.900  30.959  1.00  0.00     0.004 A 
BRANCH  25  30
HETATM   30  O3  UNK     1      19.540  -1.895  34.199  1.00  0.00    -0.353 OA
HETATM   31  C22 UNK     1      20.518  -2.402  35.108  1.00  0.00     0.210 C 
ENDBRANCH  25  30
ENDBRANCH   3  19
TORSDOF 5
ENDMDL
MODEL 2
REMARK VINA RESULT:     -10.1      1.762      2.809
REMARK  5 active torsions:
REMARK  status: ('A' for Active; 'I' for Inactive)
REMARK    1  A    between atoms: C18_25  and  O3_4 
REMARK       I    between atoms: C12_19  and  N2_7 
REMARK    2  A    between atoms: C6_13  and  N2_7 
REMARK    3  A    between atoms: C1_8  and  C2_9 
REMARK    4  A    between atoms: C2_9  and  C6_13 
REMARK    5  A    between atoms: C12_19  and  C13_20 
ROOT
HETATM    1  O2  UNK     1      17.535   2.234  29.915  1.00  0.00    -0.267 OA
HETATM    2  N2  UNK     1      19.055   3.723  30.869  1.00  0.00    -0.356 N 
HETATM    3  C12 UNK     1      18.283   2.576  30.830  1.00  0.00     0.257 C 
HETATM    4  H11 UNK     1      19.618   3.931  31.688  1.00  0.00     0.162 HD
ENDROOT
BRANCH   2   5
HETATM    5  C6  UNK     1      19.078   4.693  29.800  1.00  0.00     0.127 C 
BRANCH   5   6
HETATM    6  C2  UNK     1      19.691   6.024  30.229  1.00  0.00     0.061 C 
BRANCH   6   7
HETATM    7  C1  UNK     1      19.489   6.320  31.695  1.00  0.00    -0.022 A 
HETATM    8  C3  UNK     1      18.256   6.618  32.299  1.00  0.00     0.000 A 
HETATM    9  C5  UNK     1      18.529   6.822  33.653  1.00  0.00     0.043 A 
HETATM   10  C7  UNK     1      16.926   6.740  31.848  1.00  0.00     0.033 A 
HETATM   11  N1  UNK     1      19.883   6.646  33.824  1.00  0.00    -0.359 N 
HETATM   12  C9  UNK     1      17.534   7.142  34.584  1.00  0.00     0.031 A 
HETATM   13  C4  UNK     1      20.475   6.339  32.628  1.00  0.00     0.013 A 
HETATM   14  H5  UNK     1      20.367   6.732  34.708  1.00  0.00     0.166 HD
HETATM   15  C8  UNK     1      21.928   6.100  32.538  1.00  0.00     0.068 C 
HETATM   16  C11 UNK     1      16.223   7.258  34.115  1.00  0.00     0.021 A 
HETATM   17  C10 UNK     1      15.920   7.060  32.769  1.00  0.00     0.011 A 
HETATM   18 Br1  UNK     1      14.132   7.224  32.175  1.00  0.00    -0.051 Br
ENDBRANCH   6   7
ENDBRANCH   5   6
ENDBRANCH   2   5
BRANCH   3  19
HETATM   19  C13 UNK     1      18.431   1.746  32.032  1.00  0.00     0.108 A 
HETATM   20  C15 UNK     1      18.037   2.298  33.185  1.00  0.00     0.037 A 
HETATM   21  C14 UNK     1      18.145   1.553  34.430  1.00  0.00     0.002 A 
HETATM   22  C16 UNK     1      18.662   0.262  34.398  1.00  0.00     0.123 A 
HETATM   23  C19 UNK     1      17.748   2.090  35.657  1.00  0.00     0.014 A 
HETATM   24  O1  UNK     1      19.074  -0.315  33.180  1.00  0.00    -0.271 OA
HETATM   25  C18 UNK     1      18.793  -0.506  35.554  1.00  0.00     0.102 A 
HETATM   26  C17 UNK     1      18.983   0.374  31.974  1.00  0.00     0.304 A 
HETATM   27  O4  UNK     1      19.345  -0.136  30.919  1.00  0.00    -0.259 OA
HETATM   28  C20 UNK     1      18.393   0.039  36.773  1.00  0.00     0.040 A 
HETATM   29  C21 UNK     1      17.872   1.332  36.825  1.00  0.00     0.004 A 
BRANCH  25  30
HETATM   30  O3  UNK     1      19.300  -1.766  35.508  1.00  0.00    -0.353 OA
HETATM   31  C22 UNK     1      19.323  -2.503  36.731  1.00  0.00     0.210 C 
ENDBRANCH  25  30
ENDBRANCH   3  19
TORSDOF 5
ENDMDL
MODEL 3
REMARK VINA RESULT:      -9.8      6.010     10.984
REMARK  5 active torsions:
REMARK  status: ('A' for Active; 'I' for Inactive)
REMARK    1  A    between atoms: C18_25  and  O3_4 
REMARK       I    between atoms: C12_19  and  N2_7 
REMARK    2  A    between atoms: C6_13  and  N2_7 
REMARK    3  A    between atoms: C1_8  and  C2_9 
REMARK    4  A    between atoms: C2_9  and  C6_13 
REMARK    5  A    between atoms: C12_19  and  C13_20 
ROOT
HETATM    1  O2  UNK     1      18.775  -1.398  36.058  1.00  0.00    -0.267 OA
HETATM    2  N2  UNK     1      19.753  -3.191  34.934  1.00  0.00    -0.356 N 
HETATM    3  C12 UNK     1      19.224  -1.918  35.038  1.00  0.00     0.257 C 
HETATM    4  H11 UNK     1      20.071  -3.540  34.035  1.00  0.00     0.162 HD
ENDROOT
BRANCH   2   5
HETATM    5  C6  UNK     1      19.846  -4.099  36.054  1.00  0.00     0.127 C 
BRANCH   5   6
HETATM    6  C2  UNK     1      19.974  -5.556  35.619  1.00  0.00     0.061 C 
BRANCH   6   7
HETATM    7  C1  UNK     1      19.583  -6.531  36.704  1.00  0.00    -0.022 A 
HETATM    8  C3  UNK     1      20.479  -7.181  37.570  1.00  0.00     0.000 A 
HETATM    9  C5  UNK     1      19.696  -7.982  38.403  1.00  0.00     0.043 A 
HETATM   10  C7  UNK     1      21.877  -7.183  37.744  1.00  0.00     0.033 A 
HETATM   11  N1  UNK     1      18.384  -7.798  38.027  1.00  0.00    -0.359 N 
HETATM   12  C9  UNK     1      20.243  -8.789  39.408  1.00  0.00     0.031 A 
HETATM   13  C4  UNK     1      18.311  -6.911  36.988  1.00  0.00     0.013 A 
HETATM   14  H5  UNK     1      17.593  -8.255  38.460  1.00  0.00     0.166 HD
HETATM   15  C8  UNK     1      17.011  -6.539  36.396  1.00  0.00     0.068 C 
HETATM   16  C11 UNK     1      21.632  -8.774  39.562  1.00  0.00     0.021 A 
HETATM   17  C10 UNK     1      22.439  -7.984  38.745  1.00  0.00     0.011 A 
HETATM   18 Br1  UNK     1      24.315  -7.993  38.988  1.00  0.00    -0.051 Br
ENDBRANCH   6   7
ENDBRANCH   5   6
ENDBRANCH   2   5
BRANCH   3  19
HETATM   19  C13 UNK     1      19.241  -1.187  33.765  1.00  0.00     0.108 A 
HETATM   20  C15 UNK     1      19.794  -1.822  32.725  1.00  0.00     0.037 A 
HETATM   21  C14 UNK     1      19.856  -1.177  31.422  1.00  0.00     0.002 A 
HETATM   22  C16 UNK     1      19.333   0.103  31.279  1.00  0.00     0.123 A 
HETATM   23  C19 UNK     1      20.426  -1.802  30.309  1.00  0.00     0.014 A 
HETATM   24  O1  UNK     1      18.751   0.766  32.377  1.00  0.00    -0.271 OA
HETATM   25  C18 UNK     1      19.362   0.776  30.058  1.00  0.00     0.102 A 
HETATM   26  C17 UNK     1      18.677   0.176  33.636  1.00  0.00     0.304 A 
HETATM   27  O4  UNK     1      18.169   0.761  34.587  1.00  0.00    -0.259 OA
HETATM   28  C20 UNK     1      19.932   0.145  28.954  1.00  0.00     0.040 A 
HETATM   29  C21 UNK     1      20.462  -1.140  29.078  1.00  0.00     0.004 A 
BRANCH  25  30
HETATM   30  O3  UNK     1      18.847   2.028  29.933  1.00  0.00    -0.353 OA
HETATM   31  C22 UNK     1      17.926   2.248  28.864  1.00  0.00     0.210 C 
ENDBRANCH  25  30
ENDBRANCH   3  19
TORSDOF 5
ENDMDL
MODEL 4
REMARK VINA RESULT:      -9.8      2.361      2.958
REMARK  5 active torsions:
REMARK  status: ('A' for Active; 'I' for Inactive)
REMARK    1  A    between atoms: C18_25  and  O3_4 
REMARK       I    between atoms: C12_19  and  N2_7 
REMARK    2  A    between atoms: C6_13  and  N2_7 
REMARK    3  A    between atoms: C1_8  and  C2_9 
REMARK    4  A    between atoms: C2_9  and  C6_13 
REMARK    5  A    between atoms: C12_19  and  C13_20 
ROOT
HETATM    1  O2  UNK     1      18.855   5.091  30.566  1.00  0.00    -0.267 OA
HETATM    2  N2  UNK     1      17.230   4.713  32.195  1.00  0.00    -0.356 N 
HETATM    3  C12 UNK     1      18.252   4.348  31.337  1.00  0.00     0.257 C 
HETATM    4  H11 UNK     1      16.773   4.014  32.772  1.00  0.00     0.162 HD
ENDROOT
BRANCH   2   5
HETATM    5  C6  UNK     1      16.730   6.065  32.292  1.00  0.00     0.127 C 
BRANCH   5   6
HETATM    6  C2  UNK     1      16.805   6.617  33.713  1.00  0.00     0.061 C 
BRANCH   6   7
HETATM    7  C1  UNK     1      17.872   7.671  33.880  1.00  0.00    -0.022 A 
HETATM    8  C3  UNK     1      17.638   9.055  33.961  1.00  0.00     0.000 A 
HETATM    9  C5  UNK     1      18.893   9.649  34.109  1.00  0.00     0.043 A 
HETATM   10  C7  UNK     1      16.496   9.879  33.924  1.00  0.00     0.033 A 
HETATM   11  N1  UNK     1      19.824   8.636  34.113  1.00  0.00    -0.359 N 
HETATM   12  C9  UNK     1      19.064  11.034  34.224  1.00  0.00     0.031 A 
HETATM   13  C4  UNK     1      19.203   7.423  33.974  1.00  0.00     0.013 A 
HETATM   14  H5  UNK     1      20.822   8.772  34.207  1.00  0.00     0.166 HD
HETATM   15  C8  UNK     1      19.981   6.170  33.948  1.00  0.00     0.068 C 
HETATM   16  C11 UNK     1      17.917  11.831  34.185  1.00  0.00     0.021 A 
HETATM   17  C10 UNK     1      16.652  11.266  34.038  1.00  0.00     0.011 A 
HETATM   18 Br1  UNK     1      15.124  12.382  33.992  1.00  0.00    -0.051 Br
ENDBRANCH   6   7
ENDBRANCH   5   6
ENDBRANCH   2   5
BRANCH   3  19
HETATM   19  C13 UNK     1      18.585   2.920  31.421  1.00  0.00     0.108 A 
HETATM   20  C15 UNK     1      19.060   2.357  30.305  1.00  0.00     0.037 A 
HETATM   21  C14 UNK     1      19.418   0.946  30.290  1.00  0.00     0.002 A 
HETATM   22  C16 UNK     1      19.258   0.200  31.452  1.00  0.00     0.123 A 
HETATM   23  C19 UNK     1      19.917   0.316  29.147  1.00  0.00     0.014 A 
HETATM   24  O1  UNK     1      18.758   0.799  32.625  1.00  0.00    -0.271 OA
HETATM   25  C18 UNK     1      19.581  -1.155  31.505  1.00  0.00     0.102 A 
HETATM   26  C17 UNK     1      18.406   2.145  32.669  1.00  0.00     0.304 A 
HETATM   27  O4  UNK     1      17.971   2.658  33.695  1.00  0.00    -0.259 OA
HETATM   28  C20 UNK     1      20.078  -1.775  30.361  1.00  0.00     0.040 A 
HETATM   29  C21 UNK     1      20.246  -1.042  29.185  1.00  0.00     0.004 A 
BRANCH  25  30
HETATM   30  O3  UNK     1      19.419  -1.873  32.648  1.00  0.00    -0.353 OA
HETATM   31  C22 UNK     1      20.583  -2.488  33.201  1.00  0.00     0.210 C 
ENDBRANCH  25  30
ENDBRANCH   3  19
TORSDOF 5
ENDMDL
MODEL 5
REMARK VINA RESULT:      -9.5      1.974      2.653
REMARK  5 active torsions:
REMARK  status: ('A' for Active; 'I' for Inactive)
REMARK    1  A    between atoms: C18_25  and  O3_4 
REMARK       I    between atoms: C12_19  and  N2_7 
REMARK    2  A    between atoms: C6_13  and  N2_7 
REMARK    3  A    between atoms: C1_8  and  C2_9 
REMARK    4  A    between atoms: C2_9  and  C6_13 
REMARK    5  A    between atoms: C12_19  and  C13_20 
ROOT
HETATM    1  O2  UNK     1      17.067   4.579  31.967  1.00  0.00    -0.267 OA
HETATM    2  N2  UNK     1      19.348   5.051  31.875  1.00  0.00    -0.356 N 
HETATM    3  C12 UNK     1      18.240   4.223  31.881  1.00  0.00     0.257 C 
HETATM    4  H11 UNK     1      20.282   4.655  31.831  1.00  0.00     0.162 HD
ENDROOT
BRANCH   2   5
HETATM    5  C6  UNK     1      19.256   6.489  31.972  1.00  0.00     0.127 C 
BRANCH   5   6
HETATM    6  C2  UNK     1      19.478   6.997  33.394  1.00  0.00     0.061 C 
BRANCH   6   7
HETATM    7  C1  UNK     1      18.772   8.302  33.670  1.00  0.00    -0.022 A 
HETATM    8  C3  UNK     1      17.401   8.540  33.471  1.00  0.00     0.000 A 
HETATM    9  C5  UNK     1      17.181   9.865  33.849  1.00  0.00     0.043 A 
HETATM   10  C7  UNK     1      16.312   7.775  33.009  1.00  0.00     0.033 A 
HETATM   11  N1  UNK     1      18.392  10.378  34.255  1.00  0.00    -0.359 N 
HETATM   12  C9  UNK     1      15.919  10.469  33.789  1.00  0.00     0.031 A 
HETATM   13  C4  UNK     1      19.369   9.424  34.147  1.00  0.00     0.013 A 
HETATM   14  H5  UNK     1      18.535  11.323  34.585  1.00  0.00     0.166 HD
HETATM   15  C8  UNK     1      20.765   9.720  34.521  1.00  0.00     0.068 C 
HETATM   16  C11 UNK     1      14.853   9.692  33.328  1.00  0.00     0.021 A 
HETATM   17  C10 UNK     1      15.043   8.365  32.943  1.00  0.00     0.011 A 
HETATM   18 Br1  UNK     1      13.573   7.348  32.325  1.00  0.00    -0.051 Br
ENDBRANCH   6   7
ENDBRANCH   5   6
ENDBRANCH   2   5
BRANCH   3  19
HETATM   19  C13 UNK     1      18.590   2.801  31.769  1.00  0.00     0.108 A 
HETATM   20  C15 UNK     1      19.011   2.388  30.568  1.00  0.00     0.037 A 
HETATM   21  C14 UNK     1      19.379   0.996  30.359  1.00  0.00     0.002 A 
HETATM   22  C16 UNK     1      19.287   0.108  31.425  1.00  0.00     0.123 A 
HETATM   23  C19 UNK     1      19.823   0.520  29.122  1.00  0.00     0.014 A 
HETATM   24  O1  UNK     1      18.844   0.549  32.688  1.00  0.00    -0.271 OA
HETATM   25  C18 UNK     1      19.624  -1.238  31.292  1.00  0.00     0.102 A 
HETATM   26  C17 UNK     1      18.483   1.874  32.918  1.00  0.00     0.304 A 
HETATM   27  O4  UNK     1      18.098   2.249  34.020  1.00  0.00    -0.259 OA
HETATM   28  C20 UNK     1      20.066  -1.703  30.055  1.00  0.00     0.040 A 
HETATM   29  C21 UNK     1      20.165  -0.827  28.973  1.00  0.00     0.004 A 
BRANCH  25  30
HETATM   30  O3  UNK     1      19.528  -2.094  32.343  1.00  0.00    -0.353 OA
HETATM   31  C22 UNK     1      20.750  -2.546  32.928  1.00  0.00     0.210 C 
ENDBRANCH  25  30
ENDBRANCH   3  19
TORSDOF 5
ENDMDL
MODEL 6
REMARK VINA RESULT:      -9.4      5.448      9.150
REMARK  5 active torsions:
REMARK  status: ('A' for Active; 'I' for Inactive)
REMARK    1  A    between atoms: C18_25  and  O3_4 
REMARK       I    between atoms: C12_19  and  N2_7 
REMARK    2  A    between atoms: C6_13  and  N2_7 
REMARK    3  A    between atoms: C1_8  and  C2_9 
REMARK    4  A    between atoms: C2_9  and  C6_13 
REMARK    5  A    between atoms: C12_19  and  C13_20 
ROOT
HETATM    1  O2  UNK     1      19.728  -2.448  37.135  1.00  0.00    -0.267 OA
HETATM    2  N2  UNK     1      19.824  -3.540  35.077  1.00  0.00    -0.356 N 
HETATM    3  C12 UNK     1      19.829  -3.469  36.458  1.00  0.00     0.257 C 
HETATM    4  H11 UNK     1      19.946  -4.433  34.611  1.00  0.00     0.162 HD
ENDROOT
BRANCH   2   5
HETATM    5  C6  UNK     1      19.692  -2.377  34.231  1.00  0.00     0.127 C 
BRANCH   5   6
HETATM    6  C2  UNK     1      20.971  -2.065  33.459  1.00  0.00     0.061 C 
BRANCH   6   7
HETATM    7  C1  UNK     1      20.800  -2.184  31.964  1.00  0.00    -0.022 A 
HETATM    8  C3  UNK     1      20.279  -1.184  31.126  1.00  0.00     0.000 A 
HETATM    9  C5  UNK     1      20.300  -1.713  29.834  1.00  0.00     0.043 A 
HETATM   10  C7  UNK     1      19.786   0.123  31.317  1.00  0.00     0.033 A 
HETATM   11  N1  UNK     1      20.820  -2.984  29.925  1.00  0.00    -0.359 N 
HETATM   12  C9  UNK     1      19.852  -0.998  28.717  1.00  0.00     0.031 A 
HETATM   13  C4  UNK     1      21.127  -3.277  31.227  1.00  0.00     0.013 A 
HETATM   14  H5  UNK     1      20.953  -3.608  29.141  1.00  0.00     0.166 HD
HETATM   15  C8  UNK     1      21.703  -4.584  31.597  1.00  0.00     0.068 C 
HETATM   16  C11 UNK     1      19.368   0.295  28.930  1.00  0.00     0.021 A 
HETATM   17  C10 UNK     1      19.335   0.850  30.208  1.00  0.00     0.011 A 
HETATM   18 Br1  UNK     1      18.672   2.605  30.453  1.00  0.00    -0.051 Br
ENDBRANCH   6   7
ENDBRANCH   5   6
ENDBRANCH   2   5
BRANCH   3  19
HETATM   19  C13 UNK     1      19.972  -4.784  37.097  1.00  0.00     0.108 A 
HETATM   20  C15 UNK     1      21.122  -5.006  37.744  1.00  0.00     0.037 A 
HETATM   21  C14 UNK     1      21.356  -6.279  38.408  1.00  0.00     0.002 A 
HETATM   22  C16 UNK     1      20.367  -7.256  38.357  1.00  0.00     0.123 A 
HETATM   23  C19 UNK     1      22.541  -6.555  39.095  1.00  0.00     0.014 A 
HETATM   24  O1  UNK     1      19.158  -7.016  37.675  1.00  0.00    -0.271 OA
HETATM   25  C18 UNK     1      20.528  -8.497  38.971  1.00  0.00     0.102 A 
HETATM   26  C17 UNK     1      18.906  -5.809  37.029  1.00  0.00     0.304 A 
HETATM   27  O4  UNK     1      17.851  -5.609  36.437  1.00  0.00    -0.259 OA
HETATM   28  C20 UNK     1      21.714  -8.762  39.654  1.00  0.00     0.040 A 
HETATM   29  C21 UNK     1      22.717  -7.795  39.716  1.00  0.00     0.004 A 
BRANCH  25  30
HETATM   30  O3  UNK     1      19.554  -9.442  38.913  1.00  0.00    -0.353 OA
HETATM   31  C22 UNK     1      19.737 -10.510  37.983  1.00  0.00     0.210 C 
ENDBRANCH  25  30
ENDBRANCH   3  19
TORSDOF 5
ENDMDL
MODEL 7
REMARK VINA RESULT:      -9.3      5.610      8.999
REMARK  5 active torsions:
REMARK  status: ('A' for Active; 'I' for Inactive)
REMARK    1  A    between atoms: C18_25  and  O3_4 
REMARK       I    between atoms: C12_19  and  N2_7 
REMARK    2  A    between atoms: C6_13  and  N2_7 
REMARK    3  A    between atoms: C1_8  and  C2_9 
REMARK    4  A    between atoms: C2_9  and  C6_13 
REMARK    5  A    between atoms: C12_19  and  C13_20 
ROOT
HETATM    1  O2  UNK     1      20.378  -3.637  35.482  1.00  0.00    -0.267 OA
HETATM    2  N2  UNK     1      18.994  -2.980  37.239  1.00  0.00    -0.356 N 
HETATM    3  C12 UNK     1      19.797  -3.864  36.541  1.00  0.00     0.257 C 
HETATM    4  H11 UNK     1      18.532  -3.276  38.093  1.00  0.00     0.162 HD
ENDROOT
BRANCH   2   5
HETATM    5  C6  UNK     1      18.732  -1.632  36.791  1.00  0.00     0.127 C 
BRANCH   5   6
HETATM    6  C2  UNK     1      17.671  -1.575  35.695  1.00  0.00     0.061 C 
BRANCH   6   7
HETATM    7  C1  UNK     1      17.810  -0.364  34.805  1.00  0.00    -0.022 A 
HETATM    8  C3  UNK     1      18.422  -0.354  33.540  1.00  0.00     0.000 A 
HETATM    9  C5  UNK     1      18.329   0.960  33.077  1.00  0.00     0.043 A 
HETATM   10  C7  UNK     1      19.051  -1.317  32.727  1.00  0.00     0.033 A 
HETATM   11  N1  UNK     1      17.681   1.688  34.049  1.00  0.00    -0.359 N 
HETATM   12  C9  UNK     1      18.835   1.361  31.835  1.00  0.00     0.031 A 
HETATM   13  C4  UNK     1      17.361   0.881  35.108  1.00  0.00     0.013 A 
HETATM   14  H5  UNK     1      17.473   2.675  33.985  1.00  0.00     0.166 HD
HETATM   15  C8  UNK     1      16.657   1.419  36.289  1.00  0.00     0.068 C 
HETATM   16  C11 UNK     1      19.454   0.389  31.046  1.00  0.00     0.021 A 
HETATM   17  C10 UNK     1      19.561  -0.931  31.481  1.00  0.00     0.011 A 
HETATM   18 Br1  UNK     1      20.406  -2.217  30.381  1.00  0.00    -0.051 Br
ENDBRANCH   6   7
ENDBRANCH   5   6
ENDBRANCH   2   5
BRANCH   3  19
HETATM   19  C13 UNK     1      19.914  -5.172  37.199  1.00  0.00     0.108 A 
HETATM   20  C15 UNK     1      21.035  -5.385  37.897  1.00  0.00     0.037 A 
HETATM   21  C14 UNK     1      21.242  -6.651  38.583  1.00  0.00     0.002 A 
HETATM   22  C16 UNK     1      20.257  -7.629  38.501  1.00  0.00     0.123 A 
HETATM   23  C19 UNK     1      22.397  -6.918  39.323  1.00  0.00     0.014 A 
HETATM   24  O1  UNK     1      19.078  -7.398  37.765  1.00  0.00    -0.271 OA
HETATM   25  C18 UNK     1      20.393  -8.864  39.134  1.00  0.00     0.102 A 
HETATM   26  C17 UNK     1      18.852  -6.198  37.097  1.00  0.00     0.304 A 
HETATM   27  O4  UNK     1      17.823  -6.006  36.459  1.00  0.00    -0.259 OA
HETATM   28  C20 UNK     1      21.548  -9.121  39.870  1.00  0.00     0.040 A 
HETATM   29  C21 UNK     1      22.548  -8.151  39.964  1.00  0.00     0.004 A 
BRANCH  25  30
HETATM   30  O3  UNK     1      19.422  -9.811  39.045  1.00  0.00    -0.353 OA
HETATM   31  C22 UNK     1      19.620 -10.858  38.095  1.00  0.00     0.210 C 
ENDBRANCH  25  30
ENDBRANCH   3  19
TORSDOF 5
ENDMDL
MODEL 8
REMARK VINA RESULT:      -9.1      5.356     10.260
REMARK  5 active torsions:
REMARK  status: ('A' for Active; 'I' for Inactive)
REMARK    1  A    between atoms: C18_25  and  O3_4 
REMARK       I    between atoms: C12_19  and  N2_7 
REMARK    2  A    between atoms: C6_13  and  N2_7 
REMARK    3  A    between atoms: C1_8  and  C2_9 
REMARK    4  A    between atoms: C2_9  and  C6_13 
REMARK    5  A    between atoms: C12_19  and  C13_20 
ROOT
HETATM    1  O2  UNK     1      18.038  -1.171  36.292  1.00  0.00    -0.267 OA
HETATM    2  N2  UNK     1      19.606  -2.771  35.647  1.00  0.00    -0.356 N 
HETATM    3  C12 UNK     1      18.807  -1.657  35.465  1.00  0.00     0.257 C 
HETATM    4  H11 UNK     1      20.186  -3.113  34.887  1.00  0.00     0.162 HD
ENDROOT
BRANCH   2   5
HETATM    5  C6  UNK     1      19.635  -3.526  36.878  1.00  0.00     0.127 C 
BRANCH   5   6
HETATM    6  C2  UNK     1      21.019  -4.089  37.188  1.00  0.00     0.061 C 
BRANCH   6   7
HETATM    7  C1  UNK     1      20.995  -5.560  37.524  1.00  0.00    -0.022 A 
HETATM    8  C3  UNK     1      20.024  -6.476  37.083  1.00  0.00     0.000 A 
HETATM    9  C5  UNK     1      20.384  -7.711  37.625  1.00  0.00     0.043 A 
HETATM   10  C7  UNK     1      18.868  -6.398  36.280  1.00  0.00     0.033 A 
HETATM   11  N1  UNK     1      21.532  -7.513  38.358  1.00  0.00    -0.359 N 
HETATM   12  C9  UNK     1      19.644  -8.878  37.403  1.00  0.00     0.031 A 
HETATM   13  C4  UNK     1      21.910  -6.198  38.298  1.00  0.00     0.013 A 
HETATM   14  H5  UNK     1      22.023  -8.237  38.865  1.00  0.00     0.166 HD
HETATM   15  C8  UNK     1      23.115  -5.720  39.002  1.00  0.00     0.068 C 
HETATM   16  C11 UNK     1      18.503  -8.777  36.603  1.00  0.00     0.021 A 
HETATM   17  C10 UNK     1      18.119  -7.557  36.049  1.00  0.00     0.011 A 
HETATM   18 Br1  UNK     1      16.566  -7.464  34.971  1.00  0.00    -0.051 Br
ENDBRANCH   6   7
ENDBRANCH   5   6
ENDBRANCH   2   5
BRANCH   3  19
HETATM   19  C13 UNK     1      18.954  -1.059  34.132  1.00  0.00     0.108 A 
HETATM   20  C15 UNK     1      19.535  -1.825  33.201  1.00  0.00     0.037 A 
HETATM   21  C14 UNK     1      19.725  -1.320  31.850  1.00  0.00     0.002 A 
HETATM   22  C16 UNK     1      19.294  -0.033  31.546  1.00  0.00     0.123 A 
HETATM   23  C19 UNK     1      20.328  -2.084  30.847  1.00  0.00     0.014 A 
HETATM   24  O1  UNK     1      18.682   0.768  32.530  1.00  0.00    -0.271 OA
HETATM   25  C18 UNK     1      19.447   0.511  30.272  1.00  0.00     0.102 A 
HETATM   26  C17 UNK     1      18.488   0.312  33.831  1.00  0.00     0.304 A 
HETATM   27  O4  UNK     1      17.955   1.017  34.681  1.00  0.00    -0.259 OA
HETATM   28  C20 UNK     1      20.048  -0.258  29.278  1.00  0.00     0.040 A 
HETATM   29  C21 UNK     1      20.488  -1.552  29.564  1.00  0.00     0.004 A 
BRANCH  25  30
HETATM   30  O3  UNK     1      19.021   1.770  29.989  1.00  0.00    -0.353 OA
HETATM   31  C22 UNK     1      17.975   1.903  29.026  1.00  0.00     0.210 C 
ENDBRANCH  25  30
ENDBRANCH   3  19
TORSDOF 5
ENDMDL
MODEL 9
REMARK VINA RESULT:      -9.0     14.691     18.258
REMARK  5 active torsions:
REMARK  status: ('A' for Active; 'I' for Inactive)
REMARK    1  A    between atoms: C18_25  and  O3_4 
REMARK       I    between atoms: C12_19  and  N2_7 
REMARK    2  A    between atoms: C6_13  and  N2_7 
REMARK    3  A    between atoms: C1_8  and  C2_9 
REMARK    4  A    between atoms: C2_9  and  C6_13 
REMARK    5  A    between atoms: C12_19  and  C13_20 
ROOT
HETATM    1  O2  UNK     1      17.779  -2.234  15.760  1.00  0.00    -0.267 OA
HETATM    2  N2  UNK     1      19.836  -1.669  14.819  1.00  0.00    -0.356 N 
HETATM    3  C12 UNK     1      18.794  -1.541  15.719  1.00  0.00     0.257 C 
HETATM    4  H11 UNK     1      20.619  -1.024  14.849  1.00  0.00     0.162 HD
ENDROOT
BRANCH   2   5
HETATM    5  C6  UNK     1      19.858  -2.670  13.778  1.00  0.00     0.127 C 
BRANCH   5   6
HETATM    6  C2  UNK     1      20.289  -4.041  14.292  1.00  0.00     0.061 C 
BRANCH   6   7
HETATM    7  C1  UNK     1      19.446  -5.167  13.745  1.00  0.00    -0.022 A 
HETATM    8  C3  UNK     1      18.393  -5.797  14.429  1.00  0.00     0.000 A 
HETATM    9  C5  UNK     1      17.896  -6.771  13.561  1.00  0.00     0.043 A 
HETATM   10  C7  UNK     1      17.797  -5.652  15.698  1.00  0.00     0.033 A 
HETATM   11  N1  UNK     1      18.644  -6.704  12.407  1.00  0.00    -0.359 N 
HETATM   12  C9  UNK     1      16.829  -7.611  13.898  1.00  0.00     0.031 A 
HETATM   13  C4  UNK     1      19.593  -5.724  12.515  1.00  0.00     0.013 A 
HETATM   14  H5  UNK     1      18.507  -7.296  11.598  1.00  0.00     0.166 HD
HETATM   15  C8  UNK     1      20.530  -5.446  11.409  1.00  0.00     0.068 C 
HETATM   16  C11 UNK     1      16.254  -7.449  15.161  1.00  0.00     0.021 A 
HETATM   17  C10 UNK     1      16.728  -6.485  16.049  1.00  0.00     0.011 A 
HETATM   18 Br1  UNK     1      15.921  -6.298  17.750  1.00  0.00    -0.051 Br
ENDBRANCH   6   7
ENDBRANCH   5   6
ENDBRANCH   2   5
BRANCH   3  19
HETATM   19  C13 UNK     1      19.003  -0.453  16.683  1.00  0.00     0.108 A 
HETATM   20  C15 UNK     1      18.993  -0.798  17.976  1.00  0.00     0.037 A 
HETATM   21  C14 UNK     1      19.191   0.212  19.005  1.00  0.00     0.002 A 
HETATM   22  C16 UNK     1      19.389   1.533  18.622  1.00  0.00     0.123 A 
HETATM   23  C19 UNK     1      19.187  -0.102  20.367  1.00  0.00     0.014 A 
HETATM   24  O1  UNK     1      19.399   1.890  17.259  1.00  0.00    -0.271 OA
HETATM   25  C18 UNK     1      19.584   2.548  19.558  1.00  0.00     0.102 A 
HETATM   26  C17 UNK     1      19.212   0.947  16.252  1.00  0.00     0.304 A 
HETATM   27  O4  UNK     1      19.222   1.267  15.068  1.00  0.00    -0.259 OA
HETATM   28  C20 UNK     1      19.579   2.226  20.913  1.00  0.00     0.040 A 
HETATM   29  C21 UNK     1      19.382   0.904  21.317  1.00  0.00     0.004 A 
BRANCH  25  30
HETATM   30  O3  UNK     1      19.777   3.836  19.169  1.00  0.00    -0.353 OA
HETATM   31  C22 UNK     1      20.997   4.136  18.491  1.00  0.00     0.210 C 
ENDBRANCH  25  30
ENDBRANCH   3  19
TORSDOF 5
ENDMDL
MODEL 10
REMARK VINA RESULT:      -8.9     23.112     24.915
REMARK  5 active torsions:
REMARK  status: ('A' for Active; 'I' for Inactive)
REMARK    1  A    between atoms: C18_25  and  O3_4 
REMARK       I    between atoms: C12_19  and  N2_7 
REMARK    2  A    between atoms: C6_13  and  N2_7 
REMARK    3  A    between atoms: C1_8  and  C2_9 
REMARK    4  A    between atoms: C2_9  and  C6_13 
REMARK    5  A    between atoms: C12_19  and  C13_20 
ROOT
HETATM    1  O2  UNK     1       8.259   8.455   9.600  1.00  0.00    -0.267 OA
HETATM    2  N2  UNK     1      10.122   7.165   9.049  1.00  0.00    -0.356 N 
HETATM    3  C12 UNK     1       8.795   7.370   9.381  1.00  0.00     0.257 C 
HETATM    4  H11 UNK     1      10.476   6.223   8.917  1.00  0.00     0.162 HD
ENDROOT
BRANCH   2   5
HETATM    5  C6  UNK     1      11.075   8.243   8.915  1.00  0.00     0.127 C 
BRANCH   5   6
HETATM    6  C2  UNK     1      12.175   7.932   7.903  1.00  0.00     0.061 C 
BRANCH   6   7
HETATM    7  C1  UNK     1      13.302   7.119   8.491  1.00  0.00    -0.022 A 
HETATM    8  C3  UNK     1      14.460   7.650   9.084  1.00  0.00     0.000 A 
HETATM    9  C5  UNK     1      15.225   6.554   9.486  1.00  0.00     0.043 A 
HETATM   10  C7  UNK     1      14.952   8.948   9.329  1.00  0.00     0.033 A 
HETATM   11  N1  UNK     1      14.527   5.421   9.133  1.00  0.00    -0.359 N 
HETATM   12  C9  UNK     1      16.464   6.690  10.123  1.00  0.00     0.031 A 
HETATM   13  C4  UNK     1      13.349   5.762   8.524  1.00  0.00     0.013 A 
HETATM   14  H5  UNK     1      14.842   4.475   9.303  1.00  0.00     0.166 HD
HETATM   15  C8  UNK     1      12.411   4.727   8.048  1.00  0.00     0.068 C 
HETATM   16  C11 UNK     1      16.932   7.985  10.356  1.00  0.00     0.021 A 
HETATM   17  C10 UNK     1      16.190   9.099   9.966  1.00  0.00     0.011 A 
HETATM   18 Br1  UNK     1      16.859  10.837  10.300  1.00  0.00    -0.051 Br
ENDBRANCH   6   7
ENDBRANCH   5   6
ENDBRANCH   2   5
BRANCH   3  19
HETATM   19  C13 UNK     1       8.026   6.121   9.454  1.00  0.00     0.108 A 
HETATM   20  C15 UNK     1       7.437   5.857  10.626  1.00  0.00     0.037 A 
HETATM   21  C14 UNK     1       6.653   4.643  10.795  1.00  0.00     0.002 A 
HETATM   22  C16 UNK     1       6.528   3.768   9.721  1.00  0.00     0.123 A 
HETATM   23  C19 UNK     1       6.022   4.325  12.000  1.00  0.00     0.014 A 
HETATM   24  O1  UNK     1       7.149   4.053   8.489  1.00  0.00    -0.271 OA
HETATM   25  C18 UNK     1       5.792   2.588   9.817  1.00  0.00     0.102 A 
HETATM   26  C17 UNK     1       7.906   5.205   8.297  1.00  0.00     0.304 A 
HETATM   27  O4  UNK     1       8.444   5.445   7.222  1.00  0.00    -0.259 OA
HETATM   28  C20 UNK     1       5.166   2.280  11.023  1.00  0.00     0.040 A 
HETATM   29  C21 UNK     1       5.280   3.146  12.112  1.00  0.00     0.004 A 
BRANCH  25  30
HETATM   30  O3  UNK     1       5.678   1.742   8.759  1.00  0.00    -0.353 OA
HETATM   31  C22 UNK     1       4.956   0.528   8.971  1.00  0.00     0.210 C 
ENDBRANCH  25  30
ENDBRANCH   3  19
TORSDOF 5
ENDMDL
