MODEL 1
REMARK VINA RESULT:      -8.0      0.000      0.000
REMARK  6 active torsions:
REMARK  status: ('A' for Active; 'I' for Inactive)
REMARK    1  A    between atoms: C2_9  and  O1_5 
REMARK    2  A    between atoms: C4_11  and  O1_5 
REMARK    3  A    between atoms: C3_10  and  O2_6 
REMARK    4  A    between atoms: C1_8  and  C9_16 
REMARK    5  A    between atoms: C4_11  and  C8_15 
REMARK    6  A    between atoms: C10_17  and  C11_18 
ROOT
HETATM    1  N1  UNK     1      29.316  -6.502  34.578  1.00  0.00    -0.191 NA
HETATM    2  C9  UNK     1      30.813  -7.646  37.467  1.00  0.00     0.036 C 
HETATM    3  C10 UNK     1      31.187  -7.205  36.238  1.00  0.00     0.057 C 
HETATM    4  C23 UNK     1      30.146  -6.818  35.326  1.00  0.00     0.100 C 
ENDROOT
BRANCH   3   5
HETATM    5  C11 UNK     1      32.576  -7.098  35.806  1.00  0.00     0.006 A 
HETATM    6  C14 UNK     1      33.329  -5.940  36.004  1.00  0.00     0.047 A 
HETATM    7 Cl1  UNK     1      32.667  -4.543  36.777  1.00  0.00    -0.083 Cl
HETATM    8  C19 UNK     1      34.654  -5.888  35.573  1.00  0.00     0.048 A 
HETATM    9  C21 UNK     1      35.227  -6.994  34.944  1.00  0.00     0.035 A 
HETATM   10  C20 UNK     1      34.474  -8.151  34.746  1.00  0.00     0.025 A 
HETATM   11 Cl2  UNK     1      36.863  -6.931  34.412  1.00  0.00    -0.084 Cl
HETATM   12  C15 UNK     1      33.148  -8.203  35.177  1.00  0.00     0.016 A 
ENDBRANCH   3   5
BRANCH   2  13
HETATM   13  C1  UNK     1      29.431  -7.766  37.952  1.00  0.00    -0.015 A 
HETATM   14  C5  UNK     1      28.791  -8.982  37.748  1.00  0.00     0.052 A 
HETATM   15  C3  UNK     1      27.478  -9.153  38.187  1.00  0.00     0.102 A 
HETATM   16  C2  UNK     1      26.816  -8.105  38.828  1.00  0.00     0.103 A 
HETATM   17  C7  UNK     1      27.466  -6.887  39.028  1.00  0.00     0.059 A 
HETATM   18  C6  UNK     1      28.780  -6.717  38.589  1.00  0.00     0.024 A 
HETATM   19 Br1  UNK     1      29.607  -5.034  38.894  1.00  0.00    -0.050 Br
BRANCH  15  20
HETATM   20  O2  UNK     1      26.853 -10.346  37.986  1.00  0.00    -0.353 OA
HETATM   21  C22 UNK     1      26.164 -10.516  36.750  1.00  0.00     0.210 C 
ENDBRANCH  15  20
BRANCH  16  22
HETATM   22  O1  UNK     1      25.533  -8.259  39.262  1.00  0.00    -0.344 OA
BRANCH  22  23
HETATM   23  C4  UNK     1      24.562  -7.350  38.748  1.00  0.00     0.214 C 
BRANCH  23  24
HETATM   24  C8  UNK     1      23.259  -8.073  38.575  1.00  0.00    -0.034 A 
HETATM   25  C12 UNK     1      22.392  -8.198  39.657  1.00  0.00     0.011 A 
HETATM   26  C16 UNK     1      21.181  -8.871  39.496  1.00  0.00     0.019 A 
HETATM   27  C18 UNK     1      20.843  -9.414  38.257  1.00  0.00     0.011 A 
HETATM   28 Br2  UNK     1      19.203 -10.326  38.041  1.00  0.00    -0.051 Br
HETATM   29  C17 UNK     1      21.717  -9.284  37.177  1.00  0.00     0.019 A 
HETATM   30  C13 UNK     1      22.928  -8.611  37.337  1.00  0.00     0.011 A 
ENDBRANCH  23  24
ENDBRANCH  22  23
ENDBRANCH  16  22
ENDBRANCH   2  13
TORSDOF 6
ENDMDL
MODEL 2
REMARK VINA RESULT:      -7.9      4.293      9.484
REMARK  6 active torsions:
REMARK  status: ('A' for Active; 'I' for Inactive)
REMARK    1  A    between atoms: C2_9  and  O1_5 
REMARK    2  A    between atoms: C4_11  and  O1_5 
REMARK    3  A    between atoms: C3_10  and  O2_6 
REMARK    4  A    between atoms: C1_8  and  C9_16 
REMARK    5  A    between atoms: C4_11  and  C8_15 
REMARK    6  A    between atoms: C10_17  and  C11_18 
ROOT
HETATM    1  N1  UNK     1      27.277 -10.009  39.923  1.00  0.00    -0.191 NA
HETATM    2  C9  UNK     1      27.349  -8.379  36.884  1.00  0.00     0.036 C 
HETATM    3  C10 UNK     1      26.529  -9.224  37.561  1.00  0.00     0.057 C 
HETATM    4  C23 UNK     1      26.950  -9.654  38.867  1.00  0.00     0.100 C 
ENDROOT
BRANCH   3   5
HETATM    5  C11 UNK     1      25.255  -9.705  37.041  1.00  0.00     0.006 A 
HETATM    6  C14 UNK     1      24.051  -9.051  37.302  1.00  0.00     0.047 A 
HETATM    7 Cl1  UNK     1      23.981  -7.618  38.267  1.00  0.00    -0.083 Cl
HETATM    8  C19 UNK     1      22.858  -9.550  36.778  1.00  0.00     0.048 A 
HETATM    9  C21 UNK     1      22.870 -10.704  35.994  1.00  0.00     0.035 A 
HETATM   10  C20 UNK     1      24.073 -11.358  35.734  1.00  0.00     0.025 A 
HETATM   11 Cl2  UNK     1      21.398 -11.321  35.349  1.00  0.00    -0.084 Cl
HETATM   12  C15 UNK     1      25.266 -10.858  36.257  1.00  0.00     0.016 A 
ENDBRANCH   3   5
BRANCH   2  13
HETATM   13  C1  UNK     1      28.637  -7.862  37.367  1.00  0.00    -0.015 A 
HETATM   14  C5  UNK     1      29.773  -8.598  37.055  1.00  0.00     0.052 A 
HETATM   15  C3  UNK     1      31.023  -8.155  37.487  1.00  0.00     0.102 A 
HETATM   16  C2  UNK     1      31.126  -6.978  38.229  1.00  0.00     0.103 A 
HETATM   17  C7  UNK     1      29.980  -6.245  38.539  1.00  0.00     0.059 A 
HETATM   18  C6  UNK     1      28.730  -6.689  38.105  1.00  0.00     0.024 A 
HETATM   19 Br1  UNK     1      27.210  -5.644  38.561  1.00  0.00    -0.050 Br
BRANCH  15  20
HETATM   20  O2  UNK     1      32.135  -8.878  37.179  1.00  0.00    -0.353 OA
HETATM   21  C22 UNK     1      32.456  -9.017  35.797  1.00  0.00     0.210 C 
ENDBRANCH  15  20
BRANCH  16  22
HETATM   22  O1  UNK     1      32.341  -6.533  38.658  1.00  0.00    -0.344 OA
BRANCH  22  23
HETATM   23  C4  UNK     1      32.804  -5.296  38.123  1.00  0.00     0.214 C 
BRANCH  23  24
HETATM   24  C8  UNK     1      33.515  -5.558  36.827  1.00  0.00    -0.034 A 
HETATM   25  C12 UNK     1      34.720  -6.252  36.832  1.00  0.00     0.011 A 
HETATM   26  C16 UNK     1      35.381  -6.495  35.628  1.00  0.00     0.019 A 
HETATM   27  C18 UNK     1      34.834  -6.043  34.427  1.00  0.00     0.011 A 
HETATM   28 Br2  UNK     1      35.730  -6.371  32.797  1.00  0.00    -0.051 Br
HETATM   29  C17 UNK     1      33.624  -5.348  34.430  1.00  0.00     0.019 A 
HETATM   30  C13 UNK     1      32.963  -5.105  35.634  1.00  0.00     0.011 A 
ENDBRANCH  23  24
ENDBRANCH  22  23
ENDBRANCH  16  22
ENDBRANCH   2  13
TORSDOF 6
ENDMDL
MODEL 3
REMARK VINA RESULT:      -7.9     10.938     13.882
REMARK  6 active torsions:
REMARK  status: ('A' for Active; 'I' for Inactive)
REMARK    1  A    between atoms: C2_9  and  O1_5 
REMARK    2  A    between atoms: C4_11  and  O1_5 
REMARK    3  A    between atoms: C3_10  and  O2_6 
REMARK    4  A    between atoms: C1_8  and  C9_16 
REMARK    5  A    between atoms: C4_11  and  C8_15 
REMARK    6  A    between atoms: C10_17  and  C11_18 
ROOT
HETATM    1  N1  UNK     1      20.118   2.714  36.430  1.00  0.00    -0.191 NA
HETATM    2  C9  UNK     1      17.911   1.350  34.156  1.00  0.00     0.036 C 
HETATM    3  C10 UNK     1      18.464   2.560  34.431  1.00  0.00     0.057 C 
HETATM    4  C23 UNK     1      19.377   2.637  35.538  1.00  0.00     0.100 C 
ENDROOT
BRANCH   3   5
HETATM    5  C11 UNK     1      18.187   3.768  33.664  1.00  0.00     0.006 A 
HETATM    6  C14 UNK     1      18.196   3.782  32.269  1.00  0.00     0.047 A 
HETATM    7 Cl1  UNK     1      18.541   2.362  31.345  1.00  0.00    -0.083 Cl
HETATM    8  C19 UNK     1      17.923   4.964  31.581  1.00  0.00     0.048 A 
HETATM    9  C21 UNK     1      17.640   6.133  32.289  1.00  0.00     0.035 A 
HETATM   10  C20 UNK     1      17.631   6.119  33.683  1.00  0.00     0.025 A 
HETATM   11 Cl2  UNK     1      17.302   7.592  31.441  1.00  0.00    -0.084 Cl
HETATM   12  C15 UNK     1      17.904   4.937  34.371  1.00  0.00     0.016 A 
ENDBRANCH   3   5
BRANCH   2  13
HETATM   13  C1  UNK     1      18.163   0.104  34.893  1.00  0.00    -0.015 A 
HETATM   14  C5  UNK     1      19.112  -0.764  34.366  1.00  0.00     0.052 A 
HETATM   15  C3  UNK     1      19.392  -1.962  35.023  1.00  0.00     0.102 A 
HETATM   16  C2  UNK     1      18.720  -2.283  36.203  1.00  0.00     0.103 A 
HETATM   17  C7  UNK     1      17.769  -1.406  36.725  1.00  0.00     0.059 A 
HETATM   18  C6  UNK     1      17.490  -0.208  36.067  1.00  0.00     0.024 A 
HETATM   19 Br1  UNK     1      16.183   0.941  36.832  1.00  0.00    -0.050 Br
BRANCH  15  20
HETATM   20  O2  UNK     1      20.323  -2.810  34.504  1.00  0.00    -0.353 OA
HETATM   21  C22 UNK     1      20.694  -2.611  33.142  1.00  0.00     0.210 C 
ENDBRANCH  15  20
BRANCH  16  22
HETATM   22  O1  UNK     1      18.985  -3.450  36.855  1.00  0.00    -0.344 OA
BRANCH  22  23
HETATM   23  C4  UNK     1      20.283  -3.594  37.425  1.00  0.00     0.214 C 
BRANCH  23  24
HETATM   24  C8  UNK     1      20.726  -5.021  37.280  1.00  0.00    -0.034 A 
HETATM   25  C12 UNK     1      20.210  -5.800  36.250  1.00  0.00     0.011 A 
HETATM   26  C16 UNK     1      20.621  -7.126  36.115  1.00  0.00     0.019 A 
HETATM   27  C18 UNK     1      21.544  -7.665  37.011  1.00  0.00     0.011 A 
HETATM   28 Br2  UNK     1      22.099  -9.462  36.829  1.00  0.00    -0.051 Br
HETATM   29  C17 UNK     1      22.058  -6.877  38.042  1.00  0.00     0.019 A 
HETATM   30  C13 UNK     1      21.647  -5.551  38.176  1.00  0.00     0.011 A 
ENDBRANCH  23  24
ENDBRANCH  22  23
ENDBRANCH  16  22
ENDBRANCH   2  13
TORSDOF 6
ENDMDL
MODEL 4
REMARK VINA RESULT:      -7.9      1.026      1.360
REMARK  6 active torsions:
REMARK  status: ('A' for Active; 'I' for Inactive)
REMARK    1  A    between atoms: C2_9  and  O1_5 
REMARK    2  A    between atoms: C4_11  and  O1_5 
REMARK    3  A    between atoms: C3_10  and  O2_6 
REMARK    4  A    between atoms: C1_8  and  C9_16 
REMARK    5  A    between atoms: C4_11  and  C8_15 
REMARK    6  A    between atoms: C10_17  and  C11_18 
ROOT
HETATM    1  N1  UNK     1      29.495  -6.332  34.716  1.00  0.00    -0.191 NA
HETATM    2  C9  UNK     1      30.917  -7.892  37.443  1.00  0.00     0.036 C 
HETATM    3  C10 UNK     1      31.317  -7.355  36.261  1.00  0.00     0.057 C 
HETATM    4  C23 UNK     1      30.303  -6.792  35.412  1.00  0.00     0.100 C 
ENDROOT
BRANCH   3   5
HETATM    5  C11 UNK     1      32.705  -7.315  35.820  1.00  0.00     0.006 A 
HETATM    6  C14 UNK     1      33.239  -8.271  34.956  1.00  0.00     0.047 A 
HETATM    7 Cl1  UNK     1      32.289  -9.581  34.346  1.00  0.00    -0.083 Cl
HETATM    8  C19 UNK     1      34.574  -8.187  34.562  1.00  0.00     0.048 A 
HETATM    9  C21 UNK     1      35.376  -7.146  35.031  1.00  0.00     0.035 A 
HETATM   10  C20 UNK     1      34.843  -6.191  35.894  1.00  0.00     0.025 A 
HETATM   11 Cl2  UNK     1      37.024  -7.043  34.545  1.00  0.00    -0.084 Cl
HETATM   12  C15 UNK     1      33.507  -6.274  36.289  1.00  0.00     0.016 A 
ENDBRANCH   3   5
BRANCH   2  13
HETATM   13  C1  UNK     1      29.534  -7.951  37.936  1.00  0.00    -0.015 A 
HETATM   14  C5  UNK     1      28.838  -9.136  37.731  1.00  0.00     0.052 A 
HETATM   15  C3  UNK     1      27.522  -9.249  38.177  1.00  0.00     0.102 A 
HETATM   16  C2  UNK     1      26.912  -8.175  38.827  1.00  0.00     0.103 A 
HETATM   17  C7  UNK     1      27.618  -6.989  39.028  1.00  0.00     0.059 A 
HETATM   18  C6  UNK     1      28.935  -6.877  38.581  1.00  0.00     0.024 A 
HETATM   19 Br1  UNK     1      29.840  -5.234  38.888  1.00  0.00    -0.050 Br
BRANCH  15  20
HETATM   20  O2  UNK     1      26.841 -10.411  37.975  1.00  0.00    -0.353 OA
HETATM   21  C22 UNK     1      26.181 -10.566  36.721  1.00  0.00     0.210 C 
ENDBRANCH  15  20
BRANCH  16  22
HETATM   22  O1  UNK     1      25.626  -8.272  39.268  1.00  0.00    -0.344 OA
BRANCH  22  23
HETATM   23  C4  UNK     1      24.677  -7.369  38.704  1.00  0.00     0.214 C 
BRANCH  23  24
HETATM   24  C8  UNK     1      23.362  -8.075  38.548  1.00  0.00    -0.034 A 
HETATM   25  C12 UNK     1      22.491  -8.153  39.630  1.00  0.00     0.011 A 
HETATM   26  C16 UNK     1      21.269  -8.810  39.485  1.00  0.00     0.019 A 
HETATM   27  C18 UNK     1      20.925  -9.383  38.262  1.00  0.00     0.011 A 
HETATM   28 Br2  UNK     1      19.270 -10.274  38.067  1.00  0.00    -0.051 Br
HETATM   29  C17 UNK     1      21.804  -9.301  37.181  1.00  0.00     0.019 A 
HETATM   30  C13 UNK     1      23.026  -8.644  37.326  1.00  0.00     0.011 A 
ENDBRANCH  23  24
ENDBRANCH  22  23
ENDBRANCH  16  22
ENDBRANCH   2  13
TORSDOF 6
ENDMDL
MODEL 5
REMARK VINA RESULT:      -7.7      2.153      2.968
REMARK  6 active torsions:
REMARK  status: ('A' for Active; 'I' for Inactive)
REMARK    1  A    between atoms: C2_9  and  O1_5 
REMARK    2  A    between atoms: C4_11  and  O1_5 
REMARK    3  A    between atoms: C3_10  and  O2_6 
REMARK    4  A    between atoms: C1_8  and  C9_16 
REMARK    5  A    between atoms: C4_11  and  C8_15 
REMARK    6  A    between atoms: C10_17  and  C11_18 
ROOT
HETATM    1  N1  UNK     1      31.701  -9.306  38.337  1.00  0.00    -0.191 NA
HETATM    2  C9  UNK     1      30.836  -7.256  35.702  1.00  0.00     0.036 C 
HETATM    3  C10 UNK     1      31.918  -7.959  36.126  1.00  0.00     0.057 C 
HETATM    4  C23 UNK     1      31.790  -8.701  37.350  1.00  0.00     0.100 C 
ENDROOT
BRANCH   3   5
HETATM    5  C11 UNK     1      33.185  -8.005  35.406  1.00  0.00     0.006 A 
HETATM    6  C14 UNK     1      34.255  -7.171  35.730  1.00  0.00     0.047 A 
HETATM    7 Cl1  UNK     1      34.156  -6.017  37.013  1.00  0.00    -0.083 Cl
HETATM    8  C19 UNK     1      35.448  -7.256  35.012  1.00  0.00     0.048 A 
HETATM    9  C21 UNK     1      35.570  -8.173  33.967  1.00  0.00     0.035 A 
HETATM   10  C20 UNK     1      34.500  -9.006  33.643  1.00  0.00     0.025 A 
HETATM   11 Cl2  UNK     1      37.041  -8.277  33.080  1.00  0.00    -0.084 Cl
HETATM   12  C15 UNK     1      33.307  -8.923  34.362  1.00  0.00     0.016 A 
ENDBRANCH   3   5
BRANCH   2  13
HETATM   13  C1  UNK     1      29.538  -7.183  36.387  1.00  0.00    -0.015 A 
HETATM   14  C5  UNK     1      29.356  -6.146  37.293  1.00  0.00     0.052 A 
HETATM   15  C3  UNK     1      28.144  -6.027  37.972  1.00  0.00     0.102 A 
HETATM   16  C2  UNK     1      27.122  -6.948  37.739  1.00  0.00     0.103 A 
HETATM   17  C7  UNK     1      27.313  -7.987  36.828  1.00  0.00     0.059 A 
HETATM   18  C6  UNK     1      28.526  -8.105  36.149  1.00  0.00     0.024 A 
HETATM   19 Br1  UNK     1      28.721  -9.543  34.921  1.00  0.00    -0.050 Br
BRANCH  15  20
HETATM   20  O2  UNK     1      27.968  -5.009  38.859  1.00  0.00    -0.353 OA
HETATM   21  C22 UNK     1      29.074  -4.134  39.069  1.00  0.00     0.210 C 
ENDBRANCH  15  20
BRANCH  16  22
HETATM   22  O1  UNK     1      25.932  -6.844  38.396  1.00  0.00    -0.344 OA
BRANCH  22  23
HETATM   23  C4  UNK     1      25.319  -8.059  38.822  1.00  0.00     0.214 C 
BRANCH  23  24
HETATM   24  C8  UNK     1      23.833  -7.944  38.646  1.00  0.00    -0.034 A 
HETATM   25  C12 UNK     1      23.210  -8.618  37.600  1.00  0.00     0.011 A 
HETATM   26  C16 UNK     1      21.829  -8.510  37.436  1.00  0.00     0.019 A 
HETATM   27  C18 UNK     1      21.080  -7.732  38.317  1.00  0.00     0.011 A 
HETATM   28 Br2  UNK     1      19.209  -7.586  38.093  1.00  0.00    -0.051 Br
HETATM   29  C17 UNK     1      21.711  -7.060  39.364  1.00  0.00     0.019 A 
HETATM   30  C13 UNK     1      23.092  -7.167  39.528  1.00  0.00     0.011 A 
ENDBRANCH  23  24
ENDBRANCH  22  23
ENDBRANCH  16  22
ENDBRANCH   2  13
TORSDOF 6
ENDMDL
MODEL 6
REMARK VINA RESULT:      -7.6      2.460      3.207
REMARK  6 active torsions:
REMARK  status: ('A' for Active; 'I' for Inactive)
REMARK    1  A    between atoms: C2_9  and  O1_5 
REMARK    2  A    between atoms: C4_11  and  O1_5 
REMARK    3  A    between atoms: C3_10  and  O2_6 
REMARK    4  A    between atoms: C1_8  and  C9_16 
REMARK    5  A    between atoms: C4_11  and  C8_15 
REMARK    6  A    between atoms: C10_17  and  C11_18 
ROOT
HETATM    1  N1  UNK     1      31.712  -9.225  38.361  1.00  0.00    -0.191 NA
HETATM    2  C9  UNK     1      30.641  -7.476  35.588  1.00  0.00     0.036 C 
HETATM    3  C10 UNK     1      31.765  -8.108  36.015  1.00  0.00     0.057 C 
HETATM    4  C23 UNK     1      31.727  -8.723  37.314  1.00  0.00     0.100 C 
ENDROOT
BRANCH   3   5
HETATM    5  C11 UNK     1      32.989  -8.200  35.230  1.00  0.00     0.006 A 
HETATM    6  C14 UNK     1      33.252  -9.281  34.387  1.00  0.00     0.047 A 
HETATM    7 Cl1  UNK     1      32.142 -10.594  34.214  1.00  0.00    -0.083 Cl
HETATM    8  C19 UNK     1      34.438  -9.321  33.654  1.00  0.00     0.048 A 
HETATM    9  C21 UNK     1      35.363  -8.281  33.765  1.00  0.00     0.035 A 
HETATM   10  C20 UNK     1      35.100  -7.202  34.607  1.00  0.00     0.025 A 
HETATM   11 Cl2  UNK     1      36.827  -8.330  32.862  1.00  0.00    -0.084 Cl
HETATM   12  C15 UNK     1      33.913  -7.161  35.340  1.00  0.00     0.016 A 
ENDBRANCH   3   5
BRANCH   2  13
HETATM   13  C1  UNK     1      29.383  -7.361  36.338  1.00  0.00    -0.015 A 
HETATM   14  C5  UNK     1      29.271  -6.304  37.232  1.00  0.00     0.052 A 
HETATM   15  C3  UNK     1      28.099  -6.146  37.971  1.00  0.00     0.102 A 
HETATM   16  C2  UNK     1      27.047  -7.047  37.809  1.00  0.00     0.103 A 
HETATM   17  C7  UNK     1      27.167  -8.106  36.909  1.00  0.00     0.059 A 
HETATM   18  C6  UNK     1      28.340  -8.264  36.170  1.00  0.00     0.024 A 
HETATM   19 Br1  UNK     1      28.438  -9.727  34.961  1.00  0.00    -0.050 Br
BRANCH  15  20
HETATM   20  O2  UNK     1      27.992  -5.109  38.847  1.00  0.00    -0.353 OA
HETATM   21  C22 UNK     1      29.160  -4.319  39.061  1.00  0.00     0.210 C 
ENDBRANCH  15  20
BRANCH  16  22
HETATM   22  O1  UNK     1      25.896  -6.905  38.525  1.00  0.00    -0.344 OA
BRANCH  22  23
HETATM   23  C4  UNK     1      25.197  -8.098  38.874  1.00  0.00     0.214 C 
BRANCH  23  24
HETATM   24  C8  UNK     1      23.729  -7.889  38.647  1.00  0.00    -0.034 A 
HETATM   25  C12 UNK     1      22.995  -7.126  39.549  1.00  0.00     0.011 A 
HETATM   26  C16 UNK     1      21.629  -6.933  39.338  1.00  0.00     0.019 A 
HETATM   27  C18 UNK     1      21.007  -7.504  38.229  1.00  0.00     0.011 A 
HETATM   28 Br2  UNK     1      19.157  -7.243  37.945  1.00  0.00    -0.051 Br
HETATM   29  C17 UNK     1      21.749  -8.268  37.328  1.00  0.00     0.019 A 
HETATM   30  C13 UNK     1      23.115  -8.461  37.539  1.00  0.00     0.011 A 
ENDBRANCH  23  24
ENDBRANCH  22  23
ENDBRANCH  16  22
ENDBRANCH   2  13
TORSDOF 6
ENDMDL
MODEL 7
REMARK VINA RESULT:      -7.6     34.511     35.802
REMARK  6 active torsions:
REMARK  status: ('A' for Active; 'I' for Inactive)
REMARK    1  A    between atoms: C2_9  and  O1_5 
REMARK    2  A    between atoms: C4_11  and  O1_5 
REMARK    3  A    between atoms: C3_10  and  O2_6 
REMARK    4  A    between atoms: C1_8  and  C9_16 
REMARK    5  A    between atoms: C4_11  and  C8_15 
REMARK    6  A    between atoms: C10_17  and  C11_18 
ROOT
HETATM    1  N1  UNK     1      12.661   8.819  11.984  1.00  0.00    -0.191 NA
HETATM    2  C9  UNK     1      12.808   8.318   8.574  1.00  0.00     0.036 C 
HETATM    3  C10 UNK     1      13.583   8.851   9.554  1.00  0.00     0.057 C 
HETATM    4  C23 UNK     1      13.066   8.830  10.895  1.00  0.00     0.100 C 
ENDROOT
BRANCH   3   5
HETATM    5  C11 UNK     1      14.900   9.430   9.319  1.00  0.00     0.006 A 
HETATM    6  C14 UNK     1      16.066   8.860   9.830  1.00  0.00     0.047 A 
HETATM    7 Cl1  UNK     1      16.033   7.420  10.787  1.00  0.00    -0.083 Cl
HETATM    8  C19 UNK     1      17.302   9.451   9.575  1.00  0.00     0.048 A 
HETATM    9  C21 UNK     1      17.374  10.615   8.807  1.00  0.00     0.035 A 
HETATM   10  C20 UNK     1      16.209  11.185   8.296  1.00  0.00     0.025 A 
HETATM   11 Cl2  UNK     1      18.900  11.345   8.492  1.00  0.00    -0.084 Cl
HETATM   12  C15 UNK     1      14.972  10.593   8.552  1.00  0.00     0.016 A 
ENDBRANCH   3   5
BRANCH   2  13
HETATM   13  C1  UNK     1      11.480   7.718   8.761  1.00  0.00    -0.015 A 
HETATM   14  C5  UNK     1      10.457   8.560   9.182  1.00  0.00     0.052 A 
HETATM   15  C3  UNK     1       9.176   8.044   9.376  1.00  0.00     0.102 A 
HETATM   16  C2  UNK     1       8.927   6.691   9.147  1.00  0.00     0.103 A 
HETATM   17  C7  UNK     1       9.960   5.853   8.726  1.00  0.00     0.059 A 
HETATM   18  C6  UNK     1      11.241   6.369   8.531  1.00  0.00     0.024 A 
HETATM   19 Br1  UNK     1      12.602   5.173   7.956  1.00  0.00    -0.050 Br
BRANCH  15  20
HETATM   20  O2  UNK     1       8.175   8.871   9.788  1.00  0.00    -0.353 OA
HETATM   21  C22 UNK     1       8.531   9.924  10.681  1.00  0.00     0.210 C 
ENDBRANCH  15  20
BRANCH  16  22
HETATM   22  O1  UNK     1       7.679   6.175   9.333  1.00  0.00    -0.344 OA
BRANCH  22  23
HETATM   23  C4  UNK     1       7.533   4.764   9.185  1.00  0.00     0.214 C 
BRANCH  23  24
HETATM   24  C8  UNK     1       6.752   4.229  10.349  1.00  0.00    -0.034 A 
HETATM   25  C12 UNK     1       6.155   2.975  10.259  1.00  0.00     0.011 A 
HETATM   26  C16 UNK     1       5.428   2.478  11.341  1.00  0.00     0.019 A 
HETATM   27  C18 UNK     1       5.303   3.235  12.505  1.00  0.00     0.011 A 
HETATM   28 Br2  UNK     1       4.317   2.560  13.969  1.00  0.00    -0.051 Br
HETATM   29  C17 UNK     1       5.905   4.491  12.589  1.00  0.00     0.019 A 
HETATM   30  C13 UNK     1       6.631   4.988  11.507  1.00  0.00     0.011 A 
ENDBRANCH  23  24
ENDBRANCH  22  23
ENDBRANCH  16  22
ENDBRANCH   2  13
TORSDOF 6
ENDMDL
MODEL 8
REMARK VINA RESULT:      -7.5     17.984     19.790
REMARK  6 active torsions:
REMARK  status: ('A' for Active; 'I' for Inactive)
REMARK    1  A    between atoms: C2_9  and  O1_5 
REMARK    2  A    between atoms: C4_11  and  O1_5 
REMARK    3  A    between atoms: C3_10  and  O2_6 
REMARK    4  A    between atoms: C1_8  and  C9_16 
REMARK    5  A    between atoms: C4_11  and  C8_15 
REMARK    6  A    between atoms: C10_17  and  C11_18 
ROOT
HETATM    1  N1  UNK     1      19.275   5.589  29.391  1.00  0.00    -0.191 NA
HETATM    2  C9  UNK     1      17.873   4.379  32.300  1.00  0.00     0.036 C 
HETATM    3  C10 UNK     1      18.532   3.895  31.216  1.00  0.00     0.057 C 
HETATM    4  C23 UNK     1      18.939   4.838  30.211  1.00  0.00     0.100 C 
ENDROOT
BRANCH   3   5
HETATM    5  C11 UNK     1      18.850   2.485  31.026  1.00  0.00     0.006 A 
HETATM    6  C14 UNK     1      18.789   1.562  32.070  1.00  0.00     0.047 A 
HETATM    7 Cl1  UNK     1      18.332   2.025  33.672  1.00  0.00    -0.083 Cl
HETATM    8  C19 UNK     1      19.102   0.223  31.837  1.00  0.00     0.048 A 
HETATM    9  C21 UNK     1      19.476  -0.193  30.558  1.00  0.00     0.035 A 
HETATM   10  C20 UNK     1      19.537   0.729  29.515  1.00  0.00     0.025 A 
HETATM   11 Cl2  UNK     1      19.862  -1.846  30.270  1.00  0.00    -0.084 Cl
HETATM   12  C15 UNK     1      19.224   2.069  29.748  1.00  0.00     0.016 A 
ENDBRANCH   3   5
BRANCH   2  13
HETATM   13  C1  UNK     1      17.535   5.789  32.541  1.00  0.00    -0.015 A 
HETATM   14  C5  UNK     1      16.276   6.217  32.139  1.00  0.00     0.052 A 
HETATM   15  C3  UNK     1      15.901   7.545  32.342  1.00  0.00     0.102 A 
HETATM   16  C2  UNK     1      16.790   8.435  32.947  1.00  0.00     0.103 A 
HETATM   17  C7  UNK     1      18.052   7.996  33.347  1.00  0.00     0.059 A 
HETATM   18  C6  UNK     1      18.426   6.668  33.144  1.00  0.00     0.024 A 
HETATM   19 Br1  UNK     1      20.160   6.137  33.713  1.00  0.00    -0.050 Br
BRANCH  15  20
HETATM   20  O2  UNK     1      14.666   7.962  31.948  1.00  0.00    -0.353 OA
HETATM   21  C22 UNK     1      13.544   7.310  32.537  1.00  0.00     0.210 C 
ENDBRANCH  15  20
BRANCH  16  22
HETATM   22  O1  UNK     1      16.436   9.735  33.151  1.00  0.00    -0.344 OA
BRANCH  22  23
HETATM   23  C4  UNK     1      15.881  10.063  34.423  1.00  0.00     0.214 C 
BRANCH  23  24
HETATM   24  C8  UNK     1      14.617  10.846  34.218  1.00  0.00    -0.034 A 
HETATM   25  C12 UNK     1      14.141  11.059  32.928  1.00  0.00     0.011 A 
HETATM   26  C16 UNK     1      12.967  11.788  32.738  1.00  0.00     0.019 A 
HETATM   27  C18 UNK     1      12.278  12.300  33.837  1.00  0.00     0.011 A 
HETATM   28 Br2  UNK     1      10.688  13.289  33.578  1.00  0.00    -0.051 Br
HETATM   29  C17 UNK     1      12.761  12.083  35.127  1.00  0.00     0.019 A 
HETATM   30  C13 UNK     1      13.935  11.354  35.317  1.00  0.00     0.011 A 
ENDBRANCH  23  24
ENDBRANCH  22  23
ENDBRANCH  16  22
ENDBRANCH   2  13
TORSDOF 6
ENDMDL
MODEL 9
REMARK VINA RESULT:      -7.5     11.328     14.141
REMARK  6 active torsions:
REMARK  status: ('A' for Active; 'I' for Inactive)
REMARK    1  A    between atoms: C2_9  and  O1_5 
REMARK    2  A    between atoms: C4_11  and  O1_5 
REMARK    3  A    between atoms: C3_10  and  O2_6 
REMARK    4  A    between atoms: C1_8  and  C9_16 
REMARK    5  A    between atoms: C4_11  and  C8_15 
REMARK    6  A    between atoms: C10_17  and  C11_18 
ROOT
HETATM    1  N1  UNK     1      22.012  -1.808  35.270  1.00  0.00    -0.191 NA
HETATM    2  C9  UNK     1      18.805  -2.537  36.309  1.00  0.00     0.036 C 
HETATM    3  C10 UNK     1      20.050  -3.072  36.412  1.00  0.00     0.057 C 
HETATM    4  C23 UNK     1      21.130  -2.367  35.777  1.00  0.00     0.100 C 
ENDROOT
BRANCH   3   5
HETATM    5  C11 UNK     1      20.343  -4.305  37.133  1.00  0.00     0.006 A 
HETATM    6  C14 UNK     1      19.436  -5.362  37.197  1.00  0.00     0.047 A 
HETATM    7 Cl1  UNK     1      17.891  -5.286  36.425  1.00  0.00    -0.083 Cl
HETATM    8  C19 UNK     1      19.765  -6.522  37.898  1.00  0.00     0.048 A 
HETATM    9  C21 UNK     1      21.002  -6.624  38.536  1.00  0.00     0.035 A 
HETATM   10  C20 UNK     1      21.908  -5.567  38.472  1.00  0.00     0.025 A 
HETATM   11 Cl2  UNK     1      21.408  -8.055  39.402  1.00  0.00    -0.084 Cl
HETATM   12  C15 UNK     1      21.580  -4.407  37.770  1.00  0.00     0.016 A 
ENDBRANCH   3   5
BRANCH   2  13
HETATM   13  C1  UNK     1      18.460  -1.297  35.602  1.00  0.00    -0.015 A 
HETATM   14  C5  UNK     1      18.614  -1.290  34.221  1.00  0.00     0.052 A 
HETATM   15  C3  UNK     1      18.302  -0.139  33.497  1.00  0.00     0.102 A 
HETATM   16  C2  UNK     1      17.836   0.996  34.161  1.00  0.00     0.103 A 
HETATM   17  C7  UNK     1      17.685   0.981  35.547  1.00  0.00     0.059 A 
HETATM   18  C6  UNK     1      17.997  -0.171  36.271  1.00  0.00     0.024 A 
HETATM   19 Br1  UNK     1      17.767  -0.124  38.157  1.00  0.00    -0.050 Br
BRANCH  15  20
HETATM   20  O2  UNK     1      18.454  -0.135  32.144  1.00  0.00    -0.353 OA
HETATM   21  C22 UNK     1      19.495  -0.947  31.607  1.00  0.00     0.210 C 
ENDBRANCH  15  20
BRANCH  16  22
HETATM   22  O1  UNK     1      17.527   2.127  33.466  1.00  0.00    -0.344 OA
BRANCH  22  23
HETATM   23  C4  UNK     1      18.609   2.832  32.862  1.00  0.00     0.214 C 
BRANCH  23  24
HETATM   24  C8  UNK     1      18.379   4.307  33.016  1.00  0.00    -0.034 A 
HETATM   25  C12 UNK     1      17.488   4.956  32.167  1.00  0.00     0.011 A 
HETATM   26  C16 UNK     1      17.275   6.328  32.310  1.00  0.00     0.019 A 
HETATM   27  C18 UNK     1      17.953   7.040  33.298  1.00  0.00     0.011 A 
HETATM   28 Br2  UNK     1      17.664   8.898  33.490  1.00  0.00    -0.051 Br
HETATM   29  C17 UNK     1      18.845   6.382  34.146  1.00  0.00     0.019 A 
HETATM   30  C13 UNK     1      19.058   5.011  34.003  1.00  0.00     0.011 A 
ENDBRANCH  23  24
ENDBRANCH  22  23
ENDBRANCH  16  22
ENDBRANCH   2  13
TORSDOF 6
ENDMDL
MODEL 10
REMARK VINA RESULT:      -7.5      4.884     10.097
REMARK  6 active torsions:
REMARK  status: ('A' for Active; 'I' for Inactive)
REMARK    1  A    between atoms: C2_9  and  O1_5 
REMARK    2  A    between atoms: C4_11  and  O1_5 
REMARK    3  A    between atoms: C3_10  and  O2_6 
REMARK    4  A    between atoms: C1_8  and  C9_16 
REMARK    5  A    between atoms: C4_11  and  C8_15 
REMARK    6  A    between atoms: C10_17  and  C11_18 
ROOT
HETATM    1  N1  UNK     1      22.828  -8.148  40.135  1.00  0.00    -0.191 NA
HETATM    2  C9  UNK     1      23.573  -8.808  36.833  1.00  0.00     0.036 C 
HETATM    3  C10 UNK     1      22.489  -8.475  37.579  1.00  0.00     0.057 C 
HETATM    4  C23 UNK     1      22.684  -8.296  38.992  1.00  0.00     0.100 C 
ENDROOT
BRANCH   3   5
HETATM    5  C11 UNK     1      21.154  -8.284  37.025  1.00  0.00     0.006 A 
HETATM    6  C14 UNK     1      20.212  -9.312  36.983  1.00  0.00     0.047 A 
HETATM    7 Cl1  UNK     1      20.562 -10.895  37.585  1.00  0.00    -0.083 Cl
HETATM    8  C19 UNK     1      18.948  -9.078  36.444  1.00  0.00     0.048 A 
HETATM    9  C21 UNK     1      18.624  -7.815  35.946  1.00  0.00     0.035 A 
HETATM   10  C20 UNK     1      19.565  -6.787  35.989  1.00  0.00     0.025 A 
HETATM   11 Cl2  UNK     1      17.063  -7.525  35.281  1.00  0.00    -0.084 Cl
HETATM   12  C15 UNK     1      20.830  -7.021  36.528  1.00  0.00     0.016 A 
ENDBRANCH   3   5
BRANCH   2  13
HETATM   13  C1  UNK     1      24.938  -9.005  37.341  1.00  0.00    -0.015 A 
HETATM   14  C5  UNK     1      25.502  -7.961  38.064  1.00  0.00     0.052 A 
HETATM   15  C3  UNK     1      26.795  -8.092  38.571  1.00  0.00     0.102 A 
HETATM   16  C2  UNK     1      27.514  -9.267  38.350  1.00  0.00     0.103 A 
HETATM   17  C7  UNK     1      26.940 -10.310  37.623  1.00  0.00     0.059 A 
HETATM   18  C6  UNK     1      25.646 -10.179  37.116  1.00  0.00     0.024 A 
HETATM   19 Br1  UNK     1      24.925 -11.637  36.135  1.00  0.00    -0.050 Br
BRANCH  15  20
HETATM   20  O2  UNK     1      27.345  -7.067  39.279  1.00  0.00    -0.353 OA
HETATM   21  C22 UNK     1      27.487  -5.818  38.608  1.00  0.00     0.210 C 
ENDBRANCH  15  20
BRANCH  16  22
HETATM   22  O1  UNK     1      28.778  -9.408  38.840  1.00  0.00    -0.344 OA
BRANCH  22  23
HETATM   23  C4  UNK     1      29.836  -9.489  37.887  1.00  0.00     0.214 C 
BRANCH  23  24
HETATM   24  C8  UNK     1      30.322  -8.104  37.577  1.00  0.00    -0.034 A 
HETATM   25  C12 UNK     1      29.953  -7.497  36.381  1.00  0.00     0.011 A 
HETATM   26  C16 UNK     1      30.406  -6.209  36.093  1.00  0.00     0.019 A 
HETATM   27  C18 UNK     1      31.224  -5.537  37.000  1.00  0.00     0.011 A 
HETATM   28 Br2  UNK     1      31.838  -3.794  36.607  1.00  0.00    -0.051 Br
HETATM   29  C17 UNK     1      31.590  -6.152  38.198  1.00  0.00     0.019 A 
HETATM   30  C13 UNK     1      31.138  -7.440  38.486  1.00  0.00     0.011 A 
ENDBRANCH  23  24
ENDBRANCH  22  23
ENDBRANCH  16  22
ENDBRANCH   2  13
TORSDOF 6
ENDMDL
