MODEL 1
REMARK VINA RESULT:     -10.3      0.000      0.000
REMARK  4 active torsions:
REMARK  status: ('A' for Active; 'I' for Inactive)
REMARK    1  A    between atoms: C1_8  and  S1_1 
REMARK    2  A    between atoms: N1_6  and  S1_1 
REMARK    3  A    between atoms: N1_6  and  N2_7 
REMARK    4  A    between atoms: C3_10  and  C6_13 
ROOT
HETATM    1  N2  UNK     1      18.904   4.393  31.314  1.00  0.00    -0.169 NA
HETATM    2  C6  UNK     1      19.122   5.638  30.992  1.00  0.00     0.068 C 
HETATM    3  C15 UNK     1      19.880   6.065  29.751  1.00  0.00     0.073 C 
ENDROOT
BRANCH   1   4
HETATM    4  N1  UNK     1      19.441   3.380  30.422  1.00  0.00    -0.200 N 
HETATM    5  H4  UNK     1      20.399   3.050  30.587  1.00  0.00     0.202 HD
BRANCH   4   6
HETATM    6  S1  UNK     1      18.304   2.310  29.738  1.00  0.00     0.277 S 
HETATM    7  O2  UNK     1      18.238   2.531  28.307  1.00  0.00    -0.199 OA
HETATM    8  O3  UNK     1      17.097   2.328  30.541  1.00  0.00    -0.199 OA
BRANCH   6   9
HETATM    9  C1  UNK     1      19.096   0.747  29.980  1.00  0.00     0.081 A 
HETATM   10  C7  UNK     1      19.153   0.209  31.254  1.00  0.00     0.026 A 
HETATM   11  C11 UNK     1      19.777  -1.023  31.445  1.00  0.00     0.008 A 
HETATM   12  C9  UNK     1      20.335  -1.699  30.360  1.00  0.00    -0.062 A 
HETATM   13  C12 UNK     1      20.268  -1.141  29.083  1.00  0.00     0.008 A 
HETATM   14  C18 UNK     1      21.003  -3.016  30.564  1.00  0.00     0.048 C 
HETATM   15  C8  UNK     1      19.644   0.092  28.891  1.00  0.00     0.026 A 
ENDBRANCH   6   9
ENDBRANCH   4   6
ENDBRANCH   1   4
BRANCH   2  16
HETATM   16  C3  UNK     1      18.617   6.701  31.868  1.00  0.00     0.066 A 
HETATM   17  C10 UNK     1      19.426   7.255  32.976  1.00  0.00     0.300 A 
HETATM   18  O1  UNK     1      18.837   8.262  33.737  1.00  0.00    -0.274 OA
HETATM   19  O4  UNK     1      20.560   6.854  33.216  1.00  0.00    -0.259 OA
HETATM   20  C5  UNK     1      17.537   8.732  33.470  1.00  0.00     0.089 A 
HETATM   21  C14 UNK     1      17.033   9.742  34.286  1.00  0.00     0.038 A 
HETATM   22  C2  UNK     1      16.793   8.196  32.422  1.00  0.00    -0.001 A 
HETATM   23  C17 UNK     1      15.749  10.227  34.045  1.00  0.00     0.003 A 
HETATM   24  C16 UNK     1      14.987   9.701  33.000  1.00  0.00     0.001 A 
HETATM   25  C13 UNK     1      15.507   8.688  32.189  1.00  0.00     0.014 A 
HETATM   26  C4  UNK     1      17.380   7.143  31.609  1.00  0.00     0.034 A 
ENDBRANCH   2  16
TORSDOF 4
ENDMDL
MODEL 2
REMARK VINA RESULT:      -9.2      1.847      2.799
REMARK  4 active torsions:
REMARK  status: ('A' for Active; 'I' for Inactive)
REMARK    1  A    between atoms: C1_8  and  S1_1 
REMARK    2  A    between atoms: N1_6  and  S1_1 
REMARK    3  A    between atoms: N1_6  and  N2_7 
REMARK    4  A    between atoms: C3_10  and  C6_13 
ROOT
HETATM    1  N2  UNK     1      17.702   4.071  31.623  1.00  0.00    -0.169 NA
HETATM    2  C6  UNK     1      17.969   4.522  32.817  1.00  0.00     0.068 C 
HETATM    3  C15 UNK     1      18.324   3.634  33.993  1.00  0.00     0.073 C 
ENDROOT
BRANCH   1   4
HETATM    4  N1  UNK     1      17.742   2.631  31.442  1.00  0.00    -0.200 N 
HETATM    5  H4  UNK     1      17.017   2.066  31.900  1.00  0.00     0.202 HD
BRANCH   4   6
HETATM    6  S1  UNK     1      18.412   2.081  29.974  1.00  0.00     0.277 S 
HETATM    7  O2  UNK     1      19.481   2.974  29.571  1.00  0.00    -0.199 OA
HETATM    8  O3  UNK     1      17.336   1.762  29.056  1.00  0.00    -0.199 OA
BRANCH   6   9
HETATM    9  C1  UNK     1      19.171   0.564  30.474  1.00  0.00     0.081 A 
HETATM   10  C7  UNK     1      19.961  -0.126  29.570  1.00  0.00     0.026 A 
HETATM   11  C11 UNK     1      20.559  -1.322  29.964  1.00  0.00     0.008 A 
HETATM   12  C9  UNK     1      20.359  -1.811  31.255  1.00  0.00    -0.062 A 
HETATM   13  C12 UNK     1      19.561  -1.102  32.152  1.00  0.00     0.008 A 
HETATM   14  C18 UNK     1      21.000  -3.089  31.676  1.00  0.00     0.048 C 
HETATM   15  C8  UNK     1      18.961   0.095  31.759  1.00  0.00     0.026 A 
ENDBRANCH   6   9
ENDBRANCH   4   6
ENDBRANCH   1   4
BRANCH   2  16
HETATM   16  C3  UNK     1      17.926   5.969  33.059  1.00  0.00     0.066 A 
HETATM   17  C10 UNK     1      16.706   6.770  32.814  1.00  0.00     0.300 A 
HETATM   18  O1  UNK     1      16.788   8.133  33.083  1.00  0.00    -0.274 OA
HETATM   19  O4  UNK     1      15.670   6.263  32.396  1.00  0.00    -0.259 OA
HETATM   20  C5  UNK     1      17.971   8.726  33.564  1.00  0.00     0.089 A 
HETATM   21  C14 UNK     1      17.958  10.098  33.804  1.00  0.00     0.038 A 
HETATM   22  C2  UNK     1      19.108   7.954  33.788  1.00  0.00    -0.001 A 
HETATM   23  C17 UNK     1      19.114  10.712  34.281  1.00  0.00     0.003 A 
HETATM   24  C16 UNK     1      20.264   9.955  34.510  1.00  0.00     0.001 A 
HETATM   25  C13 UNK     1      20.263   8.578  34.266  1.00  0.00     0.014 A 
HETATM   26  C4  UNK     1      19.054   6.526  33.517  1.00  0.00     0.034 A 
ENDBRANCH   2  16
TORSDOF 4
ENDMDL
MODEL 3
REMARK VINA RESULT:      -9.1      2.034      2.287
REMARK  4 active torsions:
REMARK  status: ('A' for Active; 'I' for Inactive)
REMARK    1  A    between atoms: C1_8  and  S1_1 
REMARK    2  A    between atoms: N1_6  and  S1_1 
REMARK    3  A    between atoms: N1_6  and  N2_7 
REMARK    4  A    between atoms: C3_10  and  C6_13 
ROOT
HETATM    1  N2  UNK     1      17.862   4.027  33.032  1.00  0.00    -0.169 NA
HETATM    2  C6  UNK     1      18.292   4.970  32.239  1.00  0.00     0.068 C 
HETATM    3  C15 UNK     1      18.744   4.729  30.813  1.00  0.00     0.073 C 
ENDROOT
BRANCH   1   4
HETATM    4  N1  UNK     1      17.839   2.678  32.494  1.00  0.00    -0.200 N 
HETATM    5  H4  UNK     1      18.166   2.537  31.531  1.00  0.00     0.202 HD
BRANCH   4   6
HETATM    6  S1  UNK     1      18.039   1.420  33.626  1.00  0.00     0.277 S 
HETATM    7  O2  UNK     1      16.739   0.883  33.979  1.00  0.00    -0.199 OA
HETATM    8  O3  UNK     1      18.959   1.856  34.658  1.00  0.00    -0.199 OA
BRANCH   6   9
HETATM    9  C1  UNK     1      18.855   0.190  32.653  1.00  0.00     0.081 A 
HETATM   10  C7  UNK     1      19.005  -1.088  33.166  1.00  0.00     0.026 A 
HETATM   11  C11 UNK     1      19.649  -2.057  32.398  1.00  0.00     0.008 A 
HETATM   12  C9  UNK     1      20.133  -1.737  31.130  1.00  0.00    -0.062 A 
HETATM   13  C12 UNK     1      19.973  -0.444  30.629  1.00  0.00     0.008 A 
HETATM   14  C18 UNK     1      20.821  -2.774  30.309  1.00  0.00     0.048 C 
HETATM   15  C8  UNK     1      19.329   0.527  31.397  1.00  0.00     0.026 A 
ENDBRANCH   6   9
ENDBRANCH   4   6
ENDBRANCH   1   4
BRANCH   2  16
HETATM   16  C3  UNK     1      18.352   6.349  32.738  1.00  0.00     0.066 A 
HETATM   17  C10 UNK     1      19.621   6.969  33.180  1.00  0.00     0.300 A 
HETATM   18  O1  UNK     1      19.550   8.283  33.632  1.00  0.00    -0.274 OA
HETATM   19  O4  UNK     1      20.685   6.360  33.151  1.00  0.00    -0.259 OA
HETATM   20  C5  UNK     1      18.334   8.993  33.668  1.00  0.00     0.089 A 
HETATM   21  C14 UNK     1      18.362  10.304  34.136  1.00  0.00     0.038 A 
HETATM   22  C2  UNK     1      17.151   8.390  33.247  1.00  0.00    -0.001 A 
HETATM   23  C17 UNK     1      17.174  11.031  34.183  1.00  0.00     0.003 A 
HETATM   24  C16 UNK     1      15.978  10.443  33.767  1.00  0.00     0.001 A 
HETATM   25  C13 UNK     1      15.965   9.126  33.299  1.00  0.00     0.014 A 
HETATM   26  C4  UNK     1      17.193   7.017  32.770  1.00  0.00     0.034 A 
ENDBRANCH   2  16
TORSDOF 4
ENDMDL
MODEL 4
REMARK VINA RESULT:      -9.0      2.388      3.255
REMARK  4 active torsions:
REMARK  status: ('A' for Active; 'I' for Inactive)
REMARK    1  A    between atoms: C1_8  and  S1_1 
REMARK    2  A    between atoms: N1_6  and  S1_1 
REMARK    3  A    between atoms: N1_6  and  N2_7 
REMARK    4  A    between atoms: C3_10  and  C6_13 
ROOT
HETATM    1  N2  UNK     1      17.761   3.904  32.974  1.00  0.00    -0.169 NA
HETATM    2  C6  UNK     1      18.139   4.847  32.154  1.00  0.00     0.068 C 
HETATM    3  C15 UNK     1      18.654   4.587  30.753  1.00  0.00     0.073 C 
ENDROOT
BRANCH   1   4
HETATM    4  N1  UNK     1      17.864   2.538  32.493  1.00  0.00    -0.200 N 
HETATM    5  H4  UNK     1      18.282   2.381  31.569  1.00  0.00     0.202 HD
BRANCH   4   6
HETATM    6  S1  UNK     1      18.033   1.336  33.690  1.00  0.00     0.277 S 
HETATM    7  O2  UNK     1      16.725   0.809  34.027  1.00  0.00    -0.199 OA
HETATM    8  O3  UNK     1      18.917   1.828  34.729  1.00  0.00    -0.199 OA
BRANCH   6   9
HETATM    9  C1  UNK     1      18.886   0.066  32.804  1.00  0.00     0.081 A 
HETATM   10  C7  UNK     1      19.285   0.305  31.499  1.00  0.00     0.026 A 
HETATM   11  C11 UNK     1      19.958  -0.696  30.800  1.00  0.00     0.008 A 
HETATM   12  C9  UNK     1      20.221  -1.921  31.414  1.00  0.00    -0.062 A 
HETATM   13  C12 UNK     1      19.811  -2.143  32.729  1.00  0.00     0.008 A 
HETATM   14  C18 UNK     1      20.940  -2.991  30.666  1.00  0.00     0.048 C 
HETATM   15  C8  UNK     1      19.138  -1.142  33.429  1.00  0.00     0.026 A 
ENDBRANCH   6   9
ENDBRANCH   4   6
ENDBRANCH   1   4
BRANCH   2  16
HETATM   16  C3  UNK     1      18.072   6.245  32.596  1.00  0.00     0.066 A 
HETATM   17  C10 UNK     1      16.841   7.053  32.457  1.00  0.00     0.300 A 
HETATM   18  O1  UNK     1      16.900   8.367  32.915  1.00  0.00    -0.274 OA
HETATM   19  O4  UNK     1      15.814   6.594  31.966  1.00  0.00    -0.259 OA
HETATM   20  C5  UNK     1      18.072   8.904  33.481  1.00  0.00     0.089 A 
HETATM   21  C14 UNK     1      18.036  10.229  33.910  1.00  0.00     0.038 A 
HETATM   22  C2  UNK     1      19.220   8.126  33.603  1.00  0.00    -0.001 A 
HETATM   23  C17 UNK     1      19.181  10.787  34.476  1.00  0.00     0.003 A 
HETATM   24  C16 UNK     1      20.342  10.022  34.604  1.00  0.00     0.001 A 
HETATM   25  C13 UNK     1      20.363   8.694  34.170  1.00  0.00     0.014 A 
HETATM   26  C4  UNK     1      19.189   6.749  33.134  1.00  0.00     0.034 A 
ENDBRANCH   2  16
TORSDOF 4
ENDMDL
MODEL 5
REMARK VINA RESULT:      -9.0     13.918     16.480
REMARK  4 active torsions:
REMARK  status: ('A' for Active; 'I' for Inactive)
REMARK    1  A    between atoms: C1_8  and  S1_1 
REMARK    2  A    between atoms: N1_6  and  S1_1 
REMARK    3  A    between atoms: N1_6  and  N2_7 
REMARK    4  A    between atoms: C3_10  and  C6_13 
ROOT
HETATM    1  N2  UNK     1      25.050  -7.470  38.261  1.00  0.00    -0.169 NA
HETATM    2  C6  UNK     1      26.188  -7.853  38.771  1.00  0.00     0.068 C 
HETATM    3  C15 UNK     1      26.390  -9.178  39.478  1.00  0.00     0.073 C 
ENDROOT
BRANCH   1   4
HETATM    4  N1  UNK     1      23.927  -8.380  38.407  1.00  0.00    -0.200 N 
HETATM    5  H4  UNK     1      24.109  -9.387  38.329  1.00  0.00     0.202 HD
BRANCH   4   6
HETATM    6  S1  UNK     1      22.659  -7.845  39.413  1.00  0.00     0.277 S 
HETATM    7  O2  UNK     1      22.953  -6.505  39.883  1.00  0.00    -0.199 OA
HETATM    8  O3  UNK     1      22.328  -8.898  40.353  1.00  0.00    -0.199 OA
BRANCH   6   9
HETATM    9  C1  UNK     1      21.326  -7.703  38.260  1.00  0.00     0.081 A 
HETATM   10  C7  UNK     1      20.045  -7.470  38.734  1.00  0.00     0.026 A 
HETATM   11  C11 UNK     1      18.994  -7.358  37.825  1.00  0.00     0.008 A 
HETATM   12  C9  UNK     1      19.237  -7.481  36.457  1.00  0.00    -0.062 A 
HETATM   13  C12 UNK     1      20.533  -7.716  35.998  1.00  0.00     0.008 A 
HETATM   14  C18 UNK     1      18.112  -7.362  35.486  1.00  0.00     0.048 C 
HETATM   15  C8  UNK     1      21.586  -7.828  36.907  1.00  0.00     0.026 A 
ENDBRANCH   6   9
ENDBRANCH   4   6
ENDBRANCH   1   4
BRANCH   2  16
HETATM   16  C3  UNK     1      27.351  -6.963  38.667  1.00  0.00     0.066 A 
HETATM   17  C10 UNK     1      27.216  -5.490  38.672  1.00  0.00     0.300 A 
HETATM   18  O1  UNK     1      28.392  -4.754  38.569  1.00  0.00    -0.274 OA
HETATM   19  O4  UNK     1      26.123  -4.939  38.764  1.00  0.00    -0.259 OA
HETATM   20  C5  UNK     1      29.651  -5.375  38.464  1.00  0.00     0.089 A 
HETATM   21  C14 UNK     1      30.773  -4.555  38.365  1.00  0.00     0.038 A 
HETATM   22  C2  UNK     1      29.757  -6.763  38.461  1.00  0.00    -0.001 A 
HETATM   23  C17 UNK     1      32.032  -5.141  38.261  1.00  0.00     0.003 A 
HETATM   24  C16 UNK     1      32.157  -6.532  38.254  1.00  0.00     0.001 A 
HETATM   25  C13 UNK     1      31.024  -7.343  38.355  1.00  0.00     0.014 A 
HETATM   26  C4  UNK     1      28.545  -7.561  38.567  1.00  0.00     0.034 A 
ENDBRANCH   2  16
TORSDOF 4
ENDMDL
MODEL 6
REMARK VINA RESULT:      -8.9      2.175      9.127
REMARK  4 active torsions:
REMARK  status: ('A' for Active; 'I' for Inactive)
REMARK    1  A    between atoms: C1_8  and  S1_1 
REMARK    2  A    between atoms: N1_6  and  S1_1 
REMARK    3  A    between atoms: N1_6  and  N2_7 
REMARK    4  A    between atoms: C3_10  and  C6_13 
ROOT
HETATM    1  N2  UNK     1      17.418   4.495  32.173  1.00  0.00    -0.169 NA
HETATM    2  C6  UNK     1      18.318   3.999  31.370  1.00  0.00     0.068 C 
HETATM    3  C15 UNK     1      19.057   4.814  30.328  1.00  0.00     0.073 C 
ENDROOT
BRANCH   1   4
HETATM    4  N1  UNK     1      17.118   5.908  32.028  1.00  0.00    -0.200 N 
HETATM    5  H4  UNK     1      16.278   6.172  31.500  1.00  0.00     0.202 HD
BRANCH   4   6
HETATM    6  S1  UNK     1      17.646   6.917  33.297  1.00  0.00     0.277 S 
HETATM    7  O2  UNK     1      18.861   7.598  32.893  1.00  0.00    -0.199 OA
HETATM    8  O3  UNK     1      17.599   6.174  34.541  1.00  0.00    -0.199 OA
BRANCH   6   9
HETATM    9  C1  UNK     1      16.365   8.135  33.341  1.00  0.00     0.081 A 
HETATM   10  C7  UNK     1      15.062   7.755  33.068  1.00  0.00     0.026 A 
HETATM   11  C11 UNK     1      14.052   8.715  33.103  1.00  0.00     0.008 A 
HETATM   12  C9  UNK     1      14.358  10.041  33.410  1.00  0.00    -0.062 A 
HETATM   13  C12 UNK     1      15.677  10.406  33.683  1.00  0.00     0.008 A 
HETATM   14  C18 UNK     1      13.278  11.067  33.447  1.00  0.00     0.048 C 
HETATM   15  C8  UNK     1      16.688   9.445  33.648  1.00  0.00     0.026 A 
ENDBRANCH   6   9
ENDBRANCH   4   6
ENDBRANCH   1   4
BRANCH   2  16
HETATM   16  C3  UNK     1      18.647   2.571  31.463  1.00  0.00     0.066 A 
HETATM   17  C10 UNK     1      18.399   1.786  32.692  1.00  0.00     0.300 A 
HETATM   18  O1  UNK     1      18.752   0.441  32.657  1.00  0.00    -0.274 OA
HETATM   19  O4  UNK     1      17.905   2.291  33.696  1.00  0.00    -0.259 OA
HETATM   20  C5  UNK     1      19.318  -0.150  31.510  1.00  0.00     0.089 A 
HETATM   21  C14 UNK     1      19.639  -1.504  31.570  1.00  0.00     0.038 A 
HETATM   22  C2  UNK     1      19.543   0.607  30.364  1.00  0.00    -0.001 A 
HETATM   23  C17 UNK     1      20.199  -2.116  30.451  1.00  0.00     0.003 A 
HETATM   24  C16 UNK     1      20.434  -1.372  29.292  1.00  0.00     0.001 A 
HETATM   25  C13 UNK     1      20.106  -0.014  29.246  1.00  0.00     0.014 A 
HETATM   26  C4  UNK     1      19.185   2.017  30.369  1.00  0.00     0.034 A 
ENDBRANCH   2  16
TORSDOF 4
ENDMDL
MODEL 7
REMARK VINA RESULT:      -8.8      7.363     12.255
REMARK  4 active torsions:
REMARK  status: ('A' for Active; 'I' for Inactive)
REMARK    1  A    between atoms: C1_8  and  S1_1 
REMARK    2  A    between atoms: N1_6  and  S1_1 
REMARK    3  A    between atoms: N1_6  and  N2_7 
REMARK    4  A    between atoms: C3_10  and  C6_13 
ROOT
HETATM    1  N2  UNK     1      20.166  -3.994  34.888  1.00  0.00    -0.169 NA
HETATM    2  C6  UNK     1      19.872  -3.930  36.158  1.00  0.00     0.068 C 
HETATM    3  C15 UNK     1      19.418  -2.662  36.853  1.00  0.00     0.073 C 
ENDROOT
BRANCH   1   4
HETATM    4  N1  UNK     1      20.056  -2.762  34.127  1.00  0.00    -0.200 N 
HETATM    5  H4  UNK     1      19.668  -1.937  34.597  1.00  0.00     0.202 HD
BRANCH   4   6
HETATM    6  S1  UNK     1      21.212  -2.542  32.893  1.00  0.00     0.277 S 
HETATM    7  O2  UNK     1      21.288  -3.746  32.088  1.00  0.00    -0.199 OA
HETATM    8  O3  UNK     1      22.411  -1.966  33.468  1.00  0.00    -0.199 OA
BRANCH   6   9
HETATM    9  C1  UNK     1      20.437  -1.306  31.895  1.00  0.00     0.081 A 
HETATM   10  C7  UNK     1      20.917  -1.071  30.617  1.00  0.00     0.026 A 
HETATM   11  C11 UNK     1      20.306  -0.095  29.830  1.00  0.00     0.008 A 
HETATM   12  C9  UNK     1      19.225   0.631  30.331  1.00  0.00    -0.062 A 
HETATM   13  C12 UNK     1      18.755   0.380  31.620  1.00  0.00     0.008 A 
HETATM   14  C18 UNK     1      18.572   1.673  29.489  1.00  0.00     0.048 C 
HETATM   15  C8  UNK     1      19.366  -0.596  32.408  1.00  0.00     0.026 A 
ENDBRANCH   6   9
ENDBRANCH   4   6
ENDBRANCH   1   4
BRANCH   2  16
HETATM   16  C3  UNK     1      19.982  -5.142  36.978  1.00  0.00     0.066 A 
HETATM   17  C10 UNK     1      18.867  -6.106  37.107  1.00  0.00     0.300 A 
HETATM   18  O1  UNK     1      19.094  -7.219  37.912  1.00  0.00    -0.274 OA
HETATM   19  O4  UNK     1      17.795  -5.940  36.535  1.00  0.00    -0.259 OA
HETATM   20  C5  UNK     1      20.321  -7.421  38.573  1.00  0.00     0.089 A 
HETATM   21  C14 UNK     1      20.454  -8.565  39.357  1.00  0.00     0.038 A 
HETATM   22  C2  UNK     1      21.357  -6.502  38.437  1.00  0.00    -0.001 A 
HETATM   23  C17 UNK     1      21.656  -8.792  40.022  1.00  0.00     0.003 A 
HETATM   24  C16 UNK     1      22.706  -7.880  39.899  1.00  0.00     0.001 A 
HETATM   25  C13 UNK     1      22.559  -6.737  39.108  1.00  0.00     0.014 A 
HETATM   26  C4  UNK     1      21.151  -5.328  37.602  1.00  0.00     0.034 A 
ENDBRANCH   2  16
TORSDOF 4
ENDMDL
MODEL 8
REMARK VINA RESULT:      -8.8      8.175     10.816
REMARK  4 active torsions:
REMARK  status: ('A' for Active; 'I' for Inactive)
REMARK    1  A    between atoms: C1_8  and  S1_1 
REMARK    2  A    between atoms: N1_6  and  S1_1 
REMARK    3  A    between atoms: N1_6  and  N2_7 
REMARK    4  A    between atoms: C3_10  and  C6_13 
ROOT
HETATM    1  N2  UNK     1      19.111  -5.208  36.611  1.00  0.00    -0.169 NA
HETATM    2  C6  UNK     1      19.932  -4.232  36.885  1.00  0.00     0.068 C 
HETATM    3  C15 UNK     1      21.244  -4.417  37.620  1.00  0.00     0.073 C 
ENDROOT
BRANCH   1   4
HETATM    4  N1  UNK     1      19.497  -6.534  37.059  1.00  0.00    -0.200 N 
HETATM    5  H4  UNK     1      19.392  -6.757  38.055  1.00  0.00     0.202 HD
BRANCH   4   6
HETATM    6  S1  UNK     1      19.337  -7.785  35.912  1.00  0.00     0.277 S 
HETATM    7  O2  UNK     1      19.304  -7.212  34.580  1.00  0.00    -0.199 OA
HETATM    8  O3  UNK     1      18.293  -8.692  36.347  1.00  0.00    -0.199 OA
BRANCH   6   9
HETATM    9  C1  UNK     1      20.888  -8.619  36.074  1.00  0.00     0.081 A 
HETATM   10  C7  UNK     1      21.145  -9.726  35.283  1.00  0.00     0.026 A 
HETATM   11  C11 UNK     1      22.368 -10.383  35.411  1.00  0.00     0.008 A 
HETATM   12  C9  UNK     1      23.315  -9.926  36.327  1.00  0.00    -0.062 A 
HETATM   13  C12 UNK     1      23.038  -8.808  37.116  1.00  0.00     0.008 A 
HETATM   14  C18 UNK     1      24.622 -10.629  36.464  1.00  0.00     0.048 C 
HETATM   15  C8  UNK     1      21.815  -8.150  36.988  1.00  0.00     0.026 A 
ENDBRANCH   6   9
ENDBRANCH   4   6
ENDBRANCH   1   4
BRANCH   2  16
HETATM   16  C3  UNK     1      19.582  -2.868  36.471  1.00  0.00     0.066 A 
HETATM   17  C10 UNK     1      20.007  -2.310  35.168  1.00  0.00     0.300 A 
HETATM   18  O1  UNK     1      19.612  -1.006  34.887  1.00  0.00    -0.274 OA
HETATM   19  O4  UNK     1      20.673  -2.962  34.369  1.00  0.00    -0.259 OA
HETATM   20  C5  UNK     1      18.846  -0.249  35.795  1.00  0.00     0.089 A 
HETATM   21  C14 UNK     1      18.499   1.048  35.427  1.00  0.00     0.038 A 
HETATM   22  C2  UNK     1      18.457  -0.793  37.016  1.00  0.00    -0.001 A 
HETATM   23  C17 UNK     1      17.741   1.820  36.304  1.00  0.00     0.003 A 
HETATM   24  C16 UNK     1      17.342   1.292  37.534  1.00  0.00     0.001 A 
HETATM   25  C13 UNK     1      17.697  -0.011  37.891  1.00  0.00     0.014 A 
HETATM   26  C4  UNK     1      18.854  -2.155  37.338  1.00  0.00     0.034 A 
ENDBRANCH   2  16
TORSDOF 4
ENDMDL
MODEL 9
REMARK VINA RESULT:      -8.8      8.424     10.937
REMARK  4 active torsions:
REMARK  status: ('A' for Active; 'I' for Inactive)
REMARK    1  A    between atoms: C1_8  and  S1_1 
REMARK    2  A    between atoms: N1_6  and  S1_1 
REMARK    3  A    between atoms: N1_6  and  N2_7 
REMARK    4  A    between atoms: C3_10  and  C6_13 
ROOT
HETATM    1  N2  UNK     1      20.156  -4.977  35.651  1.00  0.00    -0.169 NA
HETATM    2  C6  UNK     1      20.254  -4.016  36.527  1.00  0.00     0.068 C 
HETATM    3  C15 UNK     1      20.876  -4.188  37.899  1.00  0.00     0.073 C 
ENDROOT
BRANCH   1   4
HETATM    4  N1  UNK     1      20.667  -6.278  36.044  1.00  0.00    -0.200 N 
HETATM    5  H4  UNK     1      20.939  -6.413  37.025  1.00  0.00     0.202 HD
BRANCH   4   6
HETATM    6  S1  UNK     1      20.079  -7.611  35.159  1.00  0.00     0.277 S 
HETATM    7  O2  UNK     1      21.129  -8.112  34.294  1.00  0.00    -0.199 OA
HETATM    8  O3  UNK     1      18.776  -7.277  34.616  1.00  0.00    -0.199 OA
BRANCH   6   9
HETATM    9  C1  UNK     1      19.847  -8.813  36.435  1.00  0.00     0.081 A 
HETATM   10  C7  UNK     1      20.458 -10.050  36.316  1.00  0.00     0.026 A 
HETATM   11  C11 UNK     1      20.275 -10.998  37.322  1.00  0.00     0.008 A 
HETATM   12  C9  UNK     1      19.485 -10.696  38.432  1.00  0.00    -0.062 A 
HETATM   13  C12 UNK     1      18.878  -9.444  38.534  1.00  0.00     0.008 A 
HETATM   14  C18 UNK     1      19.290 -11.709  39.507  1.00  0.00     0.048 C 
HETATM   15  C8  UNK     1      19.060  -8.495  37.528  1.00  0.00     0.026 A 
ENDBRANCH   6   9
ENDBRANCH   4   6
ENDBRANCH   1   4
BRANCH   2  16
HETATM   16  C3  UNK     1      19.737  -2.685  36.187  1.00  0.00     0.066 A 
HETATM   17  C10 UNK     1      20.077  -2.013  34.914  1.00  0.00     0.300 A 
HETATM   18  O1  UNK     1      19.524  -0.753  34.705  1.00  0.00    -0.274 OA
HETATM   19  O4  UNK     1      20.809  -2.535  34.079  1.00  0.00    -0.259 OA
HETATM   20  C5  UNK     1      18.681  -0.144  35.655  1.00  0.00     0.089 A 
HETATM   21  C14 UNK     1      18.175   1.119  35.357  1.00  0.00     0.038 A 
HETATM   22  C2  UNK     1      18.374  -0.794  36.847  1.00  0.00    -0.001 A 
HETATM   23  C17 UNK     1      17.339   1.746  36.278  1.00  0.00     0.003 A 
HETATM   24  C16 UNK     1      17.020   1.110  37.479  1.00  0.00     0.001 A 
HETATM   25  C13 UNK     1      17.535  -0.158  37.765  1.00  0.00     0.014 A 
HETATM   26  C4  UNK     1      18.937  -2.112  37.095  1.00  0.00     0.034 A 
ENDBRANCH   2  16
TORSDOF 4
ENDMDL
MODEL 10
REMARK VINA RESULT:      -8.7      7.770     13.363
REMARK  4 active torsions:
REMARK  status: ('A' for Active; 'I' for Inactive)
REMARK    1  A    between atoms: C1_8  and  S1_1 
REMARK    2  A    between atoms: N1_6  and  S1_1 
REMARK    3  A    between atoms: N1_6  and  N2_7 
REMARK    4  A    between atoms: C3_10  and  C6_13 
ROOT
HETATM    1  N2  UNK     1      20.250  -4.515  35.995  1.00  0.00    -0.169 NA
HETATM    2  C6  UNK     1      19.853  -5.696  36.382  1.00  0.00     0.068 C 
HETATM    3  C15 UNK     1      18.410  -6.038  36.695  1.00  0.00     0.073 C 
ENDROOT
BRANCH   1   4
HETATM    4  N1  UNK     1      19.232  -3.487  35.879  1.00  0.00    -0.200 N 
HETATM    5  H4  UNK     1      18.357  -3.613  36.401  1.00  0.00     0.202 HD
BRANCH   4   6
HETATM    6  S1  UNK     1      19.798  -1.906  35.586  1.00  0.00     0.277 S 
HETATM    7  O2  UNK     1      21.156  -1.784  36.079  1.00  0.00    -0.199 OA
HETATM    8  O3  UNK     1      18.780  -0.958  35.995  1.00  0.00    -0.199 OA
BRANCH   6   9
HETATM    9  C1  UNK     1      19.888  -1.881  33.820  1.00  0.00     0.081 A 
HETATM   10  C7  UNK     1      20.874  -2.617  33.184  1.00  0.00     0.026 A 
HETATM   11  C11 UNK     1      20.946  -2.598  31.792  1.00  0.00     0.008 A 
HETATM   12  C9  UNK     1      20.032  -1.844  31.056  1.00  0.00    -0.062 A 
HETATM   13  C12 UNK     1      19.045  -1.110  31.713  1.00  0.00     0.008 A 
HETATM   14  C18 UNK     1      20.108  -1.824  29.567  1.00  0.00     0.048 C 
HETATM   15  C8  UNK     1      18.973  -1.128  33.107  1.00  0.00     0.026 A 
ENDBRANCH   6   9
ENDBRANCH   4   6
ENDBRANCH   1   4
BRANCH   2  16
HETATM   16  C3  UNK     1      20.844  -6.768  36.533  1.00  0.00     0.066 A 
HETATM   17  C10 UNK     1      21.950  -6.683  37.513  1.00  0.00     0.300 A 
HETATM   18  O1  UNK     1      22.825  -7.764  37.563  1.00  0.00    -0.274 OA
HETATM   19  O4  UNK     1      22.092  -5.711  38.248  1.00  0.00    -0.259 OA
HETATM   20  C5  UNK     1      22.670  -8.885  36.725  1.00  0.00     0.089 A 
HETATM   21  C14 UNK     1      23.597  -9.919  36.848  1.00  0.00     0.038 A 
HETATM   22  C2  UNK     1      21.623  -8.945  35.810  1.00  0.00    -0.001 A 
HETATM   23  C17 UNK     1      23.469 -11.041  36.033  1.00  0.00     0.003 A 
HETATM   24  C16 UNK     1      22.426 -11.118  35.108  1.00  0.00     0.001 A 
HETATM   25  C13 UNK     1      21.503 -10.074  34.996  1.00  0.00     0.014 A 
HETATM   26  C4  UNK     1      20.691  -7.831  35.734  1.00  0.00     0.034 A 
ENDBRANCH   2  16
TORSDOF 4
ENDMDL
