MODEL 1
REMARK VINA RESULT:      -7.2      0.000      0.000
REMARK  4 active torsions:
REMARK  status: ('A' for Active; 'I' for Inactive)
REMARK    1  A    between atoms: C9_11  and  O1_1 
REMARK    2  A    between atoms: C10_12  and  O2_2 
REMARK    3  A    between atoms: C1_3  and  C3_5 
REMARK    4  A    between atoms: C2_4  and  C4_6 
ROOT
HETATM    1  C3  UNK     1      18.253   3.830  31.276  1.00  0.00     0.012 C 
HETATM    2  C4  UNK     1      19.021   4.943  31.350  1.00  0.00     0.012 C 
ENDROOT
BRANCH   1   3
HETATM    3  C1  UNK     1      18.622   2.602  30.588  1.00  0.00    -0.036 A 
HETATM    4  C5  UNK     1      19.334   1.611  31.263  1.00  0.00     0.014 A 
HETATM    5  C11 UNK     1      19.688   0.434  30.603  1.00  0.00     0.037 A 
HETATM    6  C9  UNK     1      19.328   0.248  29.269  1.00  0.00     0.068 A 
HETATM    7  C13 UNK     1      18.616   1.239  28.594  1.00  0.00     0.037 A 
HETATM    8  C7  UNK     1      18.263   2.416  29.254  1.00  0.00     0.014 A 
BRANCH   6   9
HETATM    9  O1  UNK     1      19.674  -0.901  28.625  1.00  0.00    -0.356 OA
HETATM   10  C15 UNK     1      20.363  -1.890  29.388  1.00  0.00     0.210 C 
ENDBRANCH   6   9
ENDBRANCH   1   3
BRANCH   2  11
HETATM   11  C2  UNK     1      18.639   6.194  32.029  1.00  0.00    -0.036 A 
HETATM   12  C6  UNK     1      17.446   6.811  31.693  1.00  0.00     0.014 A 
HETATM   13  C12 UNK     1      17.085   7.995  32.336  1.00  0.00     0.037 A 
HETATM   14  C10 UNK     1      17.922   8.545  33.307  1.00  0.00     0.068 A 
HETATM   15  C14 UNK     1      19.121   7.911  33.634  1.00  0.00     0.037 A 
HETATM   16  C8  UNK     1      19.482   6.727  32.990  1.00  0.00     0.014 A 
BRANCH  14  17
HETATM   17  O2  UNK     1      17.569   9.700  33.934  1.00  0.00    -0.356 OA
HETATM   18  C16 UNK     1      16.250   9.769  34.474  1.00  0.00     0.210 C 
ENDBRANCH  14  17
ENDBRANCH   2  11
TORSDOF 4
ENDMDL
MODEL 2
REMARK VINA RESULT:      -7.2      0.590      8.319
REMARK  4 active torsions:
REMARK  status: ('A' for Active; 'I' for Inactive)
REMARK    1  A    between atoms: C9_11  and  O1_1 
REMARK    2  A    between atoms: C10_12  and  O2_2 
REMARK    3  A    between atoms: C1_3  and  C3_5 
REMARK    4  A    between atoms: C2_4  and  C4_6 
ROOT
HETATM    1  C3  UNK     1      19.038   5.008  31.341  1.00  0.00     0.012 C 
HETATM    2  C4  UNK     1      18.306   3.869  31.347  1.00  0.00     0.012 C 
ENDROOT
BRANCH   1   3
HETATM    3  C1  UNK     1      18.691   6.232  32.047  1.00  0.00    -0.036 A 
HETATM    4  C5  UNK     1      17.522   6.918  31.722  1.00  0.00     0.014 A 
HETATM    5  C11 UNK     1      17.190   8.092  32.399  1.00  0.00     0.037 A 
HETATM    6  C9  UNK     1      18.028   8.579  33.402  1.00  0.00     0.068 A 
HETATM    7  C13 UNK     1      19.198   7.892  33.728  1.00  0.00     0.037 A 
HETATM    8  C7  UNK     1      19.530   6.719  33.050  1.00  0.00     0.014 A 
BRANCH   6   9
HETATM    9  O1  UNK     1      17.705   9.724  34.063  1.00  0.00    -0.356 OA
HETATM   10  C15 UNK     1      18.613  10.818  33.949  1.00  0.00     0.210 C 
ENDBRANCH   6   9
ENDBRANCH   1   3
BRANCH   2  11
HETATM   11  C2  UNK     1      18.646   2.637  30.615  1.00  0.00    -0.036 A 
HETATM   12  C6  UNK     1      18.227   2.489  29.304  1.00  0.00     0.014 A 
HETATM   13  C12 UNK     1      18.550   1.322  28.611  1.00  0.00     0.037 A 
HETATM   14  C10 UNK     1      19.289   0.320  29.238  1.00  0.00     0.068 A 
HETATM   15  C14 UNK     1      19.704   0.484  30.560  1.00  0.00     0.037 A 
HETATM   16  C8  UNK     1      19.381   1.651  31.253  1.00  0.00     0.014 A 
BRANCH  14  17
HETATM   17  O2  UNK     1      19.604  -0.818  28.562  1.00  0.00    -0.356 OA
HETATM   18  C16 UNK     1      20.259  -1.850  29.298  1.00  0.00     0.210 C 
ENDBRANCH  14  17
ENDBRANCH   2  11
TORSDOF 4
ENDMDL
MODEL 3
REMARK VINA RESULT:      -7.2      0.029      1.611
REMARK  4 active torsions:
REMARK  status: ('A' for Active; 'I' for Inactive)
REMARK    1  A    between atoms: C9_11  and  O1_1 
REMARK    2  A    between atoms: C10_12  and  O2_2 
REMARK    3  A    between atoms: C1_3  and  C3_5 
REMARK    4  A    between atoms: C2_4  and  C4_6 
ROOT
HETATM    1  C3  UNK     1      18.281   3.817  31.285  1.00  0.00     0.012 C 
HETATM    2  C4  UNK     1      19.031   4.944  31.324  1.00  0.00     0.012 C 
ENDROOT
BRANCH   1   3
HETATM    3  C1  UNK     1      18.643   2.594  30.585  1.00  0.00    -0.036 A 
HETATM    4  C5  UNK     1      18.278   2.419  29.251  1.00  0.00     0.014 A 
HETATM    5  C11 UNK     1      18.623   1.245  28.581  1.00  0.00     0.037 A 
HETATM    6  C9  UNK     1      19.336   0.247  29.246  1.00  0.00     0.068 A 
HETATM    7  C13 UNK     1      19.701   0.422  30.581  1.00  0.00     0.037 A 
HETATM    8  C7  UNK     1      19.354   1.596  31.251  1.00  0.00     0.014 A 
BRANCH   6   9
HETATM    9  O1  UNK     1      19.673  -0.899  28.592  1.00  0.00    -0.356 OA
HETATM   10  C15 UNK     1      20.349  -1.902  29.348  1.00  0.00     0.210 C 
ENDBRANCH   6   9
ENDBRANCH   1   3
BRANCH   2  11
HETATM   11  C2  UNK     1      18.655   6.190  32.015  1.00  0.00    -0.036 A 
HETATM   12  C6  UNK     1      19.494   6.706  32.988  1.00  0.00     0.014 A 
HETATM   13  C12 UNK     1      19.138   7.886  33.642  1.00  0.00     0.037 A 
HETATM   14  C10 UNK     1      17.948   8.534  33.313  1.00  0.00     0.068 A 
HETATM   15  C14 UNK     1      17.113   8.001  32.330  1.00  0.00     0.037 A 
HETATM   16  C8  UNK     1      17.469   6.822  31.676  1.00  0.00     0.014 A 
BRANCH  14  17
HETATM   17  O2  UNK     1      17.601   9.685  33.950  1.00  0.00    -0.356 OA
HETATM   18  C16 UNK     1      16.272   9.767  34.464  1.00  0.00     0.210 C 
ENDBRANCH  14  17
ENDBRANCH   2  11
TORSDOF 4
ENDMDL
MODEL 4
REMARK VINA RESULT:      -7.2      0.136      8.370
REMARK  4 active torsions:
REMARK  status: ('A' for Active; 'I' for Inactive)
REMARK    1  A    between atoms: C9_11  and  O1_1 
REMARK    2  A    between atoms: C10_12  and  O2_2 
REMARK    3  A    between atoms: C1_3  and  C3_5 
REMARK    4  A    between atoms: C2_4  and  C4_6 
ROOT
HETATM    1  C3  UNK     1      19.039   4.949  31.361  1.00  0.00     0.012 C 
HETATM    2  C4  UNK     1      18.265   3.841  31.284  1.00  0.00     0.012 C 
ENDROOT
BRANCH   1   3
HETATM    3  C1  UNK     1      18.671   6.183  32.040  1.00  0.00    -0.036 A 
HETATM    4  C5  UNK     1      17.479   6.829  31.715  1.00  0.00     0.014 A 
HETATM    5  C11 UNK     1      17.128   8.013  32.364  1.00  0.00     0.037 A 
HETATM    6  C9  UNK     1      17.969   8.548  33.340  1.00  0.00     0.068 A 
HETATM    7  C13 UNK     1      19.161   7.901  33.665  1.00  0.00     0.037 A 
HETATM    8  C7  UNK     1      19.512   6.718  33.014  1.00  0.00     0.014 A 
BRANCH   6   9
HETATM    9  O1  UNK     1      17.626   9.703  33.975  1.00  0.00    -0.356 OA
HETATM   10  C15 UNK     1      16.242  10.047  33.992  1.00  0.00     0.210 C 
ENDBRANCH   6   9
ENDBRANCH   1   3
BRANCH   2  11
HETATM   11  C2  UNK     1      18.628   2.599  30.580  1.00  0.00    -0.036 A 
HETATM   12  C6  UNK     1      19.334   1.617  31.254  1.00  0.00     0.014 A 
HETATM   13  C12 UNK     1      19.678   0.441  30.587  1.00  0.00     0.037 A 
HETATM   14  C10 UNK     1      19.310   0.263  29.253  1.00  0.00     0.068 A 
HETATM   15  C14 UNK     1      18.599   1.262  28.587  1.00  0.00     0.037 A 
HETATM   16  C8  UNK     1      18.256   2.437  29.255  1.00  0.00     0.014 A 
BRANCH  14  17
HETATM   17  O2  UNK     1      19.645  -0.883  28.602  1.00  0.00    -0.356 OA
HETATM   18  C16 UNK     1      20.351  -1.872  29.351  1.00  0.00     0.210 C 
ENDBRANCH  14  17
ENDBRANCH   2  11
TORSDOF 4
ENDMDL
MODEL 5
REMARK VINA RESULT:      -7.1      0.391      8.252
REMARK  4 active torsions:
REMARK  status: ('A' for Active; 'I' for Inactive)
REMARK    1  A    between atoms: C9_11  and  O1_1 
REMARK    2  A    between atoms: C10_12  and  O2_2 
REMARK    3  A    between atoms: C1_3  and  C3_5 
REMARK    4  A    between atoms: C2_4  and  C4_6 
ROOT
HETATM    1  C3  UNK     1      18.956   4.736  31.614  1.00  0.00     0.012 C 
HETATM    2  C4  UNK     1      18.148   3.698  31.292  1.00  0.00     0.012 C 
ENDROOT
BRANCH   1   3
HETATM    3  C1  UNK     1      18.532   5.950  32.294  1.00  0.00    -0.036 A 
HETATM    4  C5  UNK     1      19.473   6.757  32.933  1.00  0.00     0.014 A 
HETATM    5  C11 UNK     1      19.065   7.920  33.587  1.00  0.00     0.037 A 
HETATM    6  C9  UNK     1      17.717   8.276  33.600  1.00  0.00     0.068 A 
HETATM    7  C13 UNK     1      16.776   7.469  32.961  1.00  0.00     0.037 A 
HETATM    8  C7  UNK     1      17.184   6.305  32.308  1.00  0.00     0.014 A 
BRANCH   6   9
HETATM    9  O1  UNK     1      17.319   9.412  34.237  1.00  0.00    -0.356 OA
HETATM   10  C15 UNK     1      16.068   9.972  33.844  1.00  0.00     0.210 C 
ENDBRANCH   6   9
ENDBRANCH   1   3
BRANCH   2  11
HETATM   11  C2  UNK     1      18.573   2.478  30.584  1.00  0.00    -0.036 A 
HETATM   12  C6  UNK     1      18.219   2.305  29.257  1.00  0.00     0.014 A 
HETATM   13  C12 UNK     1      18.623   1.149  28.588  1.00  0.00     0.037 A 
HETATM   14  C10 UNK     1      19.375   0.183  29.255  1.00  0.00     0.068 A 
HETATM   15  C14 UNK     1      19.724   0.373  30.592  1.00  0.00     0.037 A 
HETATM   16  C8  UNK     1      19.321   1.528  31.262  1.00  0.00     0.014 A 
BRANCH  14  17
HETATM   17  O2  UNK     1      19.769  -0.943  28.601  1.00  0.00    -0.356 OA
HETATM   18  C16 UNK     1      20.452  -1.934  29.369  1.00  0.00     0.210 C 
ENDBRANCH  14  17
ENDBRANCH   2  11
TORSDOF 4
ENDMDL
MODEL 6
REMARK VINA RESULT:      -6.6      1.410      1.955
REMARK  4 active torsions:
REMARK  status: ('A' for Active; 'I' for Inactive)
REMARK    1  A    between atoms: C9_11  and  O1_1 
REMARK    2  A    between atoms: C10_12  and  O2_2 
REMARK    3  A    between atoms: C1_3  and  C3_5 
REMARK    4  A    between atoms: C2_4  and  C4_6 
ROOT
HETATM    1  C3  UNK     1      17.998   4.344  32.255  1.00  0.00     0.012 C 
HETATM    2  C4  UNK     1      17.408   5.500  31.871  1.00  0.00     0.012 C 
ENDROOT
BRANCH   1   3
HETATM    3  C1  UNK     1      18.374   3.258  31.363  1.00  0.00    -0.036 A 
HETATM    4  C5  UNK     1      18.386   3.460  29.983  1.00  0.00     0.014 A 
HETATM    5  C11 UNK     1      18.745   2.418  29.128  1.00  0.00     0.037 A 
HETATM    6  C9  UNK     1      19.094   1.174  29.654  1.00  0.00     0.068 A 
HETATM    7  C13 UNK     1      19.082   0.971  31.034  1.00  0.00     0.037 A 
HETATM    8  C7  UNK     1      18.722   2.014  31.889  1.00  0.00     0.014 A 
BRANCH   6   9
HETATM    9  O1  UNK     1      19.445   0.157  28.820  1.00  0.00    -0.356 OA
HETATM   10  C15 UNK     1      20.601  -0.601  29.171  1.00  0.00     0.210 C 
ENDBRANCH   6   9
ENDBRANCH   1   3
BRANCH   2  11
HETATM   11  C2  UNK     1      17.009   6.591  32.777  1.00  0.00    -0.036 A 
HETATM   12  C6  UNK     1      16.252   7.641  32.283  1.00  0.00     0.014 A 
HETATM   13  C12 UNK     1      15.874   8.673  33.141  1.00  0.00     0.037 A 
HETATM   14  C10 UNK     1      16.257   8.642  34.482  1.00  0.00     0.068 A 
HETATM   15  C14 UNK     1      17.019   7.578  34.964  1.00  0.00     0.037 A 
HETATM   16  C8  UNK     1      17.397   6.545  34.106  1.00  0.00     0.014 A 
BRANCH  14  17
HETATM   17  O2  UNK     1      15.887   9.649  35.319  1.00  0.00    -0.356 OA
HETATM   18  C16 UNK     1      14.570  10.175  35.160  1.00  0.00     0.210 C 
ENDBRANCH  14  17
ENDBRANCH   2  11
TORSDOF 4
ENDMDL
MODEL 7
REMARK VINA RESULT:      -6.4      1.901      3.662
REMARK  4 active torsions:
REMARK  status: ('A' for Active; 'I' for Inactive)
REMARK    1  A    between atoms: C9_11  and  O1_1 
REMARK    2  A    between atoms: C10_12  and  O2_2 
REMARK    3  A    between atoms: C1_3  and  C3_5 
REMARK    4  A    between atoms: C2_4  and  C4_6 
ROOT
HETATM    1  C3  UNK     1      18.526   7.068  32.378  1.00  0.00     0.012 C 
HETATM    2  C4  UNK     1      17.480   7.693  32.968  1.00  0.00     0.012 C 
ENDROOT
BRANCH   1   3
HETATM    3  C1  UNK     1      18.511   5.703  31.875  1.00  0.00    -0.036 A 
HETATM    4  C5  UNK     1      18.060   4.665  32.688  1.00  0.00     0.014 A 
HETATM    5  C11 UNK     1      18.047   3.355  32.206  1.00  0.00     0.037 A 
HETATM    6  C9  UNK     1      18.485   3.086  30.909  1.00  0.00     0.068 A 
HETATM    7  C13 UNK     1      18.937   4.125  30.096  1.00  0.00     0.037 A 
HETATM    8  C7  UNK     1      18.950   5.434  30.579  1.00  0.00     0.014 A 
BRANCH   6   9
HETATM    9  O1  UNK     1      18.473   1.809  30.439  1.00  0.00    -0.356 OA
HETATM   10  C15 UNK     1      18.118   1.625  29.069  1.00  0.00     0.210 C 
ENDBRANCH   6   9
ENDBRANCH   1   3
BRANCH   2  11
HETATM   11  C2  UNK     1      17.501   9.069  33.496  1.00  0.00    -0.036 A 
HETATM   12  C6  UNK     1      18.717   9.675  33.763  1.00  0.00     0.014 A 
HETATM   13  C12 UNK     1      18.736  10.977  34.262  1.00  0.00     0.037 A 
HETATM   14  C10 UNK     1      17.539  11.656  34.488  1.00  0.00     0.068 A 
HETATM   15  C14 UNK     1      16.322  11.031  34.214  1.00  0.00     0.037 A 
HETATM   16  C8  UNK     1      16.302   9.729  33.715  1.00  0.00     0.014 A 
BRANCH  14  17
HETATM   17  O2  UNK     1      17.558  12.926  34.975  1.00  0.00    -0.356 OA
HETATM   18  C16 UNK     1      16.562  13.267  35.939  1.00  0.00     0.210 C 
ENDBRANCH  14  17
ENDBRANCH   2  11
TORSDOF 4
ENDMDL
MODEL 8
REMARK VINA RESULT:      -6.4      2.131      8.988
REMARK  4 active torsions:
REMARK  status: ('A' for Active; 'I' for Inactive)
REMARK    1  A    between atoms: C9_11  and  O1_1 
REMARK    2  A    between atoms: C10_12  and  O2_2 
REMARK    3  A    between atoms: C1_3  and  C3_5 
REMARK    4  A    between atoms: C2_4  and  C4_6 
ROOT
HETATM    1  C3  UNK     1      16.689   7.579  32.953  1.00  0.00     0.012 C 
HETATM    2  C4  UNK     1      17.879   7.275  32.383  1.00  0.00     0.012 C 
ENDROOT
BRANCH   1   3
HETATM    3  C1  UNK     1      16.383   8.821  33.645  1.00  0.00    -0.036 A 
HETATM    4  C5  UNK     1      17.352   9.819  33.748  1.00  0.00     0.014 A 
HETATM    5  C11 UNK     1      17.058  11.010  34.413  1.00  0.00     0.037 A 
HETATM    6  C9  UNK     1      15.795  11.203  34.973  1.00  0.00     0.068 A 
HETATM    7  C13 UNK     1      14.827  10.205  34.870  1.00  0.00     0.037 A 
HETATM    8  C7  UNK     1      15.121   9.014  34.205  1.00  0.00     0.014 A 
BRANCH   6   9
HETATM    9  O1  UNK     1      15.509  12.365  35.621  1.00  0.00    -0.356 OA
HETATM   10  C15 UNK     1      16.585  13.283  35.814  1.00  0.00     0.210 C 
ENDBRANCH   6   9
ENDBRANCH   1   3
BRANCH   2  11
HETATM   11  C2  UNK     1      18.195   6.009  31.700  1.00  0.00    -0.036 A 
HETATM   12  C6  UNK     1      17.842   4.810  32.297  1.00  0.00     0.014 A 
HETATM   13  C12 UNK     1      18.141   3.611  31.650  1.00  0.00     0.037 A 
HETATM   14  C10 UNK     1      18.789   3.627  30.415  1.00  0.00     0.068 A 
HETATM   15  C14 UNK     1      19.138   4.843  29.827  1.00  0.00     0.037 A 
HETATM   16  C8  UNK     1      18.839   6.042  30.474  1.00  0.00     0.014 A 
BRANCH  14  17
HETATM   17  O2  UNK     1      19.081   2.457  29.784  1.00  0.00    -0.356 OA
HETATM   18  C16 UNK     1      18.113   1.959  28.861  1.00  0.00     0.210 C 
ENDBRANCH  14  17
ENDBRANCH   2  11
TORSDOF 4
ENDMDL
MODEL 9
REMARK VINA RESULT:      -6.4     13.047     17.766
REMARK  4 active torsions:
REMARK  status: ('A' for Active; 'I' for Inactive)
REMARK    1  A    between atoms: C9_11  and  O1_1 
REMARK    2  A    between atoms: C10_12  and  O2_2 
REMARK    3  A    between atoms: C1_3  and  C3_5 
REMARK    4  A    between atoms: C2_4  and  C4_6 
ROOT
HETATM    1  C3  UNK     1      18.986  -0.375  16.523  1.00  0.00     0.012 C 
HETATM    2  C4  UNK     1      18.775  -1.705  16.386  1.00  0.00     0.012 C 
ENDROOT
BRANCH   1   3
HETATM    3  C1  UNK     1      18.956   0.354  17.782  1.00  0.00    -0.036 A 
HETATM    4  C5  UNK     1      19.018   1.747  17.784  1.00  0.00     0.014 A 
HETATM    5  C11 UNK     1      18.991   2.445  18.992  1.00  0.00     0.037 A 
HETATM    6  C9  UNK     1      18.900   1.748  20.197  1.00  0.00     0.068 A 
HETATM    7  C13 UNK     1      18.838   0.355  20.195  1.00  0.00     0.037 A 
HETATM    8  C7  UNK     1      18.866  -0.343  18.987  1.00  0.00     0.014 A 
BRANCH   6   9
HETATM    9  O1  UNK     1      18.873   2.430  21.376  1.00  0.00    -0.356 OA
HETATM   10  C15 UNK     1      20.041   2.359  22.193  1.00  0.00     0.210 C 
ENDBRANCH   6   9
ENDBRANCH   1   3
BRANCH   2  11
HETATM   11  C2  UNK     1      18.785  -2.439  15.108  1.00  0.00    -0.036 A 
HETATM   12  C6  UNK     1      18.482  -3.790  15.099  1.00  0.00     0.014 A 
HETATM   13  C12 UNK     1      18.490  -4.484  13.889  1.00  0.00     0.037 A 
HETATM   14  C10 UNK     1      18.802  -3.817  12.704  1.00  0.00     0.068 A 
HETATM   15  C14 UNK     1      19.106  -2.456  12.730  1.00  0.00     0.037 A 
HETATM   16  C8  UNK     1      19.097  -1.762  13.940  1.00  0.00     0.014 A 
BRANCH  14  17
HETATM   17  O2  UNK     1      18.810  -4.494  11.524  1.00  0.00    -0.356 OA
HETATM   18  C16 UNK     1      19.069  -3.736  10.343  1.00  0.00     0.210 C 
ENDBRANCH  14  17
ENDBRANCH   2  11
TORSDOF 4
ENDMDL
MODEL 10
REMARK VINA RESULT:      -6.4     13.014     16.049
REMARK  4 active torsions:
REMARK  status: ('A' for Active; 'I' for Inactive)
REMARK    1  A    between atoms: C9_11  and  O1_1 
REMARK    2  A    between atoms: C10_12  and  O2_2 
REMARK    3  A    between atoms: C1_3  and  C3_5 
REMARK    4  A    between atoms: C2_4  and  C4_6 
ROOT
HETATM    1  C3  UNK     1      18.797  -1.772  16.443  1.00  0.00     0.012 C 
HETATM    2  C4  UNK     1      18.956  -0.432  16.552  1.00  0.00     0.012 C 
ENDROOT
BRANCH   1   3
HETATM    3  C1  UNK     1      18.792  -2.518  15.194  1.00  0.00    -0.036 A 
HETATM    4  C5  UNK     1      18.422  -3.862  15.185  1.00  0.00     0.014 A 
HETATM    5  C11 UNK     1      18.419  -4.577  13.987  1.00  0.00     0.037 A 
HETATM    6  C9  UNK     1      18.785  -3.946  12.798  1.00  0.00     0.068 A 
HETATM    7  C13 UNK     1      19.155  -2.602  12.807  1.00  0.00     0.037 A 
HETATM    8  C7  UNK     1      19.159  -1.887  14.006  1.00  0.00     0.014 A 
BRANCH   6   9
HETATM    9  O1  UNK     1      18.782  -4.644  11.629  1.00  0.00    -0.356 OA
HETATM   10  C15 UNK     1      18.925  -3.892  10.424  1.00  0.00     0.210 C 
ENDBRANCH   6   9
ENDBRANCH   1   3
BRANCH   2  11
HETATM   11  C2  UNK     1      18.940   0.325  17.816  1.00  0.00    -0.036 A 
HETATM   12  C6  UNK     1      19.005   1.708  17.779  1.00  0.00     0.014 A 
HETATM   13  C12 UNK     1      18.989   2.424  18.976  1.00  0.00     0.037 A 
HETATM   14  C10 UNK     1      18.908   1.748  20.193  1.00  0.00     0.068 A 
HETATM   15  C14 UNK     1      18.843   0.354  20.213  1.00  0.00     0.037 A 
HETATM   16  C8  UNK     1      18.858  -0.362  19.016  1.00  0.00     0.014 A 
BRANCH  14  17
HETATM   17  O2  UNK     1      18.892   2.447  21.360  1.00  0.00    -0.356 OA
HETATM   18  C16 UNK     1      20.045   2.342  22.196  1.00  0.00     0.210 C 
ENDBRANCH  14  17
ENDBRANCH   2  11
TORSDOF 4
ENDMDL
