MODEL 1
REMARK VINA RESULT:      -8.0      0.000      0.000
REMARK  3 active torsions:
REMARK  status: ('A' for Active; 'I' for Inactive)
REMARK    1  A    between atoms: C6_12  and  O2_3 
REMARK    2  A    between atoms: C1_7  and  C4_10 
REMARK    3  A    between atoms: C2_8  and  C6_12 
ROOT
HETATM    1  O1  UNK     1      19.046   4.574  29.971  1.00  0.00    -0.321 OA
HETATM    2  O3  UNK     1      17.838   2.229  33.085  1.00  0.00    -0.287 OA
HETATM    3  C4  UNK     1      18.652   2.352  30.857  1.00  0.00     0.058 A 
HETATM    4  C5  UNK     1      18.200   2.930  32.148  1.00  0.00     0.196 A 
HETATM    5  C7  UNK     1      18.213   4.401  32.246  1.00  0.00     0.049 A 
HETATM    6  C8  UNK     1      19.029   3.203  29.895  1.00  0.00     0.156 A 
HETATM    7  C9  UNK     1      18.636   5.150  31.147  1.00  0.00     0.089 A 
HETATM    8  C10 UNK     1      17.805   5.041  33.419  1.00  0.00     0.018 A 
HETATM    9  C11 UNK     1      18.655   6.543  31.217  1.00  0.00     0.038 A 
HETATM   10  C12 UNK     1      17.826   6.435  33.485  1.00  0.00     0.001 A 
HETATM   11  C13 UNK     1      18.250   7.184  32.387  1.00  0.00     0.003 A 
ENDROOT
BRANCH   3  12
HETATM   12  C1  UNK     1      18.658   0.868  30.705  1.00  0.00     0.322 C 
HETATM   13  N1  UNK     1      19.054   0.162  31.933  1.00  0.00     0.117 N 
HETATM   14  C2  UNK     1      19.515  -1.167  31.499  1.00  0.00     0.328 C 
HETATM   15  H5  UNK     1      19.847   0.649  32.352  1.00  0.00     0.319 HD
HETATM   16  C3  UNK     1      20.524  -0.970  30.378  1.00  0.00     0.123 C 
HETATM   17  S1  UNK     1      19.816   0.372  29.393  1.00  0.00    -0.126 SA
BRANCH  14  18
HETATM   18  C6  UNK     1      20.130  -1.832  32.686  1.00  0.00     0.175 C 
HETATM   19  O4  UNK     1      21.288  -2.218  32.752  1.00  0.00    -0.648 OA
BRANCH  18  20
HETATM   20  O2  UNK     1      19.226  -1.956  33.688  1.00  0.00    -0.775 OA
HETATM   21  H11 UNK     1      19.602  -2.424  34.464  1.00  0.00     0.167 HD
ENDBRANCH  18  20
ENDBRANCH  14  18
ENDBRANCH   3  12
TORSDOF 3
ENDMDL
MODEL 2
REMARK VINA RESULT:      -7.9      2.647      6.851
REMARK  3 active torsions:
REMARK  status: ('A' for Active; 'I' for Inactive)
REMARK    1  A    between atoms: C6_12  and  O2_3 
REMARK    2  A    between atoms: C1_7  and  C4_10 
REMARK    3  A    between atoms: C2_8  and  C6_12 
ROOT
HETATM    1  O1  UNK     1      18.616   0.938  33.076  1.00  0.00    -0.321 OA
HETATM    2  O3  UNK     1      18.651   4.002  30.380  1.00  0.00    -0.287 OA
HETATM    3  C4  UNK     1      18.229   3.285  32.604  1.00  0.00     0.058 A 
HETATM    4  C5  UNK     1      18.639   3.085  31.191  1.00  0.00     0.196 A 
HETATM    5  C7  UNK     1      19.034   1.716  30.813  1.00  0.00     0.049 A 
HETATM    6  C8  UNK     1      18.250   2.217  33.413  1.00  0.00     0.156 A 
HETATM    7  C9  UNK     1      19.002   0.708  31.779  1.00  0.00     0.089 A 
HETATM    8  C10 UNK     1      19.436   1.425  29.507  1.00  0.00     0.018 A 
HETATM    9  C11 UNK     1      19.371  -0.594  31.443  1.00  0.00     0.038 A 
HETATM   10  C12 UNK     1      19.805   0.121  29.174  1.00  0.00     0.001 A 
HETATM   11  C13 UNK     1      19.773  -0.886  30.140  1.00  0.00     0.003 A 
ENDROOT
BRANCH   3  12
HETATM   12  C1  UNK     1      17.818   4.651  33.040  1.00  0.00     0.322 C 
HETATM   13  N1  UNK     1      17.130   5.412  31.986  1.00  0.00     0.117 N 
HETATM   14  C2  UNK     1      17.270   6.828  32.360  1.00  0.00     0.328 C 
HETATM   15  H5  UNK     1      17.621   5.269  31.102  1.00  0.00     0.319 HD
HETATM   16  C3  UNK     1      18.739   7.094  32.650  1.00  0.00     0.123 C 
HETATM   17  S1  UNK     1      19.273   5.617  33.549  1.00  0.00    -0.126 SA
BRANCH  14  18
HETATM   18  C6  UNK     1      16.779   7.641  31.207  1.00  0.00     0.175 C 
HETATM   19  O4  UNK     1      15.951   8.537  31.282  1.00  0.00    -0.648 OA
BRANCH  18  20
HETATM   20  O2  UNK     1      17.377   7.249  30.055  1.00  0.00    -0.775 OA
HETATM   21  H11 UNK     1      17.038   6.382  29.744  1.00  0.00     0.167 HD
ENDBRANCH  18  20
ENDBRANCH  14  18
ENDBRANCH   3  12
TORSDOF 3
ENDMDL
MODEL 3
REMARK VINA RESULT:      -7.7      3.437      6.328
REMARK  3 active torsions:
REMARK  status: ('A' for Active; 'I' for Inactive)
REMARK    1  A    between atoms: C6_12  and  O2_3 
REMARK    2  A    between atoms: C1_7  and  C4_10 
REMARK    3  A    between atoms: C2_8  and  C6_12 
ROOT
HETATM    1  O1  UNK     1      20.883  -2.958  33.436  1.00  0.00    -0.321 OA
HETATM    2  O3  UNK     1      18.668   0.431  32.927  1.00  0.00    -0.287 OA
HETATM    3  C4  UNK     1      20.280  -1.069  32.039  1.00  0.00     0.058 A 
HETATM    4  C5  UNK     1      19.334  -0.585  33.076  1.00  0.00     0.196 A 
HETATM    5  C7  UNK     1      19.238  -1.396  34.303  1.00  0.00     0.049 A 
HETATM    6  C8  UNK     1      20.963  -2.192  32.300  1.00  0.00     0.156 A 
HETATM    7  C9  UNK     1      20.021  -2.545  34.421  1.00  0.00     0.089 A 
HETATM    8  C10 UNK     1      18.376  -1.023  35.339  1.00  0.00     0.018 A 
HETATM    9  C11 UNK     1      19.946  -3.327  35.573  1.00  0.00     0.038 A 
HETATM   10  C12 UNK     1      18.303  -1.808  36.490  1.00  0.00     0.001 A 
HETATM   11  C13 UNK     1      19.086  -2.958  36.607  1.00  0.00     0.003 A 
ENDROOT
BRANCH   3  12
HETATM   12  C1  UNK     1      20.418  -0.285  30.778  1.00  0.00     0.322 C 
HETATM   13  N1  UNK     1      19.351   0.711  30.597  1.00  0.00     0.117 N 
HETATM   14  C2  UNK     1      19.314   0.999  29.154  1.00  0.00     0.328 C 
HETATM   15  H5  UNK     1      18.458   0.289  30.858  1.00  0.00     0.319 HD
HETATM   16  C3  UNK     1      19.247  -0.328  28.413  1.00  0.00     0.123 C 
HETATM   17  S1  UNK     1      20.380  -1.394  29.337  1.00  0.00    -0.126 SA
BRANCH  14  18
HETATM   18  C6  UNK     1      18.103   1.835  28.900  1.00  0.00     0.175 C 
HETATM   19  O4  UNK     1      17.757   2.254  27.806  1.00  0.00    -0.648 OA
BRANCH  18  20
HETATM   20  O2  UNK     1      17.435   2.074  30.055  1.00  0.00    -0.775 OA
HETATM   21  H11 UNK     1      17.706   2.922  30.467  1.00  0.00     0.167 HD
ENDBRANCH  18  20
ENDBRANCH  14  18
ENDBRANCH   3  12
TORSDOF 3
ENDMDL
MODEL 4
REMARK VINA RESULT:      -7.7      2.811      6.717
REMARK  3 active torsions:
REMARK  status: ('A' for Active; 'I' for Inactive)
REMARK    1  A    between atoms: C6_12  and  O2_3 
REMARK    2  A    between atoms: C1_7  and  C4_10 
REMARK    3  A    between atoms: C2_8  and  C6_12 
ROOT
HETATM    1  O1  UNK     1      19.070   2.518  29.503  1.00  0.00    -0.321 OA
HETATM    2  O3  UNK     1      18.251   1.930  33.457  1.00  0.00    -0.287 OA
HETATM    3  C4  UNK     1      18.269   3.419  31.607  1.00  0.00     0.058 A 
HETATM    4  C5  UNK     1      18.496   2.110  32.271  1.00  0.00     0.196 A 
HETATM    5  C7  UNK     1      19.035   1.032  31.423  1.00  0.00     0.049 A 
HETATM    6  C8  UNK     1      18.569   3.513  30.305  1.00  0.00     0.156 A 
HETATM    7  C9  UNK     1      19.296   1.292  30.077  1.00  0.00     0.089 A 
HETATM    8  C10 UNK     1      19.284  -0.237  31.955  1.00  0.00     0.018 A 
HETATM    9  C11 UNK     1      19.806   0.286  29.256  1.00  0.00     0.038 A 
HETATM   10  C12 UNK     1      19.794  -1.241  31.131  1.00  0.00     0.001 A 
HETATM   11  C13 UNK     1      20.054  -0.980  29.784  1.00  0.00     0.003 A 
ENDROOT
BRANCH   3  12
HETATM   12  C1  UNK     1      17.726   4.545  32.420  1.00  0.00     0.322 C 
HETATM   13  N1  UNK     1      16.722   5.346  31.702  1.00  0.00     0.117 N 
HETATM   14  C2  UNK     1      16.690   6.650  32.383  1.00  0.00     0.328 C 
HETATM   15  H5  UNK     1      17.044   5.497  30.745  1.00  0.00     0.319 HD
HETATM   16  C3  UNK     1      18.121   7.154  32.498  1.00  0.00     0.123 C 
HETATM   17  S1  UNK     1      19.067   5.669  32.917  1.00  0.00    -0.126 SA
BRANCH  14  18
HETATM   18  C6  UNK     1      15.848   7.563  31.552  1.00  0.00     0.175 C 
HETATM   19  O4  UNK     1      16.247   8.580  31.004  1.00  0.00    -0.648 OA
BRANCH  18  20
HETATM   20  O2  UNK     1      14.572   7.111  31.489  1.00  0.00    -0.775 OA
HETATM   21  H11 UNK     1      14.147   7.334  30.633  1.00  0.00     0.167 HD
ENDBRANCH  18  20
ENDBRANCH  14  18
ENDBRANCH   3  12
TORSDOF 3
ENDMDL
MODEL 5
REMARK VINA RESULT:      -7.6     14.673     15.972
REMARK  3 active torsions:
REMARK  status: ('A' for Active; 'I' for Inactive)
REMARK    1  A    between atoms: C6_12  and  O2_3 
REMARK    2  A    between atoms: C1_7  and  C4_10 
REMARK    3  A    between atoms: C2_8  and  C6_12 
ROOT
HETATM    1  O1  UNK     1      19.449   1.396  15.205  1.00  0.00    -0.321 OA
HETATM    2  O3  UNK     1      18.669  -1.520  17.952  1.00  0.00    -0.287 OA
HETATM    3  C4  UNK     1      19.047  -0.949  15.678  1.00  0.00     0.058 A 
HETATM    4  C5  UNK     1      18.902  -0.648  17.125  1.00  0.00     0.196 A 
HETATM    5  C7  UNK     1      19.056   0.765  17.518  1.00  0.00     0.049 A 
HETATM    6  C8  UNK     1      19.302   0.076  14.854  1.00  0.00     0.156 A 
HETATM    7  C9  UNK     1      19.323   1.718  16.533  1.00  0.00     0.089 A 
HETATM    8  C10 UNK     1      18.938   1.151  18.856  1.00  0.00     0.018 A 
HETATM    9  C11 UNK     1      19.472   3.060  16.882  1.00  0.00     0.038 A 
HETATM   10  C12 UNK     1      19.088   2.494  19.201  1.00  0.00     0.001 A 
HETATM   11  C13 UNK     1      19.354   3.447  18.216  1.00  0.00     0.003 A 
ENDROOT
BRANCH   3  12
HETATM   12  C1  UNK     1      18.899  -2.362  15.227  1.00  0.00     0.322 C 
HETATM   13  N1  UNK     1      19.881  -3.271  15.838  1.00  0.00     0.117 N 
HETATM   14  C2  UNK     1      19.960  -4.436  14.942  1.00  0.00     0.328 C 
HETATM   15  H5  UNK     1      20.794  -2.814  15.842  1.00  0.00     0.319 HD
HETATM   16  C3  UNK     1      20.178  -3.925  13.526  1.00  0.00     0.123 C 
HETATM   17  S1  UNK     1      19.102  -2.474  13.422  1.00  0.00    -0.126 SA
BRANCH  14  18
HETATM   18  C6  UNK     1      21.102  -5.277  15.408  1.00  0.00     0.175 C 
HETATM   19  O4  UNK     1      21.601  -6.195  14.775  1.00  0.00    -0.648 OA
BRANCH  18  20
HETATM   20  O2  UNK     1      21.514  -4.886  16.639  1.00  0.00    -0.775 OA
HETATM   21  H11 UNK     1      22.448  -4.583  16.634  1.00  0.00     0.167 HD
ENDBRANCH  18  20
ENDBRANCH  14  18
ENDBRANCH   3  12
TORSDOF 3
ENDMDL
MODEL 6
REMARK VINA RESULT:      -7.5      3.738      6.291
REMARK  3 active torsions:
REMARK  status: ('A' for Active; 'I' for Inactive)
REMARK    1  A    between atoms: C6_12  and  O2_3 
REMARK    2  A    between atoms: C1_7  and  C4_10 
REMARK    3  A    between atoms: C2_8  and  C6_12 
ROOT
HETATM    1  O1  UNK     1      19.544  -1.887  32.769  1.00  0.00    -0.321 OA
HETATM    2  O3  UNK     1      18.298   1.947  32.133  1.00  0.00    -0.287 OA
HETATM    3  C4  UNK     1      18.474   0.112  33.630  1.00  0.00     0.058 A 
HETATM    4  C5  UNK     1      18.670   0.796  32.327  1.00  0.00     0.196 A 
HETATM    5  C7  UNK     1      19.341   0.015  31.273  1.00  0.00     0.049 A 
HETATM    6  C8  UNK     1      18.917  -1.147  33.742  1.00  0.00     0.156 A 
HETATM    7  C9  UNK     1      19.745  -1.292  31.549  1.00  0.00     0.089 A 
HETATM    8  C10 UNK     1      19.572   0.570  30.011  1.00  0.00     0.018 A 
HETATM    9  C11 UNK     1      20.381  -2.049  30.566  1.00  0.00     0.038 A 
HETATM   10  C12 UNK     1      20.209  -0.191  29.030  1.00  0.00     0.001 A 
HETATM   11  C13 UNK     1      20.613  -1.497  29.307  1.00  0.00     0.003 A 
ENDROOT
BRANCH   3  12
HETATM   12  C1  UNK     1      17.799   0.857  34.732  1.00  0.00     0.322 C 
HETATM   13  N1  UNK     1      18.438   0.658  36.042  1.00  0.00     0.117 N 
HETATM   14  C2  UNK     1      17.410   0.985  37.042  1.00  0.00     0.328 C 
HETATM   15  H5  UNK     1      18.677  -0.329  36.145  1.00  0.00     0.319 HD
HETATM   16  C3  UNK     1      16.149   0.211  36.688  1.00  0.00     0.123 C 
HETATM   17  S1  UNK     1      16.066   0.326  34.884  1.00  0.00    -0.126 SA
BRANCH  14  18
HETATM   18  C6  UNK     1      17.947   0.585  38.377  1.00  0.00     0.175 C 
HETATM   19  O4  UNK     1      18.400  -0.517  38.649  1.00  0.00    -0.648 OA
BRANCH  18  20
HETATM   20  O2  UNK     1      17.863   1.614  39.255  1.00  0.00    -0.775 OA
HETATM   21  H11 UNK     1      17.745   1.300  40.177  1.00  0.00     0.167 HD
ENDBRANCH  18  20
ENDBRANCH  14  18
ENDBRANCH   3  12
TORSDOF 3
ENDMDL
MODEL 7
REMARK VINA RESULT:      -7.4     22.768     24.395
REMARK  3 active torsions:
REMARK  status: ('A' for Active; 'I' for Inactive)
REMARK    1  A    between atoms: C6_12  and  O2_3 
REMARK    2  A    between atoms: C1_7  and  C4_10 
REMARK    3  A    between atoms: C2_8  and  C6_12 
ROOT
HETATM    1  O1  UNK     1       8.558   7.841   8.986  1.00  0.00    -0.321 OA
HETATM    2  O3  UNK     1       9.374   3.946   9.890  1.00  0.00    -0.287 OA
HETATM    3  C4  UNK     1      10.079   5.958   8.842  1.00  0.00     0.058 A 
HETATM    4  C5  UNK     1       9.132   5.115   9.616  1.00  0.00     0.196 A 
HETATM    5  C7  UNK     1       7.879   5.762  10.042  1.00  0.00     0.049 A 
HETATM    6  C8  UNK     1       9.721   7.224   8.595  1.00  0.00     0.156 A 
HETATM    7  C9  UNK     1       7.655   7.098   9.703  1.00  0.00     0.089 A 
HETATM    8  C10 UNK     1       6.923   5.053  10.775  1.00  0.00     0.018 A 
HETATM    9  C11 UNK     1       6.475   7.730  10.095  1.00  0.00     0.038 A 
HETATM   10  C12 UNK     1       5.744   5.689  11.166  1.00  0.00     0.001 A 
HETATM   11  C13 UNK     1       5.521   7.025  10.827  1.00  0.00     0.003 A 
ENDROOT
BRANCH   3  12
HETATM   12  C1  UNK     1      11.363   5.351   8.385  1.00  0.00     0.322 C 
HETATM   13  N1  UNK     1      12.323   5.137   9.479  1.00  0.00     0.117 N 
HETATM   14  C2  UNK     1      13.645   5.055   8.839  1.00  0.00     0.328 C 
HETATM   15  H5  UNK     1      12.317   5.957  10.087  1.00  0.00     0.319 HD
HETATM   16  C3  UNK     1      13.798   6.258   7.921  1.00  0.00     0.123 C 
HETATM   17  S1  UNK     1      12.166   6.424   7.156  1.00  0.00    -0.126 SA
BRANCH  14  18
HETATM   18  C6  UNK     1      14.666   5.060   9.929  1.00  0.00     0.175 C 
HETATM   19  O4  UNK     1      14.854   5.981  10.710  1.00  0.00    -0.648 OA
BRANCH  18  20
HETATM   20  O2  UNK     1      15.366   3.899   9.935  1.00  0.00    -0.775 OA
HETATM   21  H11 UNK     1      15.021   3.267  10.603  1.00  0.00     0.167 HD
ENDBRANCH  18  20
ENDBRANCH  14  18
ENDBRANCH   3  12
TORSDOF 3
ENDMDL
MODEL 8
REMARK VINA RESULT:      -7.4      5.449      7.357
REMARK  3 active torsions:
REMARK  status: ('A' for Active; 'I' for Inactive)
REMARK    1  A    between atoms: C6_12  and  O2_3 
REMARK    2  A    between atoms: C1_7  and  C4_10 
REMARK    3  A    between atoms: C2_8  and  C6_12 
ROOT
HETATM    1  O1  UNK     1      18.101  -0.965  38.052  1.00  0.00    -0.321 OA
HETATM    2  O3  UNK     1      19.737  -1.825  34.413  1.00  0.00    -0.287 OA
HETATM    3  C4  UNK     1      19.189  -2.574  36.599  1.00  0.00     0.058 A 
HETATM    4  C5  UNK     1      19.247  -1.570  35.506  1.00  0.00     0.196 A 
HETATM    5  C7  UNK     1      18.681  -0.243  35.807  1.00  0.00     0.049 A 
HETATM    6  C8  UNK     1      18.633  -2.196  37.758  1.00  0.00     0.156 A 
HETATM    7  C9  UNK     1      18.135  -0.007  37.069  1.00  0.00     0.089 A 
HETATM    8  C10 UNK     1      18.689   0.771  34.844  1.00  0.00     0.018 A 
HETATM    9  C11 UNK     1      17.594   1.241  37.375  1.00  0.00     0.038 A 
HETATM   10  C12 UNK     1      18.146   2.019  35.154  1.00  0.00     0.001 A 
HETATM   11  C13 UNK     1      17.600   2.253  36.417  1.00  0.00     0.003 A 
ENDROOT
BRANCH   3  12
HETATM   12  C1  UNK     1      19.749  -3.933  36.348  1.00  0.00     0.322 C 
HETATM   13  N1  UNK     1      18.730  -4.993  36.373  1.00  0.00     0.117 N 
HETATM   14  C2  UNK     1      19.459  -6.243  36.642  1.00  0.00     0.328 C 
HETATM   15  H5  UNK     1      18.096  -4.823  37.155  1.00  0.00     0.319 HD
HETATM   16  C3  UNK     1      20.346  -6.016  37.856  1.00  0.00     0.123 C 
HETATM   17  S1  UNK     1      20.995  -4.345  37.608  1.00  0.00    -0.126 SA
BRANCH  14  18
HETATM   18  C6  UNK     1      18.439  -7.305  36.893  1.00  0.00     0.175 C 
HETATM   19  O4  UNK     1      18.586  -8.492  36.640  1.00  0.00    -0.648 OA
BRANCH  18  20
HETATM   20  O2  UNK     1      17.319  -6.774  37.440  1.00  0.00    -0.775 OA
HETATM   21  H11 UNK     1      16.971  -6.026  36.909  1.00  0.00     0.167 HD
ENDBRANCH  18  20
ENDBRANCH  14  18
ENDBRANCH   3  12
TORSDOF 3
ENDMDL
MODEL 9
REMARK VINA RESULT:      -7.4     22.809     24.768
REMARK  3 active torsions:
REMARK  status: ('A' for Active; 'I' for Inactive)
REMARK    1  A    between atoms: C6_12  and  O2_3 
REMARK    2  A    between atoms: C1_7  and  C4_10 
REMARK    3  A    between atoms: C2_8  and  C6_12 
ROOT
HETATM    1  O1  UNK     1      10.313   7.932   9.490  1.00  0.00    -0.321 OA
HETATM    2  O3  UNK     1      13.378   7.248   6.885  1.00  0.00    -0.287 OA
HETATM    3  C4  UNK     1      12.673   8.135   8.972  1.00  0.00     0.058 A 
HETATM    4  C5  UNK     1      12.460   7.455   7.669  1.00  0.00     0.196 A 
HETATM    5  C7  UNK     1      11.079   7.039   7.366  1.00  0.00     0.049 A 
HETATM    6  C8  UNK     1      11.604   8.314   9.759  1.00  0.00     0.156 A 
HETATM    7  C9  UNK     1      10.071   7.301   8.296  1.00  0.00     0.089 A 
HETATM    8  C10 UNK     1      10.776   6.393   6.164  1.00  0.00     0.018 A 
HETATM    9  C11 UNK     1       8.758   6.917   8.030  1.00  0.00     0.038 A 
HETATM   10  C12 UNK     1       9.460   6.010   5.902  1.00  0.00     0.001 A 
HETATM   11  C13 UNK     1       8.453   6.271   6.832  1.00  0.00     0.003 A 
ENDROOT
BRANCH   3  12
HETATM   12  C1  UNK     1      14.052   8.577   9.328  1.00  0.00     0.322 C 
HETATM   13  N1  UNK     1      15.069   7.540   9.100  1.00  0.00     0.117 N 
HETATM   14  C2  UNK     1      16.211   7.906   9.954  1.00  0.00     0.328 C 
HETATM   15  H5  UNK     1      14.705   6.644   9.427  1.00  0.00     0.319 HD
HETATM   16  C3  UNK     1      15.684   8.157  11.359  1.00  0.00     0.123 C 
HETATM   17  S1  UNK     1      14.132   9.045  11.084  1.00  0.00    -0.126 SA
BRANCH  14  18
HETATM   18  C6  UNK     1      17.173   6.764   9.920  1.00  0.00     0.175 C 
HETATM   19  O4  UNK     1      17.006   5.724   9.302  1.00  0.00    -0.648 OA
BRANCH  18  20
HETATM   20  O2  UNK     1      18.265   7.036  10.676  1.00  0.00    -0.775 OA
HETATM   21  H11 UNK     1      19.033   7.305  10.126  1.00  0.00     0.167 HD
ENDBRANCH  18  20
ENDBRANCH  14  18
ENDBRANCH   3  12
TORSDOF 3
ENDMDL
MODEL 10
REMARK VINA RESULT:      -7.3     13.124     14.474
REMARK  3 active torsions:
REMARK  status: ('A' for Active; 'I' for Inactive)
REMARK    1  A    between atoms: C6_12  and  O2_3 
REMARK    2  A    between atoms: C1_7  and  C4_10 
REMARK    3  A    between atoms: C2_8  and  C6_12 
ROOT
HETATM    1  O1  UNK     1      30.945  -5.649  32.680  1.00  0.00    -0.321 OA
HETATM    2  O3  UNK     1      27.798  -6.875  34.971  1.00  0.00    -0.287 OA
HETATM    3  C4  UNK     1      30.068  -6.185  34.876  1.00  0.00     0.058 A 
HETATM    4  C5  UNK     1      28.744  -6.508  34.286  1.00  0.00     0.196 A 
HETATM    5  C7  UNK     1      28.627  -6.361  32.824  1.00  0.00     0.049 A 
HETATM    6  C8  UNK     1      31.040  -5.792  34.042  1.00  0.00     0.156 A 
HETATM    7  C9  UNK     1      29.738  -5.938  32.093  1.00  0.00     0.089 A 
HETATM    8  C10 UNK     1      27.422  -6.640  32.174  1.00  0.00     0.018 A 
HETATM    9  C11 UNK     1      29.650  -5.792  30.709  1.00  0.00     0.038 A 
HETATM   10  C12 UNK     1      27.338  -6.493  30.788  1.00  0.00     0.001 A 
HETATM   11  C13 UNK     1      28.449  -6.070  30.058  1.00  0.00     0.003 A 
ENDROOT
BRANCH   3  12
HETATM   12  C1  UNK     1      30.242  -6.319  36.352  1.00  0.00     0.322 C 
HETATM   13  N1  UNK     1      29.312  -5.479  37.122  1.00  0.00     0.117 N 
HETATM   14  C2  UNK     1      29.929  -5.311  38.447  1.00  0.00     0.328 C 
HETATM   15  H5  UNK     1      29.255  -4.560  36.681  1.00  0.00     0.319 HD
HETATM   16  C3  UNK     1      31.366  -4.858  38.241  1.00  0.00     0.123 C 
HETATM   17  S1  UNK     1      31.931  -5.846  36.835  1.00  0.00    -0.126 SA
BRANCH  14  18
HETATM   18  C6  UNK     1      29.127  -4.289  39.183  1.00  0.00     0.175 C 
HETATM   19  O4  UNK     1      29.551  -3.581  40.085  1.00  0.00    -0.648 OA
BRANCH  18  20
HETATM   20  O2  UNK     1      27.855  -4.252  38.717  1.00  0.00    -0.775 OA
HETATM   21  H11 UNK     1      27.626  -3.372  38.347  1.00  0.00     0.167 HD
ENDBRANCH  18  20
ENDBRANCH  14  18
ENDBRANCH   3  12
TORSDOF 3
ENDMDL
