MODEL 1
REMARK VINA RESULT:      -9.9      0.000      0.000
REMARK  5 active torsions:
REMARK  status: ('A' for Active; 'I' for Inactive)
REMARK    1  A    between atoms: C13_18  and  O2_2 
REMARK    2  A    between atoms: C8_13  and  O2_2 
REMARK       I    between atoms: C16_21  and  N1_5 
REMARK    3  A    between atoms: C18_23  and  N1_5 
REMARK    4  A    between atoms: C3_8  and  C5_10 
REMARK    5  A    between atoms: C13_18  and  C16_21 
ROOT
HETATM    1  O1  UNK     1      16.351   8.025  31.351  1.00  0.00    -0.321 OA
HETATM    2  O3  UNK     1      18.288   8.724  34.874  1.00  0.00    -0.286 OA
HETATM    3  C1  UNK     1      18.206   7.541  32.840  1.00  0.00     0.049 A 
HETATM    4  C2  UNK     1      17.497   7.335  31.657  1.00  0.00     0.091 A 
HETATM    5  C3  UNK     1      16.476   9.273  33.431  1.00  0.00     0.048 A 
HETATM    6  C4  UNK     1      17.711   8.535  33.811  1.00  0.00     0.197 A 
HETATM    7  C6  UNK     1      19.368   6.810  33.099  1.00  0.00     0.021 A 
HETATM    8  C7  UNK     1      17.945   6.398  30.727  1.00  0.00     0.075 A 
HETATM    9  C8  UNK     1      19.105   5.667  30.982  1.00  0.00     0.072 A 
HETATM   10  C9  UNK     1      15.911   8.962  32.254  1.00  0.00     0.159 A 
HETATM   11  C10 UNK     1      19.815   5.873  32.167  1.00  0.00     0.038 A 
ENDROOT
BRANCH   9  12
HETATM   12  O2  UNK     1      19.545   4.752  30.076  1.00  0.00    -0.342 OA
BRANCH  12  13
HETATM   13  C13 UNK     1      18.555   4.059  29.319  1.00  0.00     0.278 C 
BRANCH  13  14
HETATM   14  C16 UNK     1      18.392   2.666  29.887  1.00  0.00     0.246 C 
HETATM   15  O4  UNK     1      17.366   2.352  30.483  1.00  0.00    -0.271 OA
HETATM   16  N1  UNK     1      19.507   1.877  29.629  1.00  0.00    -0.325 N 
HETATM   17  H12 UNK     1      20.272   2.305  29.112  1.00  0.00     0.169 HD
BRANCH  16  18
HETATM   18  C18 UNK     1      19.712   0.528  30.004  1.00  0.00     0.034 A 
HETATM   19  C19 UNK     1      19.504   0.152  31.320  1.00  0.00     0.029 A 
HETATM   20  C21 UNK     1      19.707  -1.176  31.692  1.00  0.00     0.002 A 
HETATM   21  C23 UNK     1      20.114  -2.112  30.740  1.00  0.00     0.000 A 
HETATM   22  C22 UNK     1      20.319  -1.717  29.418  1.00  0.00     0.002 A 
HETATM   23  C20 UNK     1      20.117  -0.388  29.047  1.00  0.00     0.029 A 
ENDBRANCH  16  18
ENDBRANCH  13  14
ENDBRANCH  12  13
ENDBRANCH   9  12
BRANCH   5  24
HETATM   24  C5  UNK     1      15.897  10.318  34.290  1.00  0.00    -0.020 A 
HETATM   25  C11 UNK     1      16.521  11.563  34.402  1.00  0.00     0.012 A 
HETATM   26  C14 UNK     1      15.969  12.552  35.214  1.00  0.00     0.001 A 
HETATM   27  C17 UNK     1      14.792  12.300  35.919  1.00  0.00     0.000 A 
HETATM   28  C15 UNK     1      14.166  11.059  35.810  1.00  0.00     0.001 A 
HETATM   29  C12 UNK     1      14.718  10.069  34.997  1.00  0.00     0.012 A 
ENDBRANCH   5  24
TORSDOF 5
ENDMDL
MODEL 2
REMARK VINA RESULT:      -9.9      1.171      1.388
REMARK  5 active torsions:
REMARK  status: ('A' for Active; 'I' for Inactive)
REMARK    1  A    between atoms: C13_18  and  O2_2 
REMARK    2  A    between atoms: C8_13  and  O2_2 
REMARK       I    between atoms: C16_21  and  N1_5 
REMARK    3  A    between atoms: C18_23  and  N1_5 
REMARK    4  A    between atoms: C3_8  and  C5_10 
REMARK    5  A    between atoms: C13_18  and  C16_21 
ROOT
HETATM    1  O1  UNK     1      15.304   6.744  32.417  1.00  0.00    -0.321 OA
HETATM    2  O3  UNK     1      17.414   9.808  34.091  1.00  0.00    -0.286 OA
HETATM    3  C1  UNK     1      17.447   7.735  32.976  1.00  0.00     0.049 A 
HETATM    4  C2  UNK     1      16.675   6.712  32.429  1.00  0.00     0.091 A 
HETATM    5  C3  UNK     1      15.286   8.907  33.523  1.00  0.00     0.048 A 
HETATM    6  C4  UNK     1      16.773   8.903  33.574  1.00  0.00     0.197 A 
HETATM    7  C6  UNK     1      18.842   7.648  32.960  1.00  0.00     0.021 A 
HETATM    8  C7  UNK     1      17.291   5.596  31.862  1.00  0.00     0.075 A 
HETATM    9  C8  UNK     1      18.683   5.508  31.844  1.00  0.00     0.072 A 
HETATM   10  C9  UNK     1      14.687   7.847  32.958  1.00  0.00     0.159 A 
HETATM   11  C10 UNK     1      19.456   6.532  32.392  1.00  0.00     0.038 A 
ENDROOT
BRANCH   9  12
HETATM   12  O2  UNK     1      19.287   4.421  31.291  1.00  0.00    -0.342 OA
BRANCH  12  13
HETATM   13  C13 UNK     1      18.805   3.985  30.021  1.00  0.00     0.278 C 
BRANCH  13  14
HETATM   14  C16 UNK     1      18.553   2.494  30.080  1.00  0.00     0.246 C 
HETATM   15  O4  UNK     1      17.417   2.048  29.954  1.00  0.00    -0.271 OA
HETATM   16  N1  UNK     1      19.733   1.785  30.278  1.00  0.00    -0.325 N 
HETATM   17  H12 UNK     1      20.593   2.323  30.358  1.00  0.00     0.169 HD
BRANCH  16  18
HETATM   18  C18 UNK     1      19.887   0.382  30.384  1.00  0.00     0.034 A 
HETATM   19  C19 UNK     1      19.516  -0.252  31.557  1.00  0.00     0.029 A 
HETATM   20  C21 UNK     1      19.668  -1.634  31.664  1.00  0.00     0.002 A 
HETATM   21  C23 UNK     1      20.188  -2.363  30.594  1.00  0.00     0.000 A 
HETATM   22  C22 UNK     1      20.556  -1.708  29.419  1.00  0.00     0.002 A 
HETATM   23  C20 UNK     1      20.405  -0.326  29.313  1.00  0.00     0.029 A 
ENDBRANCH  16  18
ENDBRANCH  13  14
ENDBRANCH  12  13
ENDBRANCH   9  12
BRANCH   5  24
HETATM   24  C5  UNK     1      14.491  10.028  34.048  1.00  0.00    -0.020 A 
HETATM   25  C11 UNK     1      14.563  10.368  35.401  1.00  0.00     0.012 A 
HETATM   26  C14 UNK     1      13.812  11.433  35.896  1.00  0.00     0.001 A 
HETATM   27  C17 UNK     1      12.984  12.161  35.041  1.00  0.00     0.000 A 
HETATM   28  C15 UNK     1      12.909  11.824  33.689  1.00  0.00     0.001 A 
HETATM   29  C12 UNK     1      13.662  10.759  33.193  1.00  0.00     0.012 A 
ENDBRANCH   5  24
TORSDOF 5
ENDMDL
MODEL 3
REMARK VINA RESULT:      -9.7      7.696     13.454
REMARK  5 active torsions:
REMARK  status: ('A' for Active; 'I' for Inactive)
REMARK    1  A    between atoms: C13_18  and  O2_2 
REMARK    2  A    between atoms: C8_13  and  O2_2 
REMARK       I    between atoms: C16_21  and  N1_5 
REMARK    3  A    between atoms: C18_23  and  N1_5 
REMARK    4  A    between atoms: C3_8  and  C5_10 
REMARK    5  A    between atoms: C13_18  and  C16_21 
ROOT
HETATM    1  O1  UNK     1      20.229  -5.433  34.555  1.00  0.00    -0.321 OA
HETATM    2  O3  UNK     1      20.083  -6.272  38.545  1.00  0.00    -0.286 OA
HETATM    3  C1  UNK     1      20.009  -4.649  36.841  1.00  0.00     0.049 A 
HETATM    4  C2  UNK     1      20.077  -4.421  35.467  1.00  0.00     0.091 A 
HETATM    5  C3  UNK     1      20.255  -7.101  36.320  1.00  0.00     0.048 A 
HETATM    6  C4  UNK     1      20.109  -6.032  37.345  1.00  0.00     0.197 A 
HETATM    7  C6  UNK     1      19.852  -3.578  37.725  1.00  0.00     0.021 A 
HETATM    8  C7  UNK     1      19.988  -3.121  34.969  1.00  0.00     0.075 A 
HETATM    9  C8  UNK     1      19.831  -2.050  35.849  1.00  0.00     0.072 A 
HETATM   10  C9  UNK     1      20.301  -6.719  35.035  1.00  0.00     0.159 A 
HETATM   11  C10 UNK     1      19.763  -2.279  37.224  1.00  0.00     0.038 A 
ENDROOT
BRANCH   9  12
HETATM   12  O2  UNK     1      19.744  -0.781  35.366  1.00  0.00    -0.342 OA
BRANCH  12  13
HETATM   13  C13 UNK     1      18.461  -0.342  34.921  1.00  0.00     0.278 C 
BRANCH  13  14
HETATM   14  C16 UNK     1      18.311  -0.679  33.453  1.00  0.00     0.246 C 
HETATM   15  O4  UNK     1      17.303  -1.247  33.044  1.00  0.00    -0.271 OA
HETATM   16  N1  UNK     1      19.415  -0.262  32.719  1.00  0.00    -0.325 N 
HETATM   17  H12 UNK     1      20.166   0.201  33.227  1.00  0.00     0.169 HD
BRANCH  16  18
HETATM   18  C18 UNK     1      19.627  -0.406  31.327  1.00  0.00     0.034 A 
HETATM   19  C19 UNK     1      19.305   0.642  30.481  1.00  0.00     0.029 A 
HETATM   20  C21 UNK     1      19.512   0.502  29.109  1.00  0.00     0.002 A 
HETATM   21  C23 UNK     1      20.041  -0.686  28.603  1.00  0.00     0.000 A 
HETATM   22  C22 UNK     1      20.361  -1.732  29.468  1.00  0.00     0.002 A 
HETATM   23  C20 UNK     1      20.152  -1.591  30.840  1.00  0.00     0.029 A 
ENDBRANCH  16  18
ENDBRANCH  13  14
ENDBRANCH  12  13
ENDBRANCH   9  12
BRANCH   5  24
HETATM   24  C5  UNK     1      20.327  -8.525  36.685  1.00  0.00    -0.020 A 
HETATM   25  C11 UNK     1      21.512  -9.240  36.496  1.00  0.00     0.012 A 
HETATM   26  C14 UNK     1      21.580 -10.588  36.845  1.00  0.00     0.001 A 
HETATM   27  C17 UNK     1      20.462 -11.226  37.382  1.00  0.00     0.000 A 
HETATM   28  C15 UNK     1      19.277 -10.516  37.571  1.00  0.00     0.001 A 
HETATM   29  C12 UNK     1      19.209  -9.167  37.223  1.00  0.00     0.012 A 
ENDBRANCH   5  24
TORSDOF 5
ENDMDL
MODEL 4
REMARK VINA RESULT:      -9.4      2.516     10.238
REMARK  5 active torsions:
REMARK  status: ('A' for Active; 'I' for Inactive)
REMARK    1  A    between atoms: C13_18  and  O2_2 
REMARK    2  A    between atoms: C8_13  and  O2_2 
REMARK       I    between atoms: C16_21  and  N1_5 
REMARK    3  A    between atoms: C18_23  and  N1_5 
REMARK    4  A    between atoms: C3_8  and  C5_10 
REMARK    5  A    between atoms: C13_18  and  C16_21 
ROOT
HETATM    1  O1  UNK     1      17.958   3.307  33.157  1.00  0.00    -0.321 OA
HETATM    2  O3  UNK     1      19.086   4.199  29.339  1.00  0.00    -0.286 OA
HETATM    3  C1  UNK     1      18.394   4.976  31.451  1.00  0.00     0.049 A 
HETATM    4  C2  UNK     1      18.005   4.612  32.739  1.00  0.00     0.091 A 
HETATM    5  C3  UNK     1      18.720   2.522  30.989  1.00  0.00     0.048 A 
HETATM    6  C4  UNK     1      18.767   3.923  30.488  1.00  0.00     0.197 A 
HETATM    7  C6  UNK     1      18.423   6.323  31.080  1.00  0.00     0.021 A 
HETATM    8  C7  UNK     1      17.644   5.592  33.664  1.00  0.00     0.075 A 
HETATM    9  C8  UNK     1      17.673   6.937  33.297  1.00  0.00     0.072 A 
HETATM   10  C9  UNK     1      18.327   2.335  32.258  1.00  0.00     0.159 A 
HETATM   11  C10 UNK     1      18.062   7.301  32.007  1.00  0.00     0.038 A 
ENDROOT
BRANCH   9  12
HETATM   12  O2  UNK     1      17.322   7.895  34.197  1.00  0.00    -0.342 OA
BRANCH  12  13
HETATM   13  C13 UNK     1      18.052   9.120  34.161  1.00  0.00     0.278 C 
BRANCH  13  14
HETATM   14  C16 UNK     1      17.074  10.269  34.050  1.00  0.00     0.246 C 
HETATM   15  O4  UNK     1      17.469  11.401  33.787  1.00  0.00    -0.271 OA
HETATM   16  N1  UNK     1      15.768   9.849  34.272  1.00  0.00    -0.325 N 
HETATM   17  H12 UNK     1      15.622   8.863  34.476  1.00  0.00     0.169 HD
BRANCH  16  18
HETATM   18  C18 UNK     1      14.594  10.640  34.250  1.00  0.00     0.034 A 
HETATM   19  C19 UNK     1      14.239  11.355  35.381  1.00  0.00     0.029 A 
HETATM   20  C21 UNK     1      13.082  12.134  35.362  1.00  0.00     0.002 A 
HETATM   21  C23 UNK     1      12.298  12.188  34.209  1.00  0.00     0.000 A 
HETATM   22  C22 UNK     1      12.670  11.462  33.078  1.00  0.00     0.002 A 
HETATM   23  C20 UNK     1      13.826  10.682  33.098  1.00  0.00     0.029 A 
ENDBRANCH  16  18
ENDBRANCH  13  14
ENDBRANCH  12  13
ENDBRANCH   9  12
BRANCH   5  24
HETATM   24  C5  UNK     1      19.105   1.379  30.145  1.00  0.00    -0.020 A 
HETATM   25  C11 UNK     1      18.448   1.148  28.933  1.00  0.00     0.012 A 
HETATM   26  C14 UNK     1      18.816   0.067  28.133  1.00  0.00     0.001 A 
HETATM   27  C17 UNK     1      19.840  -0.787  28.542  1.00  0.00     0.000 A 
HETATM   28  C15 UNK     1      20.497  -0.560  29.751  1.00  0.00     0.001 A 
HETATM   29  C12 UNK     1      20.130   0.522  30.552  1.00  0.00     0.012 A 
ENDBRANCH   5  24
TORSDOF 5
ENDMDL
MODEL 5
REMARK VINA RESULT:      -9.1      6.073      8.736
REMARK  5 active torsions:
REMARK  status: ('A' for Active; 'I' for Inactive)
REMARK    1  A    between atoms: C13_18  and  O2_2 
REMARK    2  A    between atoms: C8_13  and  O2_2 
REMARK       I    between atoms: C16_21  and  N1_5 
REMARK    3  A    between atoms: C18_23  and  N1_5 
REMARK    4  A    between atoms: C3_8  and  C5_10 
REMARK    5  A    between atoms: C13_18  and  C16_21 
ROOT
HETATM    1  O1  UNK     1      18.652   0.413  32.337  1.00  0.00    -0.321 OA
HETATM    2  O3  UNK     1      18.147   3.714  34.682  1.00  0.00    -0.286 OA
HETATM    3  C1  UNK     1      18.410   1.378  34.551  1.00  0.00     0.049 A 
HETATM    4  C2  UNK     1      18.571   0.285  33.700  1.00  0.00     0.091 A 
HETATM    5  C3  UNK     1      18.430   2.827  32.491  1.00  0.00     0.048 A 
HETATM    6  C4  UNK     1      18.318   2.732  33.972  1.00  0.00     0.197 A 
HETATM    7  C6  UNK     1      18.334   1.188  35.934  1.00  0.00     0.021 A 
HETATM    8  C7  UNK     1      18.656  -1.004  34.226  1.00  0.00     0.075 A 
HETATM    9  C8  UNK     1      18.581  -1.197  35.606  1.00  0.00     0.072 A 
HETATM   10  C9  UNK     1      18.585   1.681  31.811  1.00  0.00     0.159 A 
HETATM   11  C10 UNK     1      18.420  -0.102  36.457  1.00  0.00     0.038 A 
ENDROOT
BRANCH   9  12
HETATM   12  O2  UNK     1      18.664  -2.453  36.121  1.00  0.00    -0.342 OA
BRANCH  12  13
HETATM   13  C13 UNK     1      19.908  -2.833  36.708  1.00  0.00     0.278 C 
BRANCH  13  14
HETATM   14  C16 UNK     1      20.018  -4.342  36.684  1.00  0.00     0.246 C 
HETATM   15  O4  UNK     1      20.182  -4.938  35.623  1.00  0.00    -0.271 OA
HETATM   16  N1  UNK     1      19.918  -4.881  37.961  1.00  0.00    -0.325 N 
HETATM   17  H12 UNK     1      19.786  -4.232  38.733  1.00  0.00     0.169 HD
BRANCH  16  18
HETATM   18  C18 UNK     1      19.976  -6.248  38.325  1.00  0.00     0.034 A 
HETATM   19  C19 UNK     1      18.964  -7.100  37.918  1.00  0.00     0.029 A 
HETATM   20  C21 UNK     1      19.019  -8.447  38.277  1.00  0.00     0.002 A 
HETATM   21  C23 UNK     1      20.088  -8.922  39.038  1.00  0.00     0.000 A 
HETATM   22  C22 UNK     1      21.099  -8.050  39.440  1.00  0.00     0.002 A 
HETATM   23  C20 UNK     1      21.043  -6.703  39.082  1.00  0.00     0.029 A 
ENDBRANCH  16  18
ENDBRANCH  13  14
ENDBRANCH  12  13
ENDBRANCH   9  12
BRANCH   5  24
HETATM   24  C5  UNK     1      18.393   4.120  31.788  1.00  0.00    -0.020 A 
HETATM   25  C11 UNK     1      19.081   4.286  30.584  1.00  0.00     0.012 A 
HETATM   26  C14 UNK     1      19.042   5.510  29.919  1.00  0.00     0.001 A 
HETATM   27  C17 UNK     1      18.316   6.573  30.455  1.00  0.00     0.000 A 
HETATM   28  C15 UNK     1      17.628   6.411  31.657  1.00  0.00     0.001 A 
HETATM   29  C12 UNK     1      17.666   5.186  32.323  1.00  0.00     0.012 A 
ENDBRANCH   5  24
TORSDOF 5
ENDMDL
MODEL 6
REMARK VINA RESULT:      -9.1      8.546     15.557
REMARK  5 active torsions:
REMARK  status: ('A' for Active; 'I' for Inactive)
REMARK    1  A    between atoms: C13_18  and  O2_2 
REMARK    2  A    between atoms: C8_13  and  O2_2 
REMARK       I    between atoms: C16_21  and  N1_5 
REMARK    3  A    between atoms: C18_23  and  N1_5 
REMARK    4  A    between atoms: C3_8  and  C5_10 
REMARK    5  A    between atoms: C13_18  and  C16_21 
ROOT
HETATM    1  O1  UNK     1      20.631  -7.857  34.973  1.00  0.00    -0.321 OA
HETATM    2  O3  UNK     1      23.266  -8.117  38.078  1.00  0.00    -0.286 OA
HETATM    3  C1  UNK     1      21.515  -6.936  37.037  1.00  0.00     0.049 A 
HETATM    4  C2  UNK     1      20.645  -6.893  35.948  1.00  0.00     0.091 A 
HETATM    5  C3  UNK     1      22.404  -9.091  36.084  1.00  0.00     0.048 A 
HETATM    6  C4  UNK     1      22.466  -8.058  37.153  1.00  0.00     0.197 A 
HETATM    7  C6  UNK     1      21.485  -5.925  38.002  1.00  0.00     0.021 A 
HETATM    8  C7  UNK     1      19.741  -5.839  35.817  1.00  0.00     0.075 A 
HETATM    9  C8  UNK     1      19.708  -4.829  36.778  1.00  0.00     0.072 A 
HETATM   10  C9  UNK     1      21.508  -8.908  35.102  1.00  0.00     0.159 A 
HETATM   11  C10 UNK     1      20.579  -4.873  37.868  1.00  0.00     0.038 A 
ENDROOT
BRANCH   9  12
HETATM   12  O2  UNK     1      18.826  -3.801  36.653  1.00  0.00    -0.342 OA
BRANCH  12  13
HETATM   13  C13 UNK     1      19.345  -2.479  36.794  1.00  0.00     0.278 C 
BRANCH  13  14
HETATM   14  C16 UNK     1      20.085  -2.106  35.528  1.00  0.00     0.246 C 
HETATM   15  O4  UNK     1      21.300  -1.933  35.545  1.00  0.00    -0.271 OA
HETATM   16  N1  UNK     1      19.222  -2.012  34.443  1.00  0.00    -0.325 N 
HETATM   17  H12 UNK     1      18.235  -2.195  34.613  1.00  0.00     0.169 HD
BRANCH  16  18
HETATM   18  C18 UNK     1      19.553  -1.686  33.106  1.00  0.00     0.034 A 
HETATM   19  C19 UNK     1      18.987  -0.566  32.522  1.00  0.00     0.029 A 
HETATM   20  C21 UNK     1      19.311  -0.244  31.205  1.00  0.00     0.002 A 
HETATM   21  C23 UNK     1      20.201  -1.048  30.490  1.00  0.00     0.000 A 
HETATM   22  C22 UNK     1      20.763  -2.172  31.093  1.00  0.00     0.002 A 
HETATM   23  C20 UNK     1      20.437  -2.495  32.410  1.00  0.00     0.029 A 
ENDBRANCH  16  18
ENDBRANCH  13  14
ENDBRANCH  12  13
ENDBRANCH   9  12
BRANCH   5  24
HETATM   24  C5  UNK     1      23.270 -10.281  36.099  1.00  0.00    -0.020 A 
HETATM   25  C11 UNK     1      24.616 -10.167  36.456  1.00  0.00     0.012 A 
HETATM   26  C14 UNK     1      25.434 -11.295  36.473  1.00  0.00     0.001 A 
HETATM   27  C17 UNK     1      24.910 -12.542  36.132  1.00  0.00     0.000 A 
HETATM   28  C15 UNK     1      23.567 -12.660  35.774  1.00  0.00     0.001 A 
HETATM   29  C12 UNK     1      22.748 -11.531  35.758  1.00  0.00     0.012 A 
ENDBRANCH   5  24
TORSDOF 5
ENDMDL
MODEL 7
REMARK VINA RESULT:      -9.1     22.747     25.160
REMARK  5 active torsions:
REMARK  status: ('A' for Active; 'I' for Inactive)
REMARK    1  A    between atoms: C13_18  and  O2_2 
REMARK    2  A    between atoms: C8_13  and  O2_2 
REMARK       I    between atoms: C16_21  and  N1_5 
REMARK    3  A    between atoms: C18_23  and  N1_5 
REMARK    4  A    between atoms: C3_8  and  C5_10 
REMARK    5  A    between atoms: C13_18  and  C16_21 
ROOT
HETATM    1  O1  UNK     1      15.118  10.801   7.889  1.00  0.00    -0.321 OA
HETATM    2  O3  UNK     1      19.045  11.023   8.973  1.00  0.00    -0.286 OA
HETATM    3  C1  UNK     1      16.970   9.934   9.196  1.00  0.00     0.049 A 
HETATM    4  C2  UNK     1      15.634   9.912   8.798  1.00  0.00     0.091 A 
HETATM    5  C3  UNK     1      17.277  11.884   7.632  1.00  0.00     0.048 A 
HETATM    6  C4  UNK     1      17.873  10.952   8.627  1.00  0.00     0.197 A 
HETATM    7  C6  UNK     1      17.441   9.003  10.126  1.00  0.00     0.021 A 
HETATM    8  C7  UNK     1      14.761   8.961   9.326  1.00  0.00     0.075 A 
HETATM    9  C8  UNK     1      15.229   8.030  10.253  1.00  0.00     0.072 A 
HETATM   10  C9  UNK     1      15.973  11.732   7.351  1.00  0.00     0.159 A 
HETATM   11  C10 UNK     1      16.567   8.052  10.652  1.00  0.00     0.038 A 
ENDROOT
BRANCH   9  12
HETATM   12  O2  UNK     1      14.381   7.100  10.769  1.00  0.00    -0.342 OA
BRANCH  12  13
HETATM   13  C13 UNK     1      14.190   5.904  10.015  1.00  0.00     0.278 C 
BRANCH  13  14
HETATM   14  C16 UNK     1      12.724   5.779   9.660  1.00  0.00     0.246 C 
HETATM   15  O4  UNK     1      11.932   5.275  10.450  1.00  0.00    -0.271 OA
HETATM   16  N1  UNK     1      12.460   6.297   8.397  1.00  0.00    -0.325 N 
HETATM   17  H12 UNK     1      13.245   6.682   7.877  1.00  0.00     0.169 HD
BRANCH  16  18
HETATM   18  C18 UNK     1      11.210   6.352   7.734  1.00  0.00     0.034 A 
HETATM   19  C19 UNK     1      11.144   6.039   6.387  1.00  0.00     0.029 A 
HETATM   20  C21 UNK     1       9.915   6.095   5.732  1.00  0.00     0.002 A 
HETATM   21  C23 UNK     1       8.767   6.462   6.436  1.00  0.00     0.000 A 
HETATM   22  C22 UNK     1       8.850   6.773   7.792  1.00  0.00     0.002 A 
HETATM   23  C20 UNK     1      10.080   6.719   8.447  1.00  0.00     0.029 A 
ENDBRANCH  16  18
ENDBRANCH  13  14
ENDBRANCH  12  13
ENDBRANCH   9  12
BRANCH   5  24
HETATM   24  C5  UNK     1      18.075  12.921   6.960  1.00  0.00    -0.020 A 
HETATM   25  C11 UNK     1      18.146  14.210   7.494  1.00  0.00     0.012 A 
HETATM   26  C14 UNK     1      18.905  15.191   6.858  1.00  0.00     0.001 A 
HETATM   27  C17 UNK     1      19.595  14.887   5.684  1.00  0.00     0.000 A 
HETATM   28  C15 UNK     1      19.527  13.602   5.148  1.00  0.00     0.001 A 
HETATM   29  C12 UNK     1      18.768  12.620   5.785  1.00  0.00     0.012 A 
ENDBRANCH   5  24
TORSDOF 5
ENDMDL
MODEL 8
REMARK VINA RESULT:      -9.0      2.565     10.369
REMARK  5 active torsions:
REMARK  status: ('A' for Active; 'I' for Inactive)
REMARK    1  A    between atoms: C13_18  and  O2_2 
REMARK    2  A    between atoms: C8_13  and  O2_2 
REMARK       I    between atoms: C16_21  and  N1_5 
REMARK    3  A    between atoms: C18_23  and  N1_5 
REMARK    4  A    between atoms: C3_8  and  C5_10 
REMARK    5  A    between atoms: C13_18  and  C16_21 
ROOT
HETATM    1  O1  UNK     1      17.966   3.271  33.207  1.00  0.00    -0.321 OA
HETATM    2  O3  UNK     1      19.125   4.223  29.413  1.00  0.00    -0.286 OA
HETATM    3  C1  UNK     1      18.434   4.968  31.537  1.00  0.00     0.049 A 
HETATM    4  C2  UNK     1      18.033   4.584  32.816  1.00  0.00     0.091 A 
HETATM    5  C3  UNK     1      18.728   2.519  31.027  1.00  0.00     0.048 A 
HETATM    6  C4  UNK     1      18.797   3.929  30.555  1.00  0.00     0.197 A 
HETATM    7  C6  UNK     1      18.484   6.322  31.192  1.00  0.00     0.021 A 
HETATM    8  C7  UNK     1      17.681   5.550  33.758  1.00  0.00     0.075 A 
HETATM    9  C8  UNK     1      17.731   6.902  33.418  1.00  0.00     0.072 A 
HETATM   10  C9  UNK     1      18.326   2.313  32.291  1.00  0.00     0.159 A 
HETATM   11  C10 UNK     1      18.132   7.286  32.137  1.00  0.00     0.038 A 
ENDROOT
BRANCH   9  12
HETATM   12  O2  UNK     1      17.389   7.846  34.335  1.00  0.00    -0.342 OA
BRANCH  12  13
HETATM   13  C13 UNK     1      16.043   8.320  34.309  1.00  0.00     0.278 C 
BRANCH  13  14
HETATM   14  C16 UNK     1      16.036   9.741  33.788  1.00  0.00     0.246 C 
HETATM   15  O4  UNK     1      15.404  10.030  32.776  1.00  0.00    -0.271 OA
HETATM   16  N1  UNK     1      16.796  10.583  34.591  1.00  0.00    -0.325 N 
HETATM   17  H12 UNK     1      17.253  10.168  35.401  1.00  0.00     0.169 HD
BRANCH  16  18
HETATM   18  C18 UNK     1      17.019  11.970  34.416  1.00  0.00     0.034 A 
HETATM   19  C19 UNK     1      16.063  12.869  34.856  1.00  0.00     0.029 A 
HETATM   20  C21 UNK     1      16.280  14.235  34.684  1.00  0.00     0.002 A 
HETATM   21  C23 UNK     1      17.453  14.683  34.074  1.00  0.00     0.000 A 
HETATM   22  C22 UNK     1      18.405  13.764  33.637  1.00  0.00     0.002 A 
HETATM   23  C20 UNK     1      18.188  12.397  33.808  1.00  0.00     0.029 A 
ENDBRANCH  16  18
ENDBRANCH  13  14
ENDBRANCH  12  13
ENDBRANCH   9  12
BRANCH   5  24
HETATM   24  C5  UNK     1      19.101   1.388  30.162  1.00  0.00    -0.020 A 
HETATM   25  C11 UNK     1      18.425   1.171  28.959  1.00  0.00     0.012 A 
HETATM   26  C14 UNK     1      18.782   0.102  28.139  1.00  0.00     0.001 A 
HETATM   27  C17 UNK     1      19.813  -0.756  28.520  1.00  0.00     0.000 A 
HETATM   28  C15 UNK     1      20.490  -0.543  29.721  1.00  0.00     0.001 A 
HETATM   29  C12 UNK     1      20.134   0.529  30.541  1.00  0.00     0.012 A 
ENDBRANCH   5  24
TORSDOF 5
ENDMDL
MODEL 9
REMARK VINA RESULT:      -9.0      6.538     10.434
REMARK  5 active torsions:
REMARK  status: ('A' for Active; 'I' for Inactive)
REMARK    1  A    between atoms: C13_18  and  O2_2 
REMARK    2  A    between atoms: C8_13  and  O2_2 
REMARK       I    between atoms: C16_21  and  N1_5 
REMARK    3  A    between atoms: C18_23  and  N1_5 
REMARK    4  A    between atoms: C3_8  and  C5_10 
REMARK    5  A    between atoms: C13_18  and  C16_21 
ROOT
HETATM    1  O1  UNK     1      19.922  -1.686  32.867  1.00  0.00    -0.321 OA
HETATM    2  O3  UNK     1      17.499   1.490  33.697  1.00  0.00    -0.286 OA
HETATM    3  C1  UNK     1      18.535  -0.484  34.455  1.00  0.00     0.049 A 
HETATM    4  C2  UNK     1      19.361  -1.553  34.112  1.00  0.00     0.091 A 
HETATM    5  C3  UNK     1      18.887   0.379  32.114  1.00  0.00     0.048 A 
HETATM    6  C4  UNK     1      18.242   0.552  33.445  1.00  0.00     0.197 A 
HETATM    7  C6  UNK     1      17.990  -0.400  35.739  1.00  0.00     0.021 A 
HETATM    8  C7  UNK     1      19.647  -2.545  35.050  1.00  0.00     0.075 A 
HETATM    9  C8  UNK     1      19.106  -2.463  36.332  1.00  0.00     0.072 A 
HETATM   10  C9  UNK     1      19.659  -0.705  31.941  1.00  0.00     0.159 A 
HETATM   11  C10 UNK     1      18.279  -1.392  36.676  1.00  0.00     0.038 A 
ENDROOT
BRANCH   9  12
HETATM   12  O2  UNK     1      19.384  -3.429  37.250  1.00  0.00    -0.342 OA
BRANCH  12  13
HETATM   13  C13 UNK     1      20.758  -3.651  37.563  1.00  0.00     0.278 C 
BRANCH  13  14
HETATM   14  C16 UNK     1      20.997  -5.141  37.684  1.00  0.00     0.246 C 
HETATM   15  O4  UNK     1      22.128  -5.602  37.568  1.00  0.00    -0.271 OA
HETATM   16  N1  UNK     1      19.815  -5.828  37.934  1.00  0.00    -0.325 N 
HETATM   17  H12 UNK     1      18.961  -5.278  38.003  1.00  0.00     0.169 HD
BRANCH  16  18
HETATM   18  C18 UNK     1      19.650  -7.223  38.106  1.00  0.00     0.034 A 
HETATM   19  C19 UNK     1      19.064  -7.965  37.094  1.00  0.00     0.029 A 
HETATM   20  C21 UNK     1      18.900  -9.339  37.262  1.00  0.00     0.002 A 
HETATM   21  C23 UNK     1      19.327  -9.953  38.441  1.00  0.00     0.000 A 
HETATM   22  C22 UNK     1      19.916  -9.192  39.449  1.00  0.00     0.002 A 
HETATM   23  C20 UNK     1      20.079  -7.817  39.281  1.00  0.00     0.029 A 
ENDBRANCH  16  18
ENDBRANCH  13  14
ENDBRANCH  12  13
ENDBRANCH   9  12
BRANCH   5  24
HETATM   24  C5  UNK     1      18.710   1.358  31.030  1.00  0.00    -0.020 A 
HETATM   25  C11 UNK     1      18.433   0.925  29.731  1.00  0.00     0.012 A 
HETATM   26  C14 UNK     1      18.262   1.854  28.706  1.00  0.00     0.001 A 
HETATM   27  C17 UNK     1      18.370   3.219  28.975  1.00  0.00     0.000 A 
HETATM   28  C15 UNK     1      18.647   3.654  30.271  1.00  0.00     0.001 A 
HETATM   29  C12 UNK     1      18.816   2.725  31.297  1.00  0.00     0.012 A 
ENDBRANCH   5  24
TORSDOF 5
ENDMDL
MODEL 10
REMARK VINA RESULT:      -8.9      4.809     11.223
REMARK  5 active torsions:
REMARK  status: ('A' for Active; 'I' for Inactive)
REMARK    1  A    between atoms: C13_18  and  O2_2 
REMARK    2  A    between atoms: C8_13  and  O2_2 
REMARK       I    between atoms: C16_21  and  N1_5 
REMARK    3  A    between atoms: C18_23  and  N1_5 
REMARK    4  A    between atoms: C3_8  and  C5_10 
REMARK    5  A    between atoms: C13_18  and  C16_21 
ROOT
HETATM    1  O1  UNK     1      19.712  -1.902  33.963  1.00  0.00    -0.321 OA
HETATM    2  O3  UNK     1      18.635  -2.027  37.897  1.00  0.00    -0.286 OA
HETATM    3  C1  UNK     1      18.558  -0.884  35.840  1.00  0.00     0.049 A 
HETATM    4  C2  UNK     1      18.965  -0.888  34.506  1.00  0.00     0.091 A 
HETATM    5  C3  UNK     1      19.741  -3.095  36.079  1.00  0.00     0.048 A 
HETATM    6  C4  UNK     1      18.946  -2.008  36.713  1.00  0.00     0.197 A 
HETATM    7  C6  UNK     1      17.797   0.176  36.340  1.00  0.00     0.021 A 
HETATM    8  C7  UNK     1      18.613   0.167  33.664  1.00  0.00     0.075 A 
HETATM    9  C8  UNK     1      17.852   1.225  34.160  1.00  0.00     0.072 A 
HETATM   10  C9  UNK     1      20.051  -2.953  34.781  1.00  0.00     0.159 A 
HETATM   11  C10 UNK     1      17.445   1.229  35.495  1.00  0.00     0.038 A 
ENDROOT
BRANCH   9  12
HETATM   12  O2  UNK     1      17.506   2.255  33.341  1.00  0.00    -0.342 OA
BRANCH  12  13
HETATM   13  C13 UNK     1      18.315   2.465  32.184  1.00  0.00     0.278 C 
BRANCH  13  14
HETATM   14  C16 UNK     1      18.435   3.953  31.935  1.00  0.00     0.246 C 
HETATM   15  O4  UNK     1      18.763   4.376  30.831  1.00  0.00    -0.271 OA
HETATM   16  N1  UNK     1      18.127   4.687  33.075  1.00  0.00    -0.325 N 
HETATM   17  H12 UNK     1      17.869   4.166  33.910  1.00  0.00     0.169 HD
BRANCH  16  18
HETATM   18  C18 UNK     1      18.130   6.095  33.219  1.00  0.00     0.034 A 
HETATM   19  C19 UNK     1      19.201   6.709  33.845  1.00  0.00     0.029 A 
HETATM   20  C21 UNK     1      19.205   8.096  33.988  1.00  0.00     0.002 A 
HETATM   21  C23 UNK     1      18.137   8.850  33.501  1.00  0.00     0.000 A 
HETATM   22  C22 UNK     1      17.066   8.216  32.873  1.00  0.00     0.002 A 
HETATM   23  C20 UNK     1      17.062   6.829  32.730  1.00  0.00     0.029 A 
ENDBRANCH  16  18
ENDBRANCH  13  14
ENDBRANCH  12  13
ENDBRANCH   9  12
BRANCH   5  24
HETATM   24  C5  UNK     1      20.160  -4.291  36.826  1.00  0.00    -0.020 A 
HETATM   25  C11 UNK     1      19.359  -5.436  36.827  1.00  0.00     0.012 A 
HETATM   26  C14 UNK     1      19.760  -6.570  37.533  1.00  0.00     0.001 A 
HETATM   27  C17 UNK     1      20.961  -6.562  38.242  1.00  0.00     0.000 A 
HETATM   28  C15 UNK     1      21.763  -5.421  38.243  1.00  0.00     0.001 A 
HETATM   29  C12 UNK     1      21.363  -4.287  37.536  1.00  0.00     0.012 A 
ENDBRANCH   5  24
TORSDOF 5
ENDMDL
