MODEL 1
REMARK VINA RESULT:      -8.8      0.000      0.000
REMARK  9 active torsions:
REMARK  status: ('A' for Active; 'I' for Inactive)
REMARK    1  A    between atoms: C13_20  and  O1_3 
REMARK    2  A    between atoms: C4_11  and  N1_5 
REMARK    3  A    between atoms: C16_23  and  N2_6 
REMARK    4  A    between atoms: C22_29  and  N3_7 
REMARK    5  A    between atoms: C10_17  and  C5_12 
REMARK    6  A    between atoms: C5_12  and  C6_13 
REMARK    7  A    between atoms: C5_12  and  C7_14 
REMARK    8  A    between atoms: C27_34  and  C30_37 
REMARK    9  A    between atoms: C31_38  and  C32_39 
ROOT
HETATM    1  S2  UNK     1      18.902  12.644  11.062  1.00  0.00    -0.045 SA
HETATM    2  O2  UNK     1      19.120  11.173   7.542  1.00  0.00    -0.266 OA
HETATM    3  N2  UNK     1      17.620  11.214   9.347  1.00  0.00    -0.292 N 
HETATM    4  N3  UNK     1      16.497  11.570  11.424  1.00  0.00    -0.224 NA
HETATM    5  C7  UNK     1      19.660  12.352   9.547  1.00  0.00     0.087 A 
HETATM    6  C11 UNK     1      18.799  11.516   8.672  1.00  0.00     0.267 A 
HETATM    7  C15 UNK     1      17.492  11.720  10.620  1.00  0.00     0.177 A 
ENDROOT
BRANCH   5   8
HETATM    8  C5  UNK     1      20.871  12.808   9.178  1.00  0.00    -0.001 C 
BRANCH   8   9
HETATM    9  C10 UNK     1      20.895  13.709   8.007  1.00  0.00    -0.024 A 
HETATM   10  C18 UNK     1      20.014  14.774   7.958  1.00  0.00     0.012 A 
HETATM   11  C21 UNK     1      20.036  15.625   6.853  1.00  0.00     0.001 A 
HETATM   12  C23 UNK     1      20.941  15.398   5.816  1.00  0.00     0.000 A 
HETATM   13  C20 UNK     1      21.822  14.318   5.883  1.00  0.00     0.001 A 
HETATM   14  C17 UNK     1      21.799  13.467   6.988  1.00  0.00     0.012 A 
ENDBRANCH   8   9
BRANCH   8  15
HETATM   15  C6  UNK     1      22.055  12.405   9.921  1.00  0.00     0.051 C 
HETATM   16  C2  UNK     1      22.550  13.027  11.002  1.00  0.00     0.078 A 
HETATM   17  S1  UNK     1      21.695  14.480  11.598  1.00  0.00    -0.070 SA
HETATM   18  N1  UNK     1      23.678  12.688  11.753  1.00  0.00    -0.340 N 
HETATM   19  C3  UNK     1      22.921  14.612  12.897  1.00  0.00     0.036 A 
HETATM   20  C1  UNK     1      23.885  13.582  12.820  1.00  0.00     0.052 A 
HETATM   21  C9  UNK     1      22.961  15.587  13.883  1.00  0.00     0.058 A 
HETATM   22  C8  UNK     1      24.908  13.547  13.763  1.00  0.00     0.034 A 
HETATM   23  C14 UNK     1      24.957  14.526  14.761  1.00  0.00     0.039 A 
HETATM   24  C13 UNK     1      23.991  15.538  14.821  1.00  0.00     0.069 A 
BRANCH  24  25
HETATM   25  O1  UNK     1      24.059  16.481  15.801  1.00  0.00    -0.356 OA
HETATM   26  C26 UNK     1      25.230  17.295  15.839  1.00  0.00     0.210 C 
ENDBRANCH  24  25
BRANCH  18  27
HETATM   27  C4  UNK     1      24.589  11.580  11.545  1.00  0.00     0.125 C 
HETATM   28  C12 UNK     1      25.760  12.021  10.687  1.00  0.00     0.027 C 
ENDBRANCH  18  27
ENDBRANCH   8  15
ENDBRANCH   5   8
BRANCH   3  29
HETATM   29  C16 UNK     1      16.576  10.404   8.738  1.00  0.00     0.130 C 
HETATM   30  C19 UNK     1      15.967  11.136   7.557  1.00  0.00     0.027 C 
ENDBRANCH   3  29
BRANCH   4  31
HETATM   31  C22 UNK     1      15.424  10.801  10.935  1.00  0.00     0.059 A 
HETATM   32  C24 UNK     1      14.306  11.437  10.404  1.00  0.00     0.032 A 
HETATM   33  C28 UNK     1      13.244  10.675   9.919  1.00  0.00     0.013 A 
HETATM   34  C27 UNK     1      13.305   9.282   9.967  1.00  0.00    -0.036 A 
HETATM   35  C29 UNK     1      14.429   8.651  10.501  1.00  0.00     0.013 A 
HETATM   36  C25 UNK     1      15.492   9.413  10.986  1.00  0.00     0.032 A 
BRANCH  34  37
HETATM   37  C30 UNK     1      12.197   8.488   9.461  1.00  0.00     0.012 C 
HETATM   38  C31 UNK     1      11.973   8.201   8.156  1.00  0.00     0.012 C 
BRANCH  38  39
HETATM   39  C32 UNK     1      10.861   7.381   7.645  1.00  0.00    -0.036 A 
HETATM   40  C33 UNK     1      10.855   7.003   6.311  1.00  0.00     0.011 A 
HETATM   41  C35 UNK     1       9.802   6.227   5.826  1.00  0.00     0.001 A 
HETATM   42  C37 UNK     1       8.771   5.839   6.682  1.00  0.00     0.000 A 
HETATM   43  C36 UNK     1       8.791   6.228   8.022  1.00  0.00     0.001 A 
HETATM   44  C34 UNK     1       9.844   7.004   8.507  1.00  0.00     0.011 A 
ENDBRANCH  38  39
ENDBRANCH  34  37
ENDBRANCH   4  31
TORSDOF 9
ENDMDL
MODEL 2
REMARK VINA RESULT:      -8.8     24.524     26.981
REMARK  9 active torsions:
REMARK  status: ('A' for Active; 'I' for Inactive)
REMARK    1  A    between atoms: C13_20  and  O1_3 
REMARK    2  A    between atoms: C4_11  and  N1_5 
REMARK    3  A    between atoms: C16_23  and  N2_6 
REMARK    4  A    between atoms: C22_29  and  N3_7 
REMARK    5  A    between atoms: C10_17  and  C5_12 
REMARK    6  A    between atoms: C5_12  and  C6_13 
REMARK    7  A    between atoms: C5_12  and  C7_14 
REMARK    8  A    between atoms: C27_34  and  C30_37 
REMARK    9  A    between atoms: C31_38  and  C32_39 
ROOT
HETATM    1  S2  UNK     1      18.877   3.996  35.255  1.00  0.00    -0.045 SA
HETATM    2  O2  UNK     1      17.596   2.323  32.067  1.00  0.00    -0.266 OA
HETATM    3  N2  UNK     1      18.367   1.704  34.196  1.00  0.00    -0.292 N 
HETATM    4  N3  UNK     1      19.206   1.634  36.431  1.00  0.00    -0.224 NA
HETATM    5  C7  UNK     1      18.271   3.982  33.646  1.00  0.00     0.087 A 
HETATM    6  C11 UNK     1      18.028   2.593  33.180  1.00  0.00     0.267 A 
HETATM    7  C15 UNK     1      18.835   2.257  35.366  1.00  0.00     0.177 A 
ENDROOT
BRANCH   5   8
HETATM    8  C5  UNK     1      18.039   5.069  32.889  1.00  0.00    -0.001 C 
BRANCH   8   9
HETATM    9  C10 UNK     1      19.087   5.409  31.904  1.00  0.00    -0.024 A 
HETATM   10  C18 UNK     1      18.753   5.484  30.563  1.00  0.00     0.012 A 
HETATM   11  C21 UNK     1      19.741   5.804  29.633  1.00  0.00     0.001 A 
HETATM   12  C23 UNK     1      21.047   6.046  30.058  1.00  0.00     0.000 A 
HETATM   13  C20 UNK     1      21.366   5.966  31.414  1.00  0.00     0.001 A 
HETATM   14  C17 UNK     1      20.377   5.645  32.344  1.00  0.00     0.012 A 
ENDBRANCH   8   9
BRANCH   8  15
HETATM   15  C6  UNK     1      16.813   5.831  33.069  1.00  0.00     0.051 C 
HETATM   16  C2  UNK     1      16.739   7.144  33.334  1.00  0.00     0.078 A 
HETATM   17  S1  UNK     1      18.269   8.056  33.483  1.00  0.00    -0.070 SA
HETATM   18  N1  UNK     1      15.596   7.925  33.516  1.00  0.00    -0.340 N 
HETATM   19  C3  UNK     1      17.305   9.531  33.804  1.00  0.00     0.036 A 
HETATM   20  C1  UNK     1      15.916   9.270  33.781  1.00  0.00     0.052 A 
HETATM   21  C9  UNK     1      17.813  10.799  34.048  1.00  0.00     0.058 A 
HETATM   22  C8  UNK     1      15.031  10.318  34.013  1.00  0.00     0.034 A 
HETATM   23  C14 UNK     1      15.533  11.600  34.261  1.00  0.00     0.039 A 
HETATM   24  C13 UNK     1      16.913  11.839  34.278  1.00  0.00     0.069 A 
BRANCH  24  25
HETATM   25  O1  UNK     1      17.379  13.095  34.522  1.00  0.00    -0.356 OA
HETATM   26  C26 UNK     1      18.345  13.618  33.612  1.00  0.00     0.210 C 
ENDBRANCH  24  25
BRANCH  18  27
HETATM   27  C4  UNK     1      14.209   7.505  33.464  1.00  0.00     0.125 C 
HETATM   28  C12 UNK     1      13.785   7.282  32.025  1.00  0.00     0.027 C 
ENDBRANCH  18  27
ENDBRANCH   8  15
ENDBRANCH   5   8
BRANCH   3  29
HETATM   29  C16 UNK     1      18.234   0.265  34.030  1.00  0.00     0.130 C 
HETATM   30  C19 UNK     1      18.875  -0.173  32.726  1.00  0.00     0.027 C 
ENDBRANCH   3  29
BRANCH   4  31
HETATM   31  C22 UNK     1      19.118   0.230  36.381  1.00  0.00     0.059 A 
HETATM   32  C24 UNK     1      20.197  -0.512  35.912  1.00  0.00     0.032 A 
HETATM   33  C28 UNK     1      20.110  -1.903  35.864  1.00  0.00     0.013 A 
HETATM   34  C27 UNK     1      18.945  -2.544  36.286  1.00  0.00    -0.036 A 
HETATM   35  C29 UNK     1      17.867  -1.795  36.756  1.00  0.00     0.013 A 
HETATM   36  C25 UNK     1      17.953  -0.403  36.804  1.00  0.00     0.032 A 
BRANCH  34  37
HETATM   37  C30 UNK     1      18.855  -3.995  36.236  1.00  0.00     0.012 C 
HETATM   38  C31 UNK     1      19.809  -4.852  36.673  1.00  0.00     0.012 C 
BRANCH  38  39
HETATM   39  C32 UNK     1      19.710  -6.322  36.640  1.00  0.00    -0.036 A 
HETATM   40  C33 UNK     1      18.892  -6.967  37.553  1.00  0.00     0.011 A 
HETATM   41  C35 UNK     1      18.799  -8.359  37.523  1.00  0.00     0.001 A 
HETATM   42  C37 UNK     1      19.525  -9.086  36.579  1.00  0.00     0.000 A 
HETATM   43  C36 UNK     1      20.345  -8.421  35.666  1.00  0.00     0.001 A 
HETATM   44  C34 UNK     1      20.438  -7.030  35.696  1.00  0.00     0.011 A 
ENDBRANCH  38  39
ENDBRANCH  34  37
ENDBRANCH   4  31
TORSDOF 9
ENDMDL
MODEL 3
REMARK VINA RESULT:      -8.7     32.356     36.879
REMARK  9 active torsions:
REMARK  status: ('A' for Active; 'I' for Inactive)
REMARK    1  A    between atoms: C13_20  and  O1_3 
REMARK    2  A    between atoms: C4_11  and  N1_5 
REMARK    3  A    between atoms: C16_23  and  N2_6 
REMARK    4  A    between atoms: C22_29  and  N3_7 
REMARK    5  A    between atoms: C10_17  and  C5_12 
REMARK    6  A    between atoms: C5_12  and  C6_13 
REMARK    7  A    between atoms: C5_12  and  C7_14 
REMARK    8  A    between atoms: C27_34  and  C30_37 
REMARK    9  A    between atoms: C31_38  and  C32_39 
ROOT
HETATM    1  S2  UNK     1      32.681  -9.262  33.146  1.00  0.00    -0.045 SA
HETATM    2  O2  UNK     1      34.768  -6.060  33.208  1.00  0.00    -0.266 OA
HETATM    3  N2  UNK     1      35.088  -8.370  32.935  1.00  0.00    -0.292 N 
HETATM    4  N3  UNK     1      34.853 -10.737  32.727  1.00  0.00    -0.224 NA
HETATM    5  C7  UNK     1      32.914  -7.564  33.288  1.00  0.00     0.087 A 
HETATM    6  C11 UNK     1      34.349  -7.209  33.145  1.00  0.00     0.267 A 
HETATM    7  C15 UNK     1      34.382  -9.551  32.905  1.00  0.00     0.177 A 
ENDROOT
BRANCH   5   8
HETATM    8  C5  UNK     1      31.945  -6.657  33.501  1.00  0.00    -0.001 C 
BRANCH   8   9
HETATM    9  C10 UNK     1      31.096  -6.329  32.337  1.00  0.00    -0.024 A 
HETATM   10  C18 UNK     1      30.084  -5.397  32.482  1.00  0.00     0.012 A 
HETATM   11  C21 UNK     1      29.282  -5.087  31.383  1.00  0.00     0.001 A 
HETATM   12  C23 UNK     1      29.506  -5.714  30.157  1.00  0.00     0.000 A 
HETATM   13  C20 UNK     1      30.532  -6.651  30.030  1.00  0.00     0.001 A 
HETATM   14  C17 UNK     1      31.333  -6.961  31.129  1.00  0.00     0.012 A 
ENDBRANCH   8   9
BRANCH   8  15
HETATM   15  C6  UNK     1      31.784  -6.062  34.819  1.00  0.00     0.051 C 
HETATM   16  C2  UNK     1      30.893  -6.444  35.747  1.00  0.00     0.078 A 
HETATM   17  S1  UNK     1      29.796  -7.799  35.349  1.00  0.00    -0.070 SA
HETATM   18  N1  UNK     1      30.694  -5.913  37.024  1.00  0.00    -0.340 N 
HETATM   19  C3  UNK     1      29.059  -7.618  36.971  1.00  0.00     0.036 A 
HETATM   20  C1  UNK     1      29.660  -6.575  37.712  1.00  0.00     0.052 A 
HETATM   21  C9  UNK     1      28.022  -8.384  37.485  1.00  0.00     0.058 A 
HETATM   22  C8  UNK     1      29.196  -6.309  38.997  1.00  0.00     0.034 A 
HETATM   23  C14 UNK     1      28.151  -7.076  39.523  1.00  0.00     0.039 A 
HETATM   24  C13 UNK     1      27.569  -8.106  38.773  1.00  0.00     0.069 A 
BRANCH  24  25
HETATM   25  O1  UNK     1      26.553  -8.839  39.306  1.00  0.00    -0.356 OA
HETATM   26  C26 UNK     1      26.897 -10.086  39.907  1.00  0.00     0.210 C 
ENDBRANCH  24  25
BRANCH  18  27
HETATM   27  C4  UNK     1      31.404  -4.817  37.656  1.00  0.00     0.125 C 
HETATM   28  C12 UNK     1      32.628  -5.340  38.384  1.00  0.00     0.027 C 
ENDBRANCH  18  27
ENDBRANCH   8  15
ENDBRANCH   5   8
BRANCH   3  29
HETATM   29  C16 UNK     1      36.532  -8.337  32.758  1.00  0.00     0.130 C 
HETATM   30  C19 UNK     1      37.193  -7.708  33.970  1.00  0.00     0.027 C 
ENDBRANCH   3  29
BRANCH   4  31
HETATM   31  C22 UNK     1      36.245 -10.823  32.543  1.00  0.00     0.059 A 
HETATM   32  C24 UNK     1      37.062 -11.169  33.615  1.00  0.00     0.032 A 
HETATM   33  C28 UNK     1      38.441 -11.256  33.433  1.00  0.00     0.013 A 
HETATM   34  C27 UNK     1      38.997 -10.997  32.180  1.00  0.00    -0.036 A 
HETATM   35  C29 UNK     1      38.173 -10.651  31.109  1.00  0.00     0.013 A 
HETATM   36  C25 UNK     1      36.793 -10.564  31.291  1.00  0.00     0.032 A 
BRANCH  34  37
HETATM   37  C30 UNK     1      40.436 -11.087  31.990  1.00  0.00     0.012 C 
HETATM   38  C31 UNK     1      41.267 -11.896  32.690  1.00  0.00     0.012 C 
BRANCH  38  39
HETATM   39  C32 UNK     1      42.722 -12.002  32.486  1.00  0.00    -0.036 A 
HETATM   40  C33 UNK     1      43.240 -13.132  31.873  1.00  0.00     0.011 A 
HETATM   41  C35 UNK     1      44.618 -13.233  31.679  1.00  0.00     0.001 A 
HETATM   42  C37 UNK     1      45.459 -12.203  32.101  1.00  0.00     0.000 A 
HETATM   43  C36 UNK     1      44.922 -11.072  32.717  1.00  0.00     0.001 A 
HETATM   44  C34 UNK     1      43.544 -10.971  32.911  1.00  0.00     0.011 A 
ENDBRANCH  38  39
ENDBRANCH  34  37
ENDBRANCH   4  31
TORSDOF 9
ENDMDL
MODEL 4
REMARK VINA RESULT:      -8.7     22.942     25.823
REMARK  9 active torsions:
REMARK  status: ('A' for Active; 'I' for Inactive)
REMARK    1  A    between atoms: C13_20  and  O1_3 
REMARK    2  A    between atoms: C4_11  and  N1_5 
REMARK    3  A    between atoms: C16_23  and  N2_6 
REMARK    4  A    between atoms: C22_29  and  N3_7 
REMARK    5  A    between atoms: C10_17  and  C5_12 
REMARK    6  A    between atoms: C5_12  and  C6_13 
REMARK    7  A    between atoms: C5_12  and  C7_14 
REMARK    8  A    between atoms: C27_34  and  C30_37 
REMARK    9  A    between atoms: C31_38  and  C32_39 
ROOT
HETATM    1  S2  UNK     1      16.886  10.754  34.471  1.00  0.00    -0.045 SA
HETATM    2  O2  UNK     1      13.649   8.816  33.859  1.00  0.00    -0.266 OA
HETATM    3  N2  UNK     1      15.963   8.513  33.600  1.00  0.00    -0.292 N 
HETATM    4  N3  UNK     1      18.340   8.727  33.549  1.00  0.00    -0.224 NA
HETATM    5  C7  UNK     1      15.180  10.540  34.481  1.00  0.00     0.087 A 
HETATM    6  C11 UNK     1      14.806   9.203  33.952  1.00  0.00     0.267 A 
HETATM    7  C15 UNK     1      17.156   9.168  33.800  1.00  0.00     0.177 A 
ENDROOT
BRANCH   5   8
HETATM    8  C5  UNK     1      14.281  11.445  34.907  1.00  0.00    -0.001 C 
BRANCH   8   9
HETATM    9  C10 UNK     1      13.851  12.450  33.913  1.00  0.00    -0.024 A 
HETATM   10  C18 UNK     1      12.503  12.597  33.642  1.00  0.00     0.012 A 
HETATM   11  C21 UNK     1      12.096  13.544  32.703  1.00  0.00     0.001 A 
HETATM   12  C23 UNK     1      13.045  14.332  32.051  1.00  0.00     0.000 A 
HETATM   13  C20 UNK     1      14.401  14.170  32.336  1.00  0.00     0.001 A 
HETATM   14  C17 UNK     1      14.807  13.221  33.275  1.00  0.00     0.012 A 
ENDBRANCH   8   9
BRANCH   8  15
HETATM   15  C6  UNK     1      13.794  11.395  36.277  1.00  0.00     0.051 C 
HETATM   16  C2  UNK     1      14.179  12.204  37.276  1.00  0.00     0.078 A 
HETATM   17  S1  UNK     1      15.399  13.460  36.913  1.00  0.00    -0.070 SA
HETATM   18  N1  UNK     1      13.747  12.203  38.604  1.00  0.00    -0.340 N 
HETATM   19  C3  UNK     1      15.304  13.980  38.625  1.00  0.00     0.036 A 
HETATM   20  C1  UNK     1      14.382  13.204  39.362  1.00  0.00     0.052 A 
HETATM   21  C9  UNK     1      16.026  15.015  39.203  1.00  0.00     0.058 A 
HETATM   22  C8  UNK     1      14.195  13.486  40.712  1.00  0.00     0.034 A 
HETATM   23  C14 UNK     1      14.918  14.527  41.304  1.00  0.00     0.039 A 
HETATM   24  C13 UNK     1      15.827  15.285  40.555  1.00  0.00     0.069 A 
BRANCH  24  25
HETATM   25  O1  UNK     1      16.520  16.293  41.153  1.00  0.00    -0.356 OA
HETATM   26  C26 UNK     1      17.910  16.394  40.850  1.00  0.00     0.210 C 
ENDBRANCH  24  25
BRANCH  18  27
HETATM   27  C4  UNK     1      12.776  11.324  39.227  1.00  0.00     0.125 C 
HETATM   28  C12 UNK     1      11.372  11.850  38.995  1.00  0.00     0.027 C 
ENDBRANCH  18  27
ENDBRANCH   8  15
ENDBRANCH   5   8
BRANCH   3  29
HETATM   29  C16 UNK     1      15.912   7.167  33.047  1.00  0.00     0.130 C 
HETATM   30  C19 UNK     1      14.896   7.101  31.923  1.00  0.00     0.027 C 
ENDBRANCH   3  29
BRANCH   4  31
HETATM   31  C22 UNK     1      18.410   7.429  33.011  1.00  0.00     0.059 A 
HETATM   32  C24 UNK     1      18.441   6.330  33.863  1.00  0.00     0.032 A 
HETATM   33  C28 UNK     1      18.509   5.044  33.330  1.00  0.00     0.013 A 
HETATM   34  C27 UNK     1      18.547   4.863  31.947  1.00  0.00    -0.036 A 
HETATM   35  C29 UNK     1      18.516   5.969  31.098  1.00  0.00     0.013 A 
HETATM   36  C25 UNK     1      18.448   7.256  31.631  1.00  0.00     0.032 A 
BRANCH  34  37
HETATM   37  C30 UNK     1      18.618   3.521  31.392  1.00  0.00     0.012 C 
HETATM   38  C31 UNK     1      18.982   3.219  30.122  1.00  0.00     0.012 C 
BRANCH  38  39
HETATM   39  C32 UNK     1      19.072   1.859  29.564  1.00  0.00    -0.036 A 
HETATM   40  C33 UNK     1      19.998   0.971  30.088  1.00  0.00     0.011 A 
HETATM   41  C35 UNK     1      20.084  -0.317  29.560  1.00  0.00     0.001 A 
HETATM   42  C37 UNK     1      19.244  -0.700  28.515  1.00  0.00     0.000 A 
HETATM   43  C36 UNK     1      18.317   0.206  27.996  1.00  0.00     0.001 A 
HETATM   44  C34 UNK     1      18.231   1.494  28.525  1.00  0.00     0.011 A 
ENDBRANCH  38  39
ENDBRANCH  34  37
ENDBRANCH   4  31
TORSDOF 9
ENDMDL
MODEL 5
REMARK VINA RESULT:      -8.7     14.458     17.130
REMARK  9 active torsions:
REMARK  status: ('A' for Active; 'I' for Inactive)
REMARK    1  A    between atoms: C13_20  and  O1_3 
REMARK    2  A    between atoms: C4_11  and  N1_5 
REMARK    3  A    between atoms: C16_23  and  N2_6 
REMARK    4  A    between atoms: C22_29  and  N3_7 
REMARK    5  A    between atoms: C10_17  and  C5_12 
REMARK    6  A    between atoms: C5_12  and  C6_13 
REMARK    7  A    between atoms: C5_12  and  C7_14 
REMARK    8  A    between atoms: C27_34  and  C30_37 
REMARK    9  A    between atoms: C31_38  and  C32_39 
ROOT
HETATM    1  S2  UNK     1      20.426  -5.860  10.651  1.00  0.00    -0.045 SA
HETATM    2  O2  UNK     1      20.534  -2.165   9.680  1.00  0.00    -0.266 OA
HETATM    3  N2  UNK     1      20.128  -3.478  11.583  1.00  0.00    -0.292 N 
HETATM    4  N3  UNK     1      19.812  -5.241  13.162  1.00  0.00    -0.224 NA
HETATM    5  C7  UNK     1      20.641  -4.548   9.561  1.00  0.00     0.087 A 
HETATM    6  C11 UNK     1      20.436  -3.246  10.246  1.00  0.00     0.267 A 
HETATM    7  C15 UNK     1      20.076  -4.794  11.983  1.00  0.00     0.177 A 
ENDROOT
BRANCH   5   8
HETATM    8  C5  UNK     1      20.952  -4.657   8.257  1.00  0.00    -0.001 C 
BRANCH   8   9
HETATM    9  C10 UNK     1      19.895  -4.264   7.302  1.00  0.00    -0.024 A 
HETATM   10  C18 UNK     1      20.085  -3.147   6.508  1.00  0.00     0.012 A 
HETATM   11  C21 UNK     1      19.087  -2.775   5.607  1.00  0.00     0.001 A 
HETATM   12  C23 UNK     1      17.916  -3.528   5.513  1.00  0.00     0.000 A 
HETATM   13  C20 UNK     1      17.742  -4.651   6.322  1.00  0.00     0.001 A 
HETATM   14  C17 UNK     1      18.740  -5.022   7.223  1.00  0.00     0.012 A 
ENDBRANCH   8   9
BRANCH   8  15
HETATM   15  C6  UNK     1      22.266  -5.140   7.863  1.00  0.00     0.051 C 
HETATM   16  C2  UNK     1      23.328  -4.372   7.570  1.00  0.00     0.078 A 
HETATM   17  S1  UNK     1      23.130  -2.598   7.666  1.00  0.00    -0.070 SA
HETATM   18  N1  UNK     1      24.608  -4.778   7.188  1.00  0.00    -0.340 N 
HETATM   19  C3  UNK     1      24.842  -2.427   7.167  1.00  0.00     0.036 A 
HETATM   20  C1  UNK     1      25.460  -3.681   6.961  1.00  0.00     0.052 A 
HETATM   21  C9  UNK     1      25.524  -1.231   6.993  1.00  0.00     0.058 A 
HETATM   22  C8  UNK     1      26.795  -3.716   6.569  1.00  0.00     0.034 A 
HETATM   23  C14 UNK     1      27.491  -2.516   6.390  1.00  0.00     0.039 A 
HETATM   24  C13 UNK     1      26.860  -1.283   6.601  1.00  0.00     0.069 A 
BRANCH  24  25
HETATM   25  O1  UNK     1      27.558  -0.128   6.420  1.00  0.00    -0.356 OA
HETATM   26  C26 UNK     1      26.810   1.087   6.405  1.00  0.00     0.210 C 
ENDBRANCH  24  25
BRANCH  18  27
HETATM   27  C4  UNK     1      25.102  -6.131   7.013  1.00  0.00     0.125 C 
HETATM   28  C12 UNK     1      25.598  -6.680   8.337  1.00  0.00     0.027 C 
ENDBRANCH  18  27
ENDBRANCH   8  15
ENDBRANCH   5   8
BRANCH   3  29
HETATM   29  C16 UNK     1      19.873  -2.386  12.511  1.00  0.00     0.130 C 
HETATM   30  C19 UNK     1      21.033  -1.409  12.499  1.00  0.00     0.027 C 
ENDBRANCH   3  29
BRANCH   4  31
HETATM   31  C22 UNK     1      19.550  -4.268  14.144  1.00  0.00     0.059 A 
HETATM   32  C24 UNK     1      20.575  -3.839  14.981  1.00  0.00     0.032 A 
HETATM   33  C28 UNK     1      20.316  -2.873  15.953  1.00  0.00     0.013 A 
HETATM   34  C27 UNK     1      19.033  -2.342  16.083  1.00  0.00    -0.036 A 
HETATM   35  C29 UNK     1      18.009  -2.775  15.240  1.00  0.00     0.013 A 
HETATM   36  C25 UNK     1      18.268  -3.741  14.268  1.00  0.00     0.032 A 
BRANCH  34  37
HETATM   37  C30 UNK     1      18.763  -1.334  17.097  1.00  0.00     0.012 C 
HETATM   38  C31 UNK     1      19.671  -0.848  17.976  1.00  0.00     0.012 C 
BRANCH  38  39
HETATM   39  C32 UNK     1      19.402   0.185  18.991  1.00  0.00    -0.036 A 
HETATM   40  C33 UNK     1      18.864   1.400  18.596  1.00  0.00     0.011 A 
HETATM   41  C35 UNK     1      18.610   2.379  19.556  1.00  0.00     0.001 A 
HETATM   42  C37 UNK     1      18.897   2.130  20.899  1.00  0.00     0.000 A 
HETATM   43  C36 UNK     1      19.440   0.903  21.281  1.00  0.00     0.001 A 
HETATM   44  C34 UNK     1      19.694  -0.077  20.320  1.00  0.00     0.011 A 
ENDBRANCH  38  39
ENDBRANCH  34  37
ENDBRANCH   4  31
TORSDOF 9
ENDMDL
MODEL 6
REMARK VINA RESULT:      -8.7     32.281     36.821
REMARK  9 active torsions:
REMARK  status: ('A' for Active; 'I' for Inactive)
REMARK    1  A    between atoms: C13_20  and  O1_3 
REMARK    2  A    between atoms: C4_11  and  N1_5 
REMARK    3  A    between atoms: C16_23  and  N2_6 
REMARK    4  A    between atoms: C22_29  and  N3_7 
REMARK    5  A    between atoms: C10_17  and  C5_12 
REMARK    6  A    between atoms: C5_12  and  C6_13 
REMARK    7  A    between atoms: C5_12  and  C7_14 
REMARK    8  A    between atoms: C27_34  and  C30_37 
REMARK    9  A    between atoms: C31_38  and  C32_39 
ROOT
HETATM    1  S2  UNK     1      32.693  -9.232  33.179  1.00  0.00    -0.045 SA
HETATM    2  O2  UNK     1      34.823  -6.059  33.244  1.00  0.00    -0.266 OA
HETATM    3  N2  UNK     1      35.109  -8.371  32.950  1.00  0.00    -0.292 N 
HETATM    4  N3  UNK     1      34.840 -10.733  32.726  1.00  0.00    -0.224 NA
HETATM    5  C7  UNK     1      32.950  -7.539  33.332  1.00  0.00     0.087 A 
HETATM    6  C11 UNK     1      34.389  -7.202  33.176  1.00  0.00     0.267 A 
HETATM    7  C15 UNK     1      34.387  -9.542  32.918  1.00  0.00     0.177 A 
ENDROOT
BRANCH   5   8
HETATM    8  C5  UNK     1      31.995  -6.620  33.561  1.00  0.00    -0.001 C 
BRANCH   8   9
HETATM    9  C10 UNK     1      31.149  -6.261  32.405  1.00  0.00    -0.024 A 
HETATM   10  C18 UNK     1      31.278  -6.975  31.227  1.00  0.00     0.012 A 
HETATM   11  C21 UNK     1      30.480  -6.636  30.135  1.00  0.00     0.001 A 
HETATM   12  C23 UNK     1      29.563  -5.590  30.238  1.00  0.00     0.000 A 
HETATM   13  C20 UNK     1      29.447  -4.881  31.434  1.00  0.00     0.001 A 
HETATM   14  C17 UNK     1      30.246  -5.220  32.526  1.00  0.00     0.012 A 
ENDBRANCH   8   9
BRANCH   8  15
HETATM   15  C6  UNK     1      31.847  -6.044  34.889  1.00  0.00     0.051 C 
HETATM   16  C2  UNK     1      30.913  -6.385  35.791  1.00  0.00     0.078 A 
HETATM   17  S1  UNK     1      29.738  -7.655  35.341  1.00  0.00    -0.070 SA
HETATM   18  N1  UNK     1      30.723  -5.869  37.074  1.00  0.00    -0.340 N 
HETATM   19  C3  UNK     1      28.981  -7.460  36.952  1.00  0.00     0.036 A 
HETATM   20  C1  UNK     1      29.634  -6.475  37.727  1.00  0.00     0.052 A 
HETATM   21  C9  UNK     1      27.885  -8.166  37.428  1.00  0.00     0.058 A 
HETATM   22  C8  UNK     1      29.162  -6.206  39.009  1.00  0.00     0.034 A 
HETATM   23  C14 UNK     1      28.058  -6.913  39.497  1.00  0.00     0.039 A 
HETATM   24  C13 UNK     1      27.425  -7.886  38.713  1.00  0.00     0.069 A 
BRANCH  24  25
HETATM   25  O1  UNK     1      26.351  -8.560  39.210  1.00  0.00    -0.356 OA
HETATM   26  C26 UNK     1      25.060  -8.132  38.782  1.00  0.00     0.210 C 
ENDBRANCH  24  25
BRANCH  18  27
HETATM   27  C4  UNK     1      31.490  -4.837  37.745  1.00  0.00     0.125 C 
HETATM   28  C12 UNK     1      32.751  -5.431  38.346  1.00  0.00     0.027 C 
ENDBRANCH  18  27
ENDBRANCH   8  15
ENDBRANCH   5   8
BRANCH   3  29
HETATM   29  C16 UNK     1      36.552  -8.356  32.758  1.00  0.00     0.130 C 
HETATM   30  C19 UNK     1      37.233  -7.733  33.962  1.00  0.00     0.027 C 
ENDBRANCH   3  29
BRANCH   4  31
HETATM   31  C22 UNK     1      36.229 -10.837  32.527  1.00  0.00     0.059 A 
HETATM   32  C24 UNK     1      37.051 -11.207  33.587  1.00  0.00     0.032 A 
HETATM   33  C28 UNK     1      38.428 -11.311  33.390  1.00  0.00     0.013 A 
HETATM   34  C27 UNK     1      38.975 -11.044  32.135  1.00  0.00    -0.036 A 
HETATM   35  C29 UNK     1      38.145 -10.673  31.076  1.00  0.00     0.013 A 
HETATM   36  C25 UNK     1      36.768 -10.569  31.273  1.00  0.00     0.032 A 
BRANCH  34  37
HETATM   37  C30 UNK     1      40.411 -11.153  31.929  1.00  0.00     0.012 C 
HETATM   38  C31 UNK     1      41.260 -11.864  32.709  1.00  0.00     0.012 C 
BRANCH  38  39
HETATM   39  C32 UNK     1      42.711 -11.990  32.491  1.00  0.00    -0.036 A 
HETATM   40  C33 UNK     1      43.554 -10.986  32.941  1.00  0.00     0.011 A 
HETATM   41  C35 UNK     1      44.928 -11.104  32.734  1.00  0.00     0.001 A 
HETATM   42  C37 UNK     1      45.441 -12.225  32.080  1.00  0.00     0.000 A 
HETATM   43  C36 UNK     1      44.579 -13.226  31.632  1.00  0.00     0.001 A 
HETATM   44  C34 UNK     1      43.205 -13.108  31.839  1.00  0.00     0.011 A 
ENDBRANCH  38  39
ENDBRANCH  34  37
ENDBRANCH   4  31
TORSDOF 9
ENDMDL
MODEL 7
REMARK VINA RESULT:      -8.6     33.001     35.621
REMARK  9 active torsions:
REMARK  status: ('A' for Active; 'I' for Inactive)
REMARK    1  A    between atoms: C13_20  and  O1_3 
REMARK    2  A    between atoms: C4_11  and  N1_5 
REMARK    3  A    between atoms: C16_23  and  N2_6 
REMARK    4  A    between atoms: C22_29  and  N3_7 
REMARK    5  A    between atoms: C10_17  and  C5_12 
REMARK    6  A    between atoms: C5_12  and  C6_13 
REMARK    7  A    between atoms: C5_12  and  C7_14 
REMARK    8  A    between atoms: C27_34  and  C30_37 
REMARK    9  A    between atoms: C31_38  and  C32_39 
ROOT
HETATM    1  S2  UNK     1      32.161  -9.171  36.090  1.00  0.00    -0.045 SA
HETATM    2  O2  UNK     1      29.827  -8.214  33.219  1.00  0.00    -0.266 OA
HETATM    3  N2  UNK     1      29.739  -8.481  35.550  1.00  0.00    -0.292 N 
HETATM    4  N3  UNK     1      30.196  -8.885  37.858  1.00  0.00    -0.224 NA
HETATM    5  C7  UNK     1      31.770  -8.866  34.444  1.00  0.00     0.087 A 
HETATM    6  C11 UNK     1      30.344  -8.481  34.296  1.00  0.00     0.267 A 
HETATM    7  C15 UNK     1      30.538  -8.819  36.618  1.00  0.00     0.177 A 
ENDROOT
BRANCH   5   8
HETATM    8  C5  UNK     1      32.624  -8.958  33.408  1.00  0.00    -0.001 C 
BRANCH   8   9
HETATM    9  C10 UNK     1      33.919  -8.266  33.571  1.00  0.00    -0.024 A 
HETATM   10  C18 UNK     1      33.933  -6.893  33.739  1.00  0.00     0.012 A 
HETATM   11  C21 UNK     1      35.155  -6.238  33.893  1.00  0.00     0.001 A 
HETATM   12  C23 UNK     1      36.344  -6.969  33.878  1.00  0.00     0.000 A 
HETATM   13  C20 UNK     1      36.310  -8.353  33.708  1.00  0.00     0.001 A 
HETATM   14  C17 UNK     1      35.087  -9.007  33.553  1.00  0.00     0.012 A 
ENDBRANCH   8   9
BRANCH   8  15
HETATM   15  C6  UNK     1      32.244  -9.706  32.219  1.00  0.00     0.051 C 
HETATM   16  C2  UNK     1      32.007 -11.026  32.167  1.00  0.00     0.078 A 
HETATM   17  S1  UNK     1      32.166 -11.966  33.679  1.00  0.00    -0.070 SA
HETATM   18  N1  UNK     1      31.641 -11.794  31.059  1.00  0.00    -0.340 N 
HETATM   19  C3  UNK     1      31.721 -13.436  32.757  1.00  0.00     0.036 A 
HETATM   20  C1  UNK     1      31.481 -13.152  31.394  1.00  0.00     0.052 A 
HETATM   21  C9  UNK     1      31.612 -14.719  33.273  1.00  0.00     0.058 A 
HETATM   22  C8  UNK     1      31.124 -14.194  30.543  1.00  0.00     0.034 A 
HETATM   23  C14 UNK     1      31.012 -15.491  31.054  1.00  0.00     0.039 A 
HETATM   24  C13 UNK     1      31.254 -15.752  32.408  1.00  0.00     0.069 A 
BRANCH  24  25
HETATM   25  O1  UNK     1      31.139 -17.023  32.883  1.00  0.00    -0.356 OA
HETATM   26  C26 UNK     1      30.185 -17.245  33.920  1.00  0.00     0.210 C 
ENDBRANCH  24  25
BRANCH  18  27
HETATM   27  C4  UNK     1      31.429 -11.351  29.695  1.00  0.00     0.125 C 
HETATM   28  C12 UNK     1      30.002 -10.869  29.518  1.00  0.00     0.027 C 
ENDBRANCH  18  27
ENDBRANCH   8  15
ENDBRANCH   5   8
BRANCH   3  29
HETATM   29  C16 UNK     1      28.335  -8.140  35.722  1.00  0.00     0.130 C 
HETATM   30  C19 UNK     1      28.048  -6.781  35.114  1.00  0.00     0.027 C 
ENDBRANCH   3  29
BRANCH   4  31
HETATM   31  C22 UNK     1      28.854  -8.573  38.142  1.00  0.00     0.059 A 
HETATM   32  C24 UNK     1      28.511  -7.278  38.516  1.00  0.00     0.032 A 
HETATM   33  C28 UNK     1      27.181  -6.968  38.796  1.00  0.00     0.013 A 
HETATM   34  C27 UNK     1      26.200  -7.956  38.701  1.00  0.00    -0.036 A 
HETATM   35  C29 UNK     1      26.550  -9.253  38.325  1.00  0.00     0.013 A 
HETATM   36  C25 UNK     1      27.881  -9.563  38.045  1.00  0.00     0.032 A 
BRANCH  34  37
HETATM   37  C30 UNK     1      24.812  -7.633  38.993  1.00  0.00     0.012 C 
HETATM   38  C31 UNK     1      23.741  -8.095  38.305  1.00  0.00     0.012 C 
BRANCH  38  39
HETATM   39  C32 UNK     1      22.334  -7.783  38.613  1.00  0.00    -0.036 A 
HETATM   40  C33 UNK     1      21.860  -6.500  38.390  1.00  0.00     0.011 A 
HETATM   41  C35 UNK     1      20.528  -6.204  38.682  1.00  0.00     0.001 A 
HETATM   42  C37 UNK     1      19.689  -7.195  39.191  1.00  0.00     0.000 A 
HETATM   43  C36 UNK     1      20.182  -8.482  39.410  1.00  0.00     0.001 A 
HETATM   44  C34 UNK     1      21.514  -8.778  39.119  1.00  0.00     0.011 A 
ENDBRANCH  38  39
ENDBRANCH  34  37
ENDBRANCH   4  31
TORSDOF 9
ENDMDL
MODEL 8
REMARK VINA RESULT:      -8.5     31.906     36.119
REMARK  9 active torsions:
REMARK  status: ('A' for Active; 'I' for Inactive)
REMARK    1  A    between atoms: C13_20  and  O1_3 
REMARK    2  A    between atoms: C4_11  and  N1_5 
REMARK    3  A    between atoms: C16_23  and  N2_6 
REMARK    4  A    between atoms: C22_29  and  N3_7 
REMARK    5  A    between atoms: C10_17  and  C5_12 
REMARK    6  A    between atoms: C5_12  and  C6_13 
REMARK    7  A    between atoms: C5_12  and  C7_14 
REMARK    8  A    between atoms: C27_34  and  C30_37 
REMARK    9  A    between atoms: C31_38  and  C32_39 
ROOT
HETATM    1  S2  UNK     1      31.554  -7.445  32.064  1.00  0.00    -0.045 SA
HETATM    2  O2  UNK     1      31.236 -10.995  33.443  1.00  0.00    -0.266 OA
HETATM    3  N2  UNK     1      32.916  -9.539  32.688  1.00  0.00    -0.292 N 
HETATM    4  N3  UNK     1      34.190  -7.707  31.839  1.00  0.00    -0.224 NA
HETATM    5  C7  UNK     1      30.691  -8.798  32.680  1.00  0.00     0.087 A 
HETATM    6  C11 UNK     1      31.612  -9.921  32.991  1.00  0.00     0.267 A 
HETATM    7  C15 UNK     1      33.084  -8.269  32.187  1.00  0.00     0.177 A 
ENDROOT
BRANCH   5   8
HETATM    8  C5  UNK     1      29.361  -8.859  32.865  1.00  0.00    -0.001 C 
BRANCH   8   9
HETATM    9  C10 UNK     1      28.526  -8.458  31.714  1.00  0.00    -0.024 A 
HETATM   10  C18 UNK     1      28.552  -9.224  30.563  1.00  0.00     0.012 A 
HETATM   11  C21 UNK     1      27.765  -8.846  29.475  1.00  0.00     0.001 A 
HETATM   12  C23 UNK     1      26.962  -7.708  29.558  1.00  0.00     0.000 A 
HETATM   13  C20 UNK     1      26.949  -6.947  30.727  1.00  0.00     0.001 A 
HETATM   14  C17 UNK     1      27.737  -7.326  31.814  1.00  0.00     0.012 A 
ENDBRANCH   8   9
BRANCH   8  15
HETATM   15  C6  UNK     1      28.826  -9.300  34.144  1.00  0.00     0.051 C 
HETATM   16  C2  UNK     1      28.763  -8.562  35.263  1.00  0.00     0.078 A 
HETATM   17  S1  UNK     1      29.386  -6.888  35.199  1.00  0.00    -0.070 SA
HETATM   18  N1  UNK     1      28.262  -8.931  36.514  1.00  0.00    -0.340 N 
HETATM   19  C3  UNK     1      28.946  -6.707  36.926  1.00  0.00     0.036 A 
HETATM   20  C1  UNK     1      28.366  -7.885  37.449  1.00  0.00     0.052 A 
HETATM   21  C9  UNK     1      29.131  -5.569  37.698  1.00  0.00     0.058 A 
HETATM   22  C8  UNK     1      27.969  -7.902  38.783  1.00  0.00     0.034 A 
HETATM   23  C14 UNK     1      28.152  -6.760  39.570  1.00  0.00     0.039 A 
HETATM   24  C13 UNK     1      28.728  -5.603  39.032  1.00  0.00     0.069 A 
BRANCH  24  25
HETATM   25  O1  UNK     1      28.896  -4.504  39.818  1.00  0.00    -0.356 OA
HETATM   26  C26 UNK     1      29.796  -3.501  39.348  1.00  0.00     0.210 C 
ENDBRANCH  24  25
BRANCH  18  27
HETATM   27  C4  UNK     1      27.688 -10.203  36.907  1.00  0.00     0.125 C 
HETATM   28  C12 UNK     1      26.204 -10.227  36.592  1.00  0.00     0.027 C 
ENDBRANCH  18  27
ENDBRANCH   8  15
ENDBRANCH   5   8
BRANCH   3  29
HETATM   29  C16 UNK     1      34.043 -10.438  32.889  1.00  0.00     0.130 C 
HETATM   30  C19 UNK     1      33.803 -11.749  32.165  1.00  0.00     0.027 C 
ENDBRANCH   3  29
BRANCH   4  31
HETATM   31  C22 UNK     1      35.350  -8.488  31.994  1.00  0.00     0.059 A 
HETATM   32  C24 UNK     1      35.998  -8.524  33.224  1.00  0.00     0.032 A 
HETATM   33  C28 UNK     1      37.147  -9.299  33.378  1.00  0.00     0.013 A 
HETATM   34  C27 UNK     1      37.643 -10.033  32.301  1.00  0.00    -0.036 A 
HETATM   35  C29 UNK     1      36.988  -9.993  31.069  1.00  0.00     0.013 A 
HETATM   36  C25 UNK     1      35.839  -9.218  30.915  1.00  0.00     0.032 A 
BRANCH  34  37
HETATM   37  C30 UNK     1      38.841 -10.841  32.461  1.00  0.00     0.012 C 
HETATM   38  C31 UNK     1      39.974 -10.712  31.729  1.00  0.00     0.012 C 
BRANCH  38  39
HETATM   39  C32 UNK     1      41.195 -11.518  31.904  1.00  0.00    -0.036 A 
HETATM   40  C33 UNK     1      42.268 -10.981  32.597  1.00  0.00     0.011 A 
HETATM   41  C35 UNK     1      43.425 -11.743  32.763  1.00  0.00     0.001 A 
HETATM   42  C37 UNK     1      43.492 -13.032  32.233  1.00  0.00     0.000 A 
HETATM   43  C36 UNK     1      42.403 -13.559  31.537  1.00  0.00     0.001 A 
HETATM   44  C34 UNK     1      41.246 -12.796  31.372  1.00  0.00     0.011 A 
ENDBRANCH  38  39
ENDBRANCH  34  37
ENDBRANCH   4  31
TORSDOF 9
ENDMDL
MODEL 9
REMARK VINA RESULT:      -8.4     15.239     17.943
REMARK  9 active torsions:
REMARK  status: ('A' for Active; 'I' for Inactive)
REMARK    1  A    between atoms: C13_20  and  O1_3 
REMARK    2  A    between atoms: C4_11  and  N1_5 
REMARK    3  A    between atoms: C16_23  and  N2_6 
REMARK    4  A    between atoms: C22_29  and  N3_7 
REMARK    5  A    between atoms: C10_17  and  C5_12 
REMARK    6  A    between atoms: C5_12  and  C6_13 
REMARK    7  A    between atoms: C5_12  and  C7_14 
REMARK    8  A    between atoms: C27_34  and  C30_37 
REMARK    9  A    between atoms: C31_38  and  C32_39 
ROOT
HETATM    1  S2  UNK     1      20.377  -5.434   9.921  1.00  0.00    -0.045 SA
HETATM    2  O2  UNK     1      21.184  -1.713   9.590  1.00  0.00    -0.266 OA
HETATM    3  N2  UNK     1      20.470  -3.223  11.239  1.00  0.00    -0.292 N 
HETATM    4  N3  UNK     1      19.778  -5.133  12.494  1.00  0.00    -0.224 NA
HETATM    5  C7  UNK     1      20.867  -4.022   9.071  1.00  0.00     0.087 A 
HETATM    6  C11 UNK     1      20.870  -2.835   9.964  1.00  0.00     0.267 A 
HETATM    7  C15 UNK     1      20.167  -4.554  11.411  1.00  0.00     0.177 A 
ENDROOT
BRANCH   5   8
HETATM    8  C5  UNK     1      21.209  -3.972   7.771  1.00  0.00    -0.001 C 
BRANCH   8   9
HETATM    9  C10 UNK     1      20.182  -4.428   6.812  1.00  0.00    -0.024 A 
HETATM   10  C18 UNK     1      18.988  -3.734   6.722  1.00  0.00     0.012 A 
HETATM   11  C21 UNK     1      18.018  -4.165   5.817  1.00  0.00     0.001 A 
HETATM   12  C23 UNK     1      18.258  -5.282   5.016  1.00  0.00     0.000 A 
HETATM   13  C20 UNK     1      19.467  -5.969   5.121  1.00  0.00     0.001 A 
HETATM   14  C17 UNK     1      20.437  -5.538   6.027  1.00  0.00     0.012 A 
ENDBRANCH   8   9
BRANCH   8  15
HETATM   15  C6  UNK     1      22.525  -3.488   7.385  1.00  0.00     0.051 C 
HETATM   16  C2  UNK     1      23.646  -4.224   7.334  1.00  0.00     0.078 A 
HETATM   17  S1  UNK     1      23.534  -5.953   7.777  1.00  0.00    -0.070 SA
HETATM   18  N1  UNK     1      24.932  -3.816   6.972  1.00  0.00    -0.340 N 
HETATM   19  C3  UNK     1      25.290  -6.100   7.457  1.00  0.00     0.036 A 
HETATM   20  C1  UNK     1      25.857  -4.874   7.043  1.00  0.00     0.052 A 
HETATM   21  C9  UNK     1      26.047  -7.257   7.585  1.00  0.00     0.058 A 
HETATM   22  C8  UNK     1      27.218  -4.826   6.754  1.00  0.00     0.034 A 
HETATM   23  C14 UNK     1      27.989  -5.986   6.880  1.00  0.00     0.039 A 
HETATM   24  C13 UNK     1      27.408  -7.192   7.292  1.00  0.00     0.069 A 
BRANCH  24  25
HETATM   25  O1  UNK     1      28.179  -8.308   7.408  1.00  0.00    -0.356 OA
HETATM   26  C26 UNK     1      27.905  -9.176   8.507  1.00  0.00     0.210 C 
ENDBRANCH  24  25
BRANCH  18  27
HETATM   27  C4  UNK     1      25.368  -2.494   6.564  1.00  0.00     0.125 C 
HETATM   28  C12 UNK     1      25.646  -1.636   7.784  1.00  0.00     0.027 C 
ENDBRANCH  18  27
ENDBRANCH   8  15
ENDBRANCH   5   8
BRANCH   3  29
HETATM   29  C16 UNK     1      20.375  -2.270  12.335  1.00  0.00     0.130 C 
HETATM   30  C19 UNK     1      19.370  -1.185  11.999  1.00  0.00     0.027 C 
ENDBRANCH   3  29
BRANCH   4  31
HETATM   31  C22 UNK     1      19.652  -4.302  13.623  1.00  0.00     0.059 A 
HETATM   32  C24 UNK     1      18.422  -3.725  13.920  1.00  0.00     0.032 A 
HETATM   33  C28 UNK     1      18.297  -2.902  15.039  1.00  0.00     0.013 A 
HETATM   34  C27 UNK     1      19.403  -2.661  15.855  1.00  0.00    -0.036 A 
HETATM   35  C29 UNK     1      20.634  -3.243  15.551  1.00  0.00     0.013 A 
HETATM   36  C25 UNK     1      20.759  -4.066  14.432  1.00  0.00     0.032 A 
BRANCH  34  37
HETATM   37  C30 UNK     1      19.273  -1.803  17.022  1.00  0.00     0.012 C 
HETATM   38  C31 UNK     1      19.107  -0.459  16.989  1.00  0.00     0.012 C 
BRANCH  38  39
HETATM   39  C32 UNK     1      18.956   0.408  18.170  1.00  0.00    -0.036 A 
HETATM   40  C33 UNK     1      18.735  -0.169  19.411  1.00  0.00     0.011 A 
HETATM   41  C35 UNK     1      18.592   0.652  20.529  1.00  0.00     0.001 A 
HETATM   42  C37 UNK     1      18.671   2.038  20.392  1.00  0.00     0.000 A 
HETATM   43  C36 UNK     1      18.893   2.604  19.136  1.00  0.00     0.001 A 
HETATM   44  C34 UNK     1      19.037   1.783  18.017  1.00  0.00     0.011 A 
ENDBRANCH  38  39
ENDBRANCH  34  37
ENDBRANCH   4  31
TORSDOF 9
ENDMDL
MODEL 10
REMARK VINA RESULT:      -8.2     32.456     35.287
REMARK  9 active torsions:
REMARK  status: ('A' for Active; 'I' for Inactive)
REMARK    1  A    between atoms: C13_20  and  O1_3 
REMARK    2  A    between atoms: C4_11  and  N1_5 
REMARK    3  A    between atoms: C16_23  and  N2_6 
REMARK    4  A    between atoms: C22_29  and  N3_7 
REMARK    5  A    between atoms: C10_17  and  C5_12 
REMARK    6  A    between atoms: C5_12  and  C6_13 
REMARK    7  A    between atoms: C5_12  and  C7_14 
REMARK    8  A    between atoms: C27_34  and  C30_37 
REMARK    9  A    between atoms: C31_38  and  C32_39 
ROOT
HETATM    1  S2  UNK     1      31.832  -9.820  35.232  1.00  0.00    -0.045 SA
HETATM    2  O2  UNK     1      29.596  -8.135  32.631  1.00  0.00    -0.266 OA
HETATM    3  N2  UNK     1      29.520  -8.737  34.899  1.00  0.00    -0.292 N 
HETATM    4  N3  UNK     1      29.962  -9.544  37.102  1.00  0.00    -0.224 NA
HETATM    5  C7  UNK     1      31.455  -9.220  33.666  1.00  0.00     0.087 A 
HETATM    6  C11 UNK     1      30.093  -8.628  33.635  1.00  0.00     0.267 A 
HETATM    7  C15 UNK     1      30.285  -9.338  35.872  1.00  0.00     0.177 A 
ENDROOT
BRANCH   5   8
HETATM    8  C5  UNK     1      32.266  -9.267  32.594  1.00  0.00    -0.001 C 
BRANCH   8   9
HETATM    9  C10 UNK     1      31.683  -9.841  31.364  1.00  0.00    -0.024 A 
HETATM   10  C18 UNK     1      31.772  -9.130  30.180  1.00  0.00     0.012 A 
HETATM   11  C21 UNK     1      31.221  -9.671  29.019  1.00  0.00     0.001 A 
HETATM   12  C23 UNK     1      30.592 -10.916  29.059  1.00  0.00     0.000 A 
HETATM   13  C20 UNK     1      30.513 -11.618  30.261  1.00  0.00     0.001 A 
HETATM   14  C17 UNK     1      31.063 -11.077  31.423  1.00  0.00     0.012 A 
ENDBRANCH   8   9
BRANCH   8  15
HETATM   15  C6  UNK     1      33.629  -8.769  32.694  1.00  0.00     0.051 C 
HETATM   16  C2  UNK     1      34.739  -9.524  32.720  1.00  0.00     0.078 A 
HETATM   17  S1  UNK     1      34.547 -11.299  32.625  1.00  0.00    -0.070 SA
HETATM   18  N1  UNK     1      36.067  -9.103  32.813  1.00  0.00    -0.340 N 
HETATM   19  C3  UNK     1      36.329 -11.450  32.720  1.00  0.00     0.036 A 
HETATM   20  C1  UNK     1      36.962 -10.190  32.814  1.00  0.00     0.052 A 
HETATM   21  C9  UNK     1      37.048 -12.637  32.706  1.00  0.00     0.058 A 
HETATM   22  C8  UNK     1      38.351 -10.140  32.895  1.00  0.00     0.034 A 
HETATM   23  C14 UNK     1      39.084 -11.331  32.882  1.00  0.00     0.039 A 
HETATM   24  C13 UNK     1      38.438 -12.570  32.788  1.00  0.00     0.069 A 
BRANCH  24  25
HETATM   25  O1  UNK     1      39.172 -13.716  32.777  1.00  0.00    -0.356 OA
HETATM   26  C26 UNK     1      40.546 -13.611  33.146  1.00  0.00     0.210 C 
ENDBRANCH  24  25
BRANCH  18  27
HETATM   27  C4  UNK     1      36.571  -7.747  32.906  1.00  0.00     0.125 C 
HETATM   28  C12 UNK     1      36.662  -7.322  34.360  1.00  0.00     0.027 C 
ENDBRANCH  18  27
ENDBRANCH   8  15
ENDBRANCH   5   8
BRANCH   3  29
HETATM   29  C16 UNK     1      28.180  -8.242  35.176  1.00  0.00     0.130 C 
HETATM   30  C19 UNK     1      28.099  -6.757  34.878  1.00  0.00     0.027 C 
ENDBRANCH   3  29
BRANCH   4  31
HETATM   31  C22 UNK     1      28.682  -9.102  37.483  1.00  0.00     0.059 A 
HETATM   32  C24 UNK     1      28.542  -7.890  38.151  1.00  0.00     0.032 A 
HETATM   33  C28 UNK     1      27.273  -7.451  38.527  1.00  0.00     0.013 A 
HETATM   34  C27 UNK     1      26.151  -8.226  38.235  1.00  0.00    -0.036 A 
HETATM   35  C29 UNK     1      26.298  -9.441  37.564  1.00  0.00     0.013 A 
HETATM   36  C25 UNK     1      27.567  -9.880  37.187  1.00  0.00     0.032 A 
BRANCH  34  37
HETATM   37  C30 UNK     1      24.828  -7.768  38.628  1.00  0.00     0.012 C 
HETATM   38  C31 UNK     1      23.658  -8.321  38.226  1.00  0.00     0.012 C 
BRANCH  38  39
HETATM   39  C32 UNK     1      22.319  -7.869  38.639  1.00  0.00    -0.036 A 
HETATM   40  C33 UNK     1      21.998  -6.524  38.545  1.00  0.00     0.011 A 
HETATM   41  C35 UNK     1      20.730  -6.096  38.937  1.00  0.00     0.001 A 
HETATM   42  C37 UNK     1      19.799  -7.018  39.415  1.00  0.00     0.000 A 
HETATM   43  C36 UNK     1      20.137  -8.369  39.504  1.00  0.00     0.001 A 
HETATM   44  C34 UNK     1      21.406  -8.798  39.113  1.00  0.00     0.011 A 
ENDBRANCH  38  39
ENDBRANCH  34  37
ENDBRANCH   4  31
TORSDOF 9
ENDMDL
