MODEL 1
REMARK VINA RESULT:      -8.8      0.000      0.000
REMARK  6 active torsions:
REMARK  status: ('A' for Active; 'I' for Inactive)
REMARK    1  A    between atoms: C14_21  and  O3_3 
REMARK    2  A    between atoms: C20_27  and  O3_3 
REMARK    3  A    between atoms: C29_36  and  O6_6 
REMARK    4  A    between atoms: C12_19  and  C6_13 
REMARK    5  A    between atoms: C10_17  and  C14_21 
REMARK    6  A    between atoms: C20_27  and  C24_31 
ROOT
HETATM    1  O1  UNK     1      29.370  -5.540  31.837  1.00  0.00    -0.293 OA
HETATM    2  N1  UNK     1      31.806  -9.596  32.044  1.00  0.00    -0.362 N 
HETATM    3  C1  UNK     1      29.049  -8.474  29.730  1.00  0.00    -0.036 C 
HETATM    4  C2  UNK     1      29.809  -9.480  30.618  1.00  0.00     0.067 C 
HETATM    5  C3  UNK     1      28.448  -7.373  30.613  1.00  0.00     0.092 C 
HETATM    6  C4  UNK     1      30.738  -8.831  31.614  1.00  0.00     0.021 C 
HETATM    7  C5  UNK     1      30.590  -7.563  32.053  1.00  0.00     0.024 C 
HETATM    8  C6  UNK     1      31.559  -6.959  33.068  1.00  0.00     0.104 C 
HETATM    9  C7  UNK     1      29.476  -6.724  31.516  1.00  0.00     0.159 C 
HETATM   10  C8  UNK     1      29.991  -7.861  28.670  1.00  0.00     0.015 C 
HETATM   11  C9  UNK     1      27.916  -9.208  28.992  1.00  0.00     0.015 C 
HETATM   12  C10 UNK     1      32.789  -7.844  33.295  1.00  0.00     0.052 C 
HETATM   13  C11 UNK     1      32.848  -9.108  32.817  1.00  0.00     0.018 C 
HETATM   14  C13 UNK     1      33.982 -10.072  33.039  1.00  0.00     0.069 C 
HETATM   15  H12 UNK     1      31.883 -10.543  31.694  1.00  0.00     0.165 HD
ENDROOT
BRANCH  12  16
HETATM   16  C14 UNK     1      33.922  -7.232  34.008  1.00  0.00     0.292 C 
HETATM   17  O4  UNK     1      34.458  -6.199  33.651  1.00  0.00    -0.259 OA
BRANCH  16  18
HETATM   18  O3  UNK     1      34.223  -8.007  35.078  1.00  0.00    -0.313 OA
BRANCH  18  19
HETATM   19  C20 UNK     1      33.959  -7.411  36.352  1.00  0.00     0.217 C 
BRANCH  19  20
HETATM   20  C24 UNK     1      32.880  -8.192  37.045  1.00  0.00    -0.034 A 
HETATM   21  C25 UNK     1      32.369  -9.338  36.447  1.00  0.00     0.012 A 
HETATM   22  C27 UNK     1      31.367 -10.063  37.092  1.00  0.00     0.037 A 
HETATM   23  C29 UNK     1      30.881  -9.636  38.327  1.00  0.00     0.068 A 
HETATM   24  C28 UNK     1      31.398  -8.484  38.919  1.00  0.00     0.037 A 
HETATM   25  C26 UNK     1      32.401  -7.760  38.276  1.00  0.00     0.012 A 
BRANCH  23  26
HETATM   26  O6  UNK     1      29.903 -10.345  38.955  1.00  0.00    -0.356 OA
HETATM   27  C30 UNK     1      28.628  -9.716  39.085  1.00  0.00     0.210 C 
ENDBRANCH  23  26
ENDBRANCH  19  20
ENDBRANCH  18  19
ENDBRANCH  16  18
ENDBRANCH  12  16
BRANCH   8  28
HETATM   28  C12 UNK     1      30.858  -6.696  34.377  1.00  0.00     0.029 A 
HETATM   29  C15 UNK     1      31.197  -5.460  35.127  1.00  0.00     0.194 A 
HETATM   30  O5  UNK     1      32.021  -4.654  34.715  1.00  0.00    -0.287 OA
HETATM   31  C17 UNK     1      30.486  -5.252  36.401  1.00  0.00     0.048 A 
HETATM   32  C18 UNK     1      29.556  -6.204  36.822  1.00  0.00     0.089 A 
HETATM   33  C19 UNK     1      30.734  -4.119  37.180  1.00  0.00     0.018 A 
HETATM   34  O2  UNK     1      29.273  -7.334  36.097  1.00  0.00    -0.321 OA
HETATM   35  C21 UNK     1      28.871  -6.028  38.025  1.00  0.00     0.038 A 
HETATM   36  C16 UNK     1      29.944  -7.514  34.913  1.00  0.00     0.154 A 
HETATM   37  C23 UNK     1      29.118  -4.898  38.805  1.00  0.00     0.003 A 
HETATM   38  C22 UNK     1      30.047  -3.946  38.383  1.00  0.00     0.001 A 
ENDBRANCH   8  28
TORSDOF 6
ENDMDL
MODEL 2
REMARK VINA RESULT:      -8.6      2.465      6.469
REMARK  6 active torsions:
REMARK  status: ('A' for Active; 'I' for Inactive)
REMARK    1  A    between atoms: C14_21  and  O3_3 
REMARK    2  A    between atoms: C20_27  and  O3_3 
REMARK    3  A    between atoms: C29_36  and  O6_6 
REMARK    4  A    between atoms: C12_19  and  C6_13 
REMARK    5  A    between atoms: C10_17  and  C14_21 
REMARK    6  A    between atoms: C20_27  and  C24_31 
ROOT
HETATM    1  O1  UNK     1      30.292  -9.598  34.974  1.00  0.00    -0.293 OA
HETATM    2  N1  UNK     1      29.166  -5.578  37.212  1.00  0.00    -0.362 N 
HETATM    3  C1  UNK     1      27.658  -9.029  37.400  1.00  0.00    -0.036 C 
HETATM    4  C2  UNK     1      27.627  -7.488  37.350  1.00  0.00     0.067 C 
HETATM    5  C3  UNK     1      28.162  -9.569  36.055  1.00  0.00     0.092 C 
HETATM    6  C4  UNK     1      28.891  -6.871  36.806  1.00  0.00     0.021 C 
HETATM    7  C5  UNK     1      29.753  -7.528  36.001  1.00  0.00     0.024 C 
HETATM    8  C6  UNK     1      31.018  -6.851  35.475  1.00  0.00     0.104 C 
HETATM    9  C7  UNK     1      29.481  -8.952  35.637  1.00  0.00     0.159 C 
HETATM   10  C8  UNK     1      28.562  -9.519  38.551  1.00  0.00     0.015 C 
HETATM   11  C9  UNK     1      26.234  -9.554  37.656  1.00  0.00     0.015 C 
HETATM   12  C10 UNK     1      31.286  -5.508  36.162  1.00  0.00     0.052 C 
HETATM   13  C11 UNK     1      30.359  -4.922  36.954  1.00  0.00     0.018 C 
HETATM   14  C13 UNK     1      30.505  -3.581  37.621  1.00  0.00     0.069 C 
HETATM   15  H12 UNK     1      28.496  -5.118  37.816  1.00  0.00     0.165 HD
ENDROOT
BRANCH  12  16
HETATM   16  C14 UNK     1      32.619  -4.917  35.962  1.00  0.00     0.292 C 
HETATM   17  O4  UNK     1      32.795  -3.810  35.487  1.00  0.00    -0.259 OA
BRANCH  16  18
HETATM   18  O3  UNK     1      33.549  -5.804  36.391  1.00  0.00    -0.313 OA
BRANCH  18  19
HETATM   19  C20 UNK     1      34.905  -5.446  36.106  1.00  0.00     0.217 C 
BRANCH  19  20
HETATM   20  C24 UNK     1      35.368  -6.204  34.897  1.00  0.00    -0.034 A 
HETATM   21  C25 UNK     1      35.939  -7.463  35.051  1.00  0.00     0.012 A 
HETATM   22  C27 UNK     1      36.370  -8.167  33.927  1.00  0.00     0.037 A 
HETATM   23  C29 UNK     1      36.228  -7.608  32.657  1.00  0.00     0.068 A 
HETATM   24  C28 UNK     1      35.655  -6.345  32.511  1.00  0.00     0.037 A 
HETATM   25  C26 UNK     1      35.224  -5.641  33.635  1.00  0.00     0.012 A 
BRANCH  23  26
HETATM   26  O6  UNK     1      36.648  -8.297  31.560  1.00  0.00    -0.356 OA
HETATM   27  C30 UNK     1      35.933  -9.486  31.226  1.00  0.00     0.210 C 
ENDBRANCH  23  26
ENDBRANCH  19  20
ENDBRANCH  18  19
ENDBRANCH  16  18
ENDBRANCH  12  16
BRANCH   8  28
HETATM   28  C12 UNK     1      30.936  -6.664  33.981  1.00  0.00     0.029 A 
HETATM   29  C15 UNK     1      31.925  -7.366  33.124  1.00  0.00     0.194 A 
HETATM   30  O5  UNK     1      32.797  -8.087  33.592  1.00  0.00    -0.287 OA
HETATM   31  C17 UNK     1      31.803  -7.147  31.671  1.00  0.00     0.048 A 
HETATM   32  C18 UNK     1      30.790  -6.315  31.193  1.00  0.00     0.089 A 
HETATM   33  C19 UNK     1      32.686  -7.763  30.780  1.00  0.00     0.018 A 
HETATM   34  O2  UNK     1      29.896  -5.685  32.022  1.00  0.00    -0.321 OA
HETATM   35  C21 UNK     1      30.656  -6.094  29.821  1.00  0.00     0.038 A 
HETATM   36  C16 UNK     1      30.023  -5.897  33.372  1.00  0.00     0.154 A 
HETATM   37  C23 UNK     1      31.537  -6.707  28.931  1.00  0.00     0.003 A 
HETATM   38  C22 UNK     1      32.549  -7.540  29.410  1.00  0.00     0.001 A 
ENDBRANCH   8  28
TORSDOF 6
ENDMDL
MODEL 3
REMARK VINA RESULT:      -8.6      2.421      6.760
REMARK  6 active torsions:
REMARK  status: ('A' for Active; 'I' for Inactive)
REMARK    1  A    between atoms: C14_21  and  O3_3 
REMARK    2  A    between atoms: C20_27  and  O3_3 
REMARK    3  A    between atoms: C29_36  and  O6_6 
REMARK    4  A    between atoms: C12_19  and  C6_13 
REMARK    5  A    between atoms: C10_17  and  C14_21 
REMARK    6  A    between atoms: C20_27  and  C24_31 
ROOT
HETATM    1  O1  UNK     1      29.951  -9.820  36.906  1.00  0.00    -0.293 OA
HETATM    2  N1  UNK     1      29.221  -5.170  37.428  1.00  0.00    -0.362 N 
HETATM    3  C1  UNK     1      27.082  -8.136  38.349  1.00  0.00    -0.036 C 
HETATM    4  C2  UNK     1      27.350  -6.718  37.806  1.00  0.00     0.067 C 
HETATM    5  C3  UNK     1      27.707  -9.168  37.400  1.00  0.00     0.092 C 
HETATM    6  C4  UNK     1      28.785  -6.482  37.402  1.00  0.00     0.021 C 
HETATM    7  C5  UNK     1      29.636  -7.475  37.069  1.00  0.00     0.024 C 
HETATM    8  C6  UNK     1      31.079  -7.176  36.662  1.00  0.00     0.104 C 
HETATM    9  C7  UNK     1      29.171  -8.894  37.124  1.00  0.00     0.159 C 
HETATM   10  C8  UNK     1      27.659  -8.293  39.772  1.00  0.00     0.015 C 
HETATM   11  C9  UNK     1      25.563  -8.369  38.423  1.00  0.00     0.015 C 
HETATM   12  C10 UNK     1      31.468  -5.719  36.929  1.00  0.00     0.052 C 
HETATM   13  C11 UNK     1      30.542  -4.789  37.258  1.00  0.00     0.018 C 
HETATM   14  C13 UNK     1      30.816  -3.326  37.478  1.00  0.00     0.069 C 
HETATM   15  H12 UNK     1      28.552  -4.453  37.682  1.00  0.00     0.165 HD
ENDROOT
BRANCH  12  16
HETATM   16  C14 UNK     1      32.902  -5.395  36.865  1.00  0.00     0.292 C 
HETATM   17  O4  UNK     1      33.655  -5.501  37.816  1.00  0.00    -0.259 OA
BRANCH  16  18
HETATM   18  O3  UNK     1      33.191  -4.981  35.607  1.00  0.00    -0.313 OA
BRANCH  18  19
HETATM   19  C20 UNK     1      34.559  -4.618  35.388  1.00  0.00     0.217 C 
BRANCH  19  20
HETATM   20  C24 UNK     1      35.224  -5.686  34.570  1.00  0.00    -0.034 A 
HETATM   21  C25 UNK     1      35.962  -6.679  35.203  1.00  0.00     0.012 A 
HETATM   22  C27 UNK     1      36.580  -7.671  34.442  1.00  0.00     0.037 A 
HETATM   23  C29 UNK     1      36.457  -7.663  33.053  1.00  0.00     0.068 A 
HETATM   24  C28 UNK     1      35.715  -6.662  32.425  1.00  0.00     0.037 A 
HETATM   25  C26 UNK     1      35.097  -5.671  33.185  1.00  0.00     0.012 A 
BRANCH  23  26
HETATM   26  O6  UNK     1      37.061  -8.631  32.311  1.00  0.00    -0.356 OA
HETATM   27  C30 UNK     1      37.410  -9.840  32.983  1.00  0.00     0.210 C 
ENDBRANCH  23  26
ENDBRANCH  19  20
ENDBRANCH  18  19
ENDBRANCH  16  18
ENDBRANCH  12  16
BRANCH   8  28
HETATM   28  C12 UNK     1      31.300  -7.517  35.209  1.00  0.00     0.029 A 
HETATM   29  C15 UNK     1      32.407  -8.443  34.860  1.00  0.00     0.194 A 
HETATM   30  O5  UNK     1      33.137  -8.936  35.709  1.00  0.00    -0.287 OA
HETATM   31  C17 UNK     1      32.582  -8.740  33.426  1.00  0.00     0.048 A 
HETATM   32  C18 UNK     1      31.720  -8.150  32.501  1.00  0.00     0.089 A 
HETATM   33  C19 UNK     1      33.594  -9.600  32.995  1.00  0.00     0.018 A 
HETATM   34  O2  UNK     1      30.708  -7.299  32.868  1.00  0.00    -0.321 OA
HETATM   35  C21 UNK     1      31.867  -8.418  31.139  1.00  0.00     0.038 A 
HETATM   36  C16 UNK     1      30.559  -7.030  34.207  1.00  0.00     0.154 A 
HETATM   37  C23 UNK     1      32.878  -9.276  30.706  1.00  0.00     0.003 A 
HETATM   38  C22 UNK     1      33.739  -9.865  31.632  1.00  0.00     0.001 A 
ENDBRANCH   8  28
TORSDOF 6
ENDMDL
MODEL 4
REMARK VINA RESULT:      -8.5      2.380      7.089
REMARK  6 active torsions:
REMARK  status: ('A' for Active; 'I' for Inactive)
REMARK    1  A    between atoms: C14_21  and  O3_3 
REMARK    2  A    between atoms: C20_27  and  O3_3 
REMARK    3  A    between atoms: C29_36  and  O6_6 
REMARK    4  A    between atoms: C12_19  and  C6_13 
REMARK    5  A    between atoms: C10_17  and  C14_21 
REMARK    6  A    between atoms: C20_27  and  C24_31 
ROOT
HETATM    1  O1  UNK     1      29.137  -7.442  36.134  1.00  0.00    -0.293 OA
HETATM    2  N1  UNK     1      32.833  -4.537  35.554  1.00  0.00    -0.362 N 
HETATM    3  C1  UNK     1      30.300  -4.803  38.334  1.00  0.00    -0.036 C 
HETATM    4  C2  UNK     1      31.214  -4.060  37.339  1.00  0.00     0.067 C 
HETATM    5  C3  UNK     1      29.189  -5.525  37.558  1.00  0.00     0.092 C 
HETATM    6  C4  UNK     1      31.648  -4.902  36.166  1.00  0.00     0.021 C 
HETATM    7  C5  UNK     1      30.966  -5.984  35.734  1.00  0.00     0.024 C 
HETATM    8  C6  UNK     1      31.450  -6.798  34.535  1.00  0.00     0.104 C 
HETATM    9  C7  UNK     1      29.730  -6.412  36.456  1.00  0.00     0.159 C 
HETATM   10  C8  UNK     1      31.112  -5.811  39.174  1.00  0.00     0.015 C 
HETATM   11  C9  UNK     1      29.666  -3.783  39.297  1.00  0.00     0.015 C 
HETATM   12  C10 UNK     1      32.862  -6.399  34.094  1.00  0.00     0.052 C 
HETATM   13  C11 UNK     1      33.468  -5.292  34.582  1.00  0.00     0.018 C 
HETATM   14  C13 UNK     1      34.823  -4.786  34.166  1.00  0.00     0.069 C 
HETATM   15  H12 UNK     1      33.316  -3.719  35.906  1.00  0.00     0.165 HD
ENDROOT
BRANCH  12  16
HETATM   16  C14 UNK     1      33.545  -7.307  33.158  1.00  0.00     0.292 C 
HETATM   17  O4  UNK     1      34.211  -8.261  33.519  1.00  0.00    -0.259 OA
BRANCH  16  18
HETATM   18  O3  UNK     1      33.293  -6.889  31.895  1.00  0.00    -0.313 OA
BRANCH  18  19
HETATM   19  C20 UNK     1      33.842  -7.714  30.862  1.00  0.00     0.217 C 
BRANCH  19  20
HETATM   20  C24 UNK     1      32.726  -8.224  29.997  1.00  0.00    -0.034 A 
HETATM   21  C25 UNK     1      32.517  -9.593  29.880  1.00  0.00     0.012 A 
HETATM   22  C27 UNK     1      31.479 -10.066  29.075  1.00  0.00     0.037 A 
HETATM   23  C29 UNK     1      30.660  -9.166  28.393  1.00  0.00     0.068 A 
HETATM   24  C28 UNK     1      30.878  -7.794  28.516  1.00  0.00     0.037 A 
HETATM   25  C26 UNK     1      31.914  -7.321  29.320  1.00  0.00     0.012 A 
BRANCH  23  26
HETATM   26  O6  UNK     1      29.649  -9.629  27.608  1.00  0.00    -0.356 OA
HETATM   27  C30 UNK     1      28.861 -10.700  28.128  1.00  0.00     0.210 C 
ENDBRANCH  23  26
ENDBRANCH  19  20
ENDBRANCH  18  19
ENDBRANCH  16  18
ENDBRANCH  12  16
BRANCH   8  28
HETATM   28  C12 UNK     1      30.488  -6.665  33.381  1.00  0.00     0.029 A 
HETATM   29  C15 UNK     1      29.816  -7.888  32.874  1.00  0.00     0.194 A 
HETATM   30  O5  UNK     1      30.018  -8.992  33.363  1.00  0.00    -0.287 OA
HETATM   31  C17 UNK     1      28.887  -7.704  31.744  1.00  0.00     0.048 A 
HETATM   32  C18 UNK     1      28.695  -6.422  31.227  1.00  0.00     0.089 A 
HETATM   33  C19 UNK     1      28.206  -8.793  31.195  1.00  0.00     0.018 A 
HETATM   34  O2  UNK     1      29.337  -5.317  31.727  1.00  0.00    -0.321 OA
HETATM   35  C21 UNK     1      27.820  -6.224  30.157  1.00  0.00     0.038 A 
HETATM   36  C16 UNK     1      30.200  -5.505  32.778  1.00  0.00     0.154 A 
HETATM   37  C23 UNK     1      27.140  -7.311  29.608  1.00  0.00     0.003 A 
HETATM   38  C22 UNK     1      27.333  -8.592  30.126  1.00  0.00     0.001 A 
ENDBRANCH   8  28
TORSDOF 6
ENDMDL
MODEL 5
REMARK VINA RESULT:      -8.5      2.251      5.638
REMARK  6 active torsions:
REMARK  status: ('A' for Active; 'I' for Inactive)
REMARK    1  A    between atoms: C14_21  and  O3_3 
REMARK    2  A    between atoms: C20_27  and  O3_3 
REMARK    3  A    between atoms: C29_36  and  O6_6 
REMARK    4  A    between atoms: C12_19  and  C6_13 
REMARK    5  A    between atoms: C10_17  and  C14_21 
REMARK    6  A    between atoms: C20_27  and  C24_31 
ROOT
HETATM    1  O1  UNK     1      30.551  -9.348  32.226  1.00  0.00    -0.293 OA
HETATM    2  N1  UNK     1      31.233  -4.861  33.579  1.00  0.00    -0.362 N 
HETATM    3  C1  UNK     1      28.627  -6.406  31.335  1.00  0.00    -0.036 C 
HETATM    4  C2  UNK     1      29.641  -5.328  31.767  1.00  0.00     0.067 C 
HETATM    5  C3  UNK     1      29.381  -7.691  30.965  1.00  0.00     0.092 C 
HETATM    6  C4  UNK     1      30.665  -5.819  32.760  1.00  0.00     0.021 C 
HETATM    7  C5  UNK     1      31.003  -7.119  32.898  1.00  0.00     0.024 C 
HETATM    8  C6  UNK     1      32.052  -7.559  33.919  1.00  0.00     0.104 C 
HETATM    9  C7  UNK     1      30.321  -8.151  32.060  1.00  0.00     0.159 C 
HETATM   10  C8  UNK     1      27.611  -6.683  32.464  1.00  0.00     0.015 C 
HETATM   11  C9  UNK     1      27.848  -5.903  30.106  1.00  0.00     0.015 C 
HETATM   12  C10 UNK     1      32.440  -6.429  34.877  1.00  0.00     0.052 C 
HETATM   13  C11 UNK     1      32.056  -5.151  34.656  1.00  0.00     0.018 C 
HETATM   14  C13 UNK     1      32.436  -3.967  35.504  1.00  0.00     0.069 C 
HETATM   15  H12 UNK     1      30.955  -3.896  33.445  1.00  0.00     0.165 HD
ENDROOT
BRANCH  12  16
HETATM   16  C14 UNK     1      33.203  -6.811  36.077  1.00  0.00     0.292 C 
HETATM   17  O4  UNK     1      34.400  -6.622  36.197  1.00  0.00    -0.259 OA
BRANCH  16  18
HETATM   18  O3  UNK     1      32.349  -7.379  36.963  1.00  0.00    -0.313 OA
BRANCH  18  19
HETATM   19  C20 UNK     1      32.271  -6.725  38.234  1.00  0.00     0.217 C 
BRANCH  19  20
HETATM   20  C24 UNK     1      30.899  -6.140  38.401  1.00  0.00    -0.034 A 
HETATM   21  C25 UNK     1      30.751  -4.768  38.568  1.00  0.00     0.012 A 
HETATM   22  C27 UNK     1      29.475  -4.226  38.723  1.00  0.00     0.037 A 
HETATM   23  C29 UNK     1      28.357  -5.059  38.711  1.00  0.00     0.068 A 
HETATM   24  C28 UNK     1      28.514  -6.435  38.544  1.00  0.00     0.037 A 
HETATM   25  C26 UNK     1      29.789  -6.977  38.388  1.00  0.00     0.012 A 
BRANCH  23  26
HETATM   26  O6  UNK     1      27.112  -4.529  38.863  1.00  0.00    -0.356 OA
HETATM   27  C30 UNK     1      26.006  -5.422  38.736  1.00  0.00     0.210 C 
ENDBRANCH  23  26
ENDBRANCH  19  20
ENDBRANCH  18  19
ENDBRANCH  16  18
ENDBRANCH  12  16
BRANCH   8  28
HETATM   28  C12 UNK     1      33.279  -8.092  33.220  1.00  0.00     0.029 A 
HETATM   29  C15 UNK     1      33.702  -9.488  33.499  1.00  0.00     0.194 A 
HETATM   30  O5  UNK     1      33.088 -10.213  34.272  1.00  0.00    -0.287 OA
HETATM   31  C17 UNK     1      34.907  -9.959  32.793  1.00  0.00     0.048 A 
HETATM   32  C18 UNK     1      35.567  -9.090  31.923  1.00  0.00     0.089 A 
HETATM   33  C19 UNK     1      35.386 -11.257  32.987  1.00  0.00     0.018 A 
HETATM   34  O2  UNK     1      35.140  -7.806  31.694  1.00  0.00    -0.321 OA
HETATM   35  C21 UNK     1      36.710  -9.515  31.244  1.00  0.00     0.038 A 
HETATM   36  C16 UNK     1      34.017  -7.381  32.360  1.00  0.00     0.154 A 
HETATM   37  C23 UNK     1      37.190 -10.810  31.437  1.00  0.00     0.003 A 
HETATM   38  C22 UNK     1      36.530 -11.678  32.307  1.00  0.00     0.001 A 
ENDBRANCH   8  28
TORSDOF 6
ENDMDL
MODEL 6
REMARK VINA RESULT:      -8.4      2.028      4.380
REMARK  6 active torsions:
REMARK  status: ('A' for Active; 'I' for Inactive)
REMARK    1  A    between atoms: C14_21  and  O3_3 
REMARK    2  A    between atoms: C20_27  and  O3_3 
REMARK    3  A    between atoms: C29_36  and  O6_6 
REMARK    4  A    between atoms: C12_19  and  C6_13 
REMARK    5  A    between atoms: C10_17  and  C14_21 
REMARK    6  A    between atoms: C20_27  and  C24_31 
ROOT
HETATM    1  O1  UNK     1      29.332  -5.492  32.402  1.00  0.00    -0.293 OA
HETATM    2  N1  UNK     1      31.482  -9.711  32.500  1.00  0.00    -0.362 N 
HETATM    3  C1  UNK     1      28.828  -8.332  30.204  1.00  0.00    -0.036 C 
HETATM    4  C2  UNK     1      29.510  -9.414  31.066  1.00  0.00     0.067 C 
HETATM    5  C3  UNK     1      28.296  -7.219  31.117  1.00  0.00     0.092 C 
HETATM    6  C4  UNK     1      30.472  -8.861  32.087  1.00  0.00     0.021 C 
HETATM    7  C5  UNK     1      30.409  -7.600  32.564  1.00  0.00     0.024 C 
HETATM    8  C6  UNK     1      31.409  -7.095  33.603  1.00  0.00     0.104 C 
HETATM    9  C7  UNK     1      29.359  -6.670  32.046  1.00  0.00     0.159 C 
HETATM   10  C8  UNK     1      29.818  -7.754  29.170  1.00  0.00     0.015 C 
HETATM   11  C9  UNK     1      27.653  -8.963  29.437  1.00  0.00     0.015 C 
HETATM   12  C10 UNK     1      32.572  -8.069  33.810  1.00  0.00     0.052 C 
HETATM   13  C11 UNK     1      32.548  -9.320  33.294  1.00  0.00     0.018 C 
HETATM   14  C13 UNK     1      33.611 -10.366  33.493  1.00  0.00     0.069 C 
HETATM   15  H12 UNK     1      31.497 -10.650  32.121  1.00  0.00     0.165 HD
ENDROOT
BRANCH  12  16
HETATM   16  C14 UNK     1      33.739  -7.559  34.549  1.00  0.00     0.292 C 
HETATM   17  O4  UNK     1      34.015  -7.905  35.683  1.00  0.00    -0.259 OA
BRANCH  16  18
HETATM   18  O3  UNK     1      34.399  -6.683  33.754  1.00  0.00    -0.313 OA
BRANCH  18  19
HETATM   19  C20 UNK     1      35.819  -6.857  33.709  1.00  0.00     0.217 C 
BRANCH  19  20
HETATM   20  C24 UNK     1      36.151  -7.925  32.708  1.00  0.00    -0.034 A 
HETATM   21  C25 UNK     1      35.516  -7.930  31.471  1.00  0.00     0.012 A 
HETATM   22  C27 UNK     1      35.824  -8.923  30.541  1.00  0.00     0.037 A 
HETATM   23  C29 UNK     1      36.763  -9.905  30.855  1.00  0.00     0.068 A 
HETATM   24  C28 UNK     1      37.394  -9.894  32.099  1.00  0.00     0.037 A 
HETATM   25  C26 UNK     1      37.087  -8.901  33.028  1.00  0.00     0.012 A 
BRANCH  23  26
HETATM   26  O6  UNK     1      37.063 -10.874  29.947  1.00  0.00    -0.356 OA
HETATM   27  C30 UNK     1      38.322 -10.775  29.283  1.00  0.00     0.210 C 
ENDBRANCH  23  26
ENDBRANCH  19  20
ENDBRANCH  18  19
ENDBRANCH  16  18
ENDBRANCH  12  16
BRANCH   8  28
HETATM   28  C12 UNK     1      30.717  -6.824  34.915  1.00  0.00     0.029 A 
HETATM   29  C15 UNK     1      30.988  -5.539  35.607  1.00  0.00     0.194 A 
HETATM   30  O5  UNK     1      31.750  -4.699  35.147  1.00  0.00    -0.287 OA
HETATM   31  C17 UNK     1      30.289  -5.326  36.888  1.00  0.00     0.048 A 
HETATM   32  C18 UNK     1      29.431  -6.318  37.366  1.00  0.00     0.089 A 
HETATM   33  C19 UNK     1      30.477  -4.148  37.616  1.00  0.00     0.018 A 
HETATM   34  O2  UNK     1      29.208  -7.492  36.693  1.00  0.00    -0.321 OA
HETATM   35  C21 UNK     1      28.758  -6.136  38.575  1.00  0.00     0.038 A 
HETATM   36  C16 UNK     1      29.868  -7.677  35.502  1.00  0.00     0.154 A 
HETATM   37  C23 UNK     1      28.946  -4.962  39.304  1.00  0.00     0.003 A 
HETATM   38  C22 UNK     1      29.803  -3.971  38.825  1.00  0.00     0.001 A 
ENDBRANCH   8  28
TORSDOF 6
ENDMDL
MODEL 7
REMARK VINA RESULT:      -8.4      2.160      3.910
REMARK  6 active torsions:
REMARK  status: ('A' for Active; 'I' for Inactive)
REMARK    1  A    between atoms: C14_21  and  O3_3 
REMARK    2  A    between atoms: C20_27  and  O3_3 
REMARK    3  A    between atoms: C29_36  and  O6_6 
REMARK    4  A    between atoms: C12_19  and  C6_13 
REMARK    5  A    between atoms: C10_17  and  C14_21 
REMARK    6  A    between atoms: C20_27  and  C24_31 
ROOT
HETATM    1  O1  UNK     1      28.405  -6.062  33.832  1.00  0.00    -0.293 OA
HETATM    2  N1  UNK     1      28.897 -10.029  31.290  1.00  0.00    -0.362 N 
HETATM    3  C1  UNK     1      27.268  -6.732  30.454  1.00  0.00    -0.036 C 
HETATM    4  C2  UNK     1      27.390  -8.269  30.470  1.00  0.00     0.067 C 
HETATM    5  C3  UNK     1      27.032  -6.228  31.884  1.00  0.00     0.092 C 
HETATM    6  C4  UNK     1      28.323  -8.794  31.534  1.00  0.00     0.021 C 
HETATM    7  C5  UNK     1      28.636  -8.108  32.653  1.00  0.00     0.024 C 
HETATM    8  C6  UNK     1      29.584  -8.692  33.700  1.00  0.00     0.104 C 
HETATM    9  C7  UNK     1      28.069  -6.741  32.861  1.00  0.00     0.159 C 
HETATM   10  C8  UNK     1      28.540  -6.090  29.859  1.00  0.00     0.015 C 
HETATM   11  C9  UNK     1      26.074  -6.330  29.570  1.00  0.00     0.015 C 
HETATM   12  C10 UNK     1      30.287  -9.959  33.204  1.00  0.00     0.052 C 
HETATM   13  C11 UNK     1      29.902 -10.583  32.067  1.00  0.00     0.018 C 
HETATM   14  C13 UNK     1      30.488 -11.861  31.532  1.00  0.00     0.069 C 
HETATM   15  H12 UNK     1      28.636 -10.514  30.440  1.00  0.00     0.165 HD
ENDROOT
BRANCH  12  16
HETATM   16  C14 UNK     1      31.435 -10.432  33.995  1.00  0.00     0.292 C 
HETATM   17  O4  UNK     1      31.326 -11.180  34.950  1.00  0.00    -0.259 OA
BRANCH  16  18
HETATM   18  O3  UNK     1      32.564  -9.897  33.472  1.00  0.00    -0.313 OA
BRANCH  18  19
HETATM   19  C20 UNK     1      33.556  -9.516  34.432  1.00  0.00     0.217 C 
BRANCH  19  20
HETATM   20  C24 UNK     1      33.361  -8.072  34.790  1.00  0.00    -0.034 A 
HETATM   21  C25 UNK     1      32.942  -7.172  33.817  1.00  0.00     0.012 A 
HETATM   22  C27 UNK     1      32.761  -5.829  34.151  1.00  0.00     0.037 A 
HETATM   23  C29 UNK     1      33.002  -5.396  35.454  1.00  0.00     0.068 A 
HETATM   24  C28 UNK     1      33.424  -6.305  36.424  1.00  0.00     0.037 A 
HETATM   25  C26 UNK     1      33.604  -7.647  36.091  1.00  0.00     0.012 A 
BRANCH  23  26
HETATM   26  O6  UNK     1      32.826  -4.086  35.778  1.00  0.00    -0.356 OA
HETATM   27  C30 UNK     1      31.834  -3.787  36.759  1.00  0.00     0.210 C 
ENDBRANCH  23  26
ENDBRANCH  19  20
ENDBRANCH  18  19
ENDBRANCH  16  18
ENDBRANCH  12  16
BRANCH   8  28
HETATM   28  C12 UNK     1      28.844  -8.975  34.984  1.00  0.00     0.029 A 
HETATM   29  C15 UNK     1      29.218  -8.210  36.200  1.00  0.00     0.194 A 
HETATM   30  O5  UNK     1      30.099  -7.361  36.190  1.00  0.00    -0.287 OA
HETATM   31  C17 UNK     1      28.466  -8.527  37.428  1.00  0.00     0.048 A 
HETATM   32  C18 UNK     1      27.471  -9.503  37.381  1.00  0.00     0.089 A 
HETATM   33  C19 UNK     1      28.742  -7.861  38.625  1.00  0.00     0.018 A 
HETATM   34  O2  UNK     1      27.157 -10.187  36.234  1.00  0.00    -0.321 OA
HETATM   35  C21 UNK     1      26.747  -9.819  38.532  1.00  0.00     0.038 A 
HETATM   36  C16 UNK     1      27.867  -9.882  35.098  1.00  0.00     0.154 A 
HETATM   37  C23 UNK     1      27.022  -9.157  39.728  1.00  0.00     0.003 A 
HETATM   38  C22 UNK     1      28.017  -8.180  39.774  1.00  0.00     0.001 A 
ENDBRANCH   8  28
TORSDOF 6
ENDMDL
MODEL 8
REMARK VINA RESULT:      -8.4      2.455      6.610
REMARK  6 active torsions:
REMARK  status: ('A' for Active; 'I' for Inactive)
REMARK    1  A    between atoms: C14_21  and  O3_3 
REMARK    2  A    between atoms: C20_27  and  O3_3 
REMARK    3  A    between atoms: C29_36  and  O6_6 
REMARK    4  A    between atoms: C12_19  and  C6_13 
REMARK    5  A    between atoms: C10_17  and  C14_21 
REMARK    6  A    between atoms: C20_27  and  C24_31 
ROOT
HETATM    1  O1  UNK     1      28.929  -9.737  35.502  1.00  0.00    -0.293 OA
HETATM    2  N1  UNK     1      30.043  -6.095  38.318  1.00  0.00    -0.362 N 
HETATM    3  C1  UNK     1      27.126  -8.483  38.389  1.00  0.00    -0.036 C 
HETATM    4  C2  UNK     1      27.813  -7.108  38.509  1.00  0.00     0.067 C 
HETATM    5  C3  UNK     1      27.181  -8.949  36.927  1.00  0.00     0.092 C 
HETATM    6  C4  UNK     1      29.157  -7.037  37.828  1.00  0.00     0.021 C 
HETATM    7  C5  UNK     1      29.525  -7.858  36.822  1.00  0.00     0.024 C 
HETATM    8  C6  UNK     1      30.900  -7.737  36.165  1.00  0.00     0.104 C 
HETATM    9  C7  UNK     1      28.585  -8.923  36.359  1.00  0.00     0.159 C 
HETATM   10  C8  UNK     1      27.809  -9.517  39.310  1.00  0.00     0.015 C 
HETATM   11  C9  UNK     1      25.656  -8.354  38.825  1.00  0.00     0.015 C 
HETATM   12  C10 UNK     1      31.831  -6.796  36.936  1.00  0.00     0.052 C 
HETATM   13  C11 UNK     1      31.371  -6.006  37.933  1.00  0.00     0.018 C 
HETATM   14  C13 UNK     1      32.193  -5.009  38.705  1.00  0.00     0.069 C 
HETATM   15  H12 UNK     1      29.730  -5.496  39.073  1.00  0.00     0.165 HD
ENDROOT
BRANCH  12  16
HETATM   16  C14 UNK     1      33.258  -6.838  36.577  1.00  0.00     0.292 C 
HETATM   17  O4  UNK     1      34.041  -7.647  37.040  1.00  0.00    -0.259 OA
BRANCH  16  18
HETATM   18  O3  UNK     1      33.502  -5.852  35.679  1.00  0.00    -0.313 OA
BRANCH  18  19
HETATM   19  C20 UNK     1      34.886  -5.548  35.475  1.00  0.00     0.217 C 
BRANCH  19  20
HETATM   20  C24 UNK     1      35.443  -6.478  34.437  1.00  0.00    -0.034 A 
HETATM   21  C25 UNK     1      34.779  -6.636  33.226  1.00  0.00     0.012 A 
HETATM   22  C27 UNK     1      35.297  -7.501  32.262  1.00  0.00     0.037 A 
HETATM   23  C29 UNK     1      36.475  -8.203  32.517  1.00  0.00     0.068 A 
HETATM   24  C28 UNK     1      37.135  -8.040  33.734  1.00  0.00     0.037 A 
HETATM   25  C26 UNK     1      36.618  -7.175  34.698  1.00  0.00     0.012 A 
BRANCH  23  26
HETATM   26  O6  UNK     1      36.980  -9.048  31.575  1.00  0.00    -0.356 OA
HETATM   27  C30 UNK     1      37.725 -10.171  32.043  1.00  0.00     0.210 C 
ENDBRANCH  23  26
ENDBRANCH  19  20
ENDBRANCH  18  19
ENDBRANCH  16  18
ENDBRANCH  12  16
BRANCH   8  28
HETATM   28  C12 UNK     1      30.764  -7.276  34.735  1.00  0.00     0.029 A 
HETATM   29  C15 UNK     1      31.431  -8.067  33.670  1.00  0.00     0.194 A 
HETATM   30  O5  UNK     1      32.081  -9.074  33.917  1.00  0.00    -0.287 OA
HETATM   31  C17 UNK     1      31.269  -7.573  32.290  1.00  0.00     0.048 A 
HETATM   32  C18 UNK     1      30.516  -6.420  32.067  1.00  0.00     0.089 A 
HETATM   33  C19 UNK     1      31.858  -8.247  31.217  1.00  0.00     0.018 A 
HETATM   34  O2  UNK     1      29.915  -5.719  33.082  1.00  0.00    -0.321 OA
HETATM   35  C21 UNK     1      30.349  -5.934  30.769  1.00  0.00     0.038 A 
HETATM   36  C16 UNK     1      30.076  -6.190  34.362  1.00  0.00     0.154 A 
HETATM   37  C23 UNK     1      30.937  -6.605  29.697  1.00  0.00     0.003 A 
HETATM   38  C22 UNK     1      31.690  -7.759  29.921  1.00  0.00     0.001 A 
ENDBRANCH   8  28
TORSDOF 6
ENDMDL
MODEL 9
REMARK VINA RESULT:      -8.3      2.362      6.906
REMARK  6 active torsions:
REMARK  status: ('A' for Active; 'I' for Inactive)
REMARK    1  A    between atoms: C14_21  and  O3_3 
REMARK    2  A    between atoms: C20_27  and  O3_3 
REMARK    3  A    between atoms: C29_36  and  O6_6 
REMARK    4  A    between atoms: C12_19  and  C6_13 
REMARK    5  A    between atoms: C10_17  and  C14_21 
REMARK    6  A    between atoms: C20_27  and  C24_31 
ROOT
HETATM    1  O1  UNK     1      31.805  -5.685  36.973  1.00  0.00    -0.293 OA
HETATM    2  N1  UNK     1      27.894  -6.896  34.592  1.00  0.00    -0.362 N 
HETATM    3  C1  UNK     1      28.572  -6.659  38.294  1.00  0.00    -0.036 C 
HETATM    4  C2  UNK     1      27.981  -7.289  37.016  1.00  0.00     0.067 C 
HETATM    5  C3  UNK     1      30.102  -6.768  38.250  1.00  0.00     0.092 C 
HETATM    6  C4  UNK     1      28.654  -6.832  35.746  1.00  0.00     0.021 C 
HETATM    7  C5  UNK     1      29.911  -6.343  35.705  1.00  0.00     0.024 C 
HETATM    8  C6  UNK     1      30.545  -5.899  34.387  1.00  0.00     0.104 C 
HETATM    9  C7  UNK     1      30.690  -6.205  36.973  1.00  0.00     0.159 C 
HETATM   10  C8  UNK     1      28.139  -5.183  38.426  1.00  0.00     0.015 C 
HETATM   11  C9  UNK     1      28.044  -7.421  39.523  1.00  0.00     0.015 C 
HETATM   12  C10 UNK     1      29.527  -5.842  33.243  1.00  0.00     0.052 C 
HETATM   13  C11 UNK     1      28.285  -6.362  33.376  1.00  0.00     0.018 C 
HETATM   14  C13 UNK     1      27.240  -6.408  32.294  1.00  0.00     0.069 C 
HETATM   15  H12 UNK     1      26.955  -7.270  34.663  1.00  0.00     0.165 HD
ENDROOT
BRANCH  12  16
HETATM   16  C14 UNK     1      29.948  -5.145  32.017  1.00  0.00     0.292 C 
HETATM   17  O4  UNK     1      30.249  -3.965  31.988  1.00  0.00    -0.259 OA
BRANCH  16  18
HETATM   18  O3  UNK     1      29.934  -6.033  30.994  1.00  0.00    -0.313 OA
BRANCH  18  19
HETATM   19  C20 UNK     1      31.045  -5.941  30.096  1.00  0.00     0.217 C 
BRANCH  19  20
HETATM   20  C24 UNK     1      31.719  -7.279  30.011  1.00  0.00    -0.034 A 
HETATM   21  C25 UNK     1      30.973  -8.438  30.197  1.00  0.00     0.012 A 
HETATM   22  C27 UNK     1      31.600  -9.682  30.119  1.00  0.00     0.037 A 
HETATM   23  C29 UNK     1      32.968  -9.758  29.857  1.00  0.00     0.068 A 
HETATM   24  C28 UNK     1      33.709  -8.591  29.673  1.00  0.00     0.037 A 
HETATM   25  C26 UNK     1      33.082  -7.347  29.751  1.00  0.00     0.012 A 
BRANCH  23  26
HETATM   26  O6  UNK     1      33.579 -10.972  29.782  1.00  0.00    -0.356 OA
HETATM   27  C30 UNK     1      32.813 -12.110  30.176  1.00  0.00     0.210 C 
ENDBRANCH  23  26
ENDBRANCH  19  20
ENDBRANCH  18  19
ENDBRANCH  16  18
ENDBRANCH  12  16
BRANCH   8  28
HETATM   28  C12 UNK     1      31.691  -6.809  34.018  1.00  0.00     0.029 A 
HETATM   29  C15 UNK     1      33.040  -6.213  33.845  1.00  0.00     0.194 A 
HETATM   30  O5  UNK     1      33.248  -5.017  33.994  1.00  0.00    -0.287 OA
HETATM   31  C17 UNK     1      34.124  -7.145  33.482  1.00  0.00     0.048 A 
HETATM   32  C18 UNK     1      33.830  -8.500  33.326  1.00  0.00     0.089 A 
HETATM   33  C19 UNK     1      35.429  -6.683  33.298  1.00  0.00     0.018 A 
HETATM   34  O2  UNK     1      32.567  -9.008  33.496  1.00  0.00    -0.321 OA
HETATM   35  C21 UNK     1      34.840  -9.400  32.984  1.00  0.00     0.038 A 
HETATM   36  C16 UNK     1      31.567  -8.128  33.833  1.00  0.00     0.154 A 
HETATM   37  C23 UNK     1      36.144  -8.940  32.798  1.00  0.00     0.003 A 
HETATM   38  C22 UNK     1      36.437  -7.585  32.955  1.00  0.00     0.001 A 
ENDBRANCH   8  28
TORSDOF 6
ENDMDL
MODEL 10
REMARK VINA RESULT:      -8.3      2.627      6.961
REMARK  6 active torsions:
REMARK  status: ('A' for Active; 'I' for Inactive)
REMARK    1  A    between atoms: C14_21  and  O3_3 
REMARK    2  A    between atoms: C20_27  and  O3_3 
REMARK    3  A    between atoms: C29_36  and  O6_6 
REMARK    4  A    between atoms: C12_19  and  C6_13 
REMARK    5  A    between atoms: C10_17  and  C14_21 
REMARK    6  A    between atoms: C20_27  and  C24_31 
ROOT
HETATM    1  O1  UNK     1      27.413 -10.269  35.853  1.00  0.00    -0.293 OA
HETATM    2  N1  UNK     1      28.700  -5.936  37.269  1.00  0.00    -0.362 N 
HETATM    3  C1  UNK     1      25.936  -8.213  38.451  1.00  0.00    -0.036 C 
HETATM    4  C2  UNK     1      26.565  -6.860  38.059  1.00  0.00     0.067 C 
HETATM    5  C3  UNK     1      25.826  -9.100  37.203  1.00  0.00     0.092 C 
HETATM    6  C4  UNK     1      27.805  -6.989  37.210  1.00  0.00     0.021 C 
HETATM    7  C5  UNK     1      28.081  -8.073  36.455  1.00  0.00     0.024 C 
HETATM    8  C6  UNK     1      29.352  -8.147  35.610  1.00  0.00     0.104 C 
HETATM    9  C7  UNK     1      27.142  -9.236  36.466  1.00  0.00     0.159 C 
HETATM   10  C8  UNK     1      26.781  -8.914  39.536  1.00  0.00     0.015 C 
HETATM   11  C9  UNK     1      24.530  -7.968  39.026  1.00  0.00     0.015 C 
HETATM   12  C10 UNK     1      30.328  -7.010  35.929  1.00  0.00     0.052 C 
HETATM   13  C11 UNK     1      29.961  -5.958  36.697  1.00  0.00     0.018 C 
HETATM   14  C13 UNK     1      30.826  -4.768  37.015  1.00  0.00     0.069 C 
HETATM   15  H12 UNK     1      28.458  -5.139  37.846  1.00  0.00     0.165 HD
ENDROOT
BRANCH  12  16
HETATM   16  C14 UNK     1      31.698  -7.147  35.407  1.00  0.00     0.292 C 
HETATM   17  O4  UNK     1      32.601  -7.676  36.029  1.00  0.00    -0.259 OA
BRANCH  16  18
HETATM   18  O3  UNK     1      31.739  -6.600  34.168  1.00  0.00    -0.313 OA
BRANCH  18  19
HETATM   19  C20 UNK     1      33.023  -6.632  33.534  1.00  0.00     0.217 C 
BRANCH  19  20
HETATM   20  C24 UNK     1      33.018  -7.693  32.473  1.00  0.00    -0.034 A 
HETATM   21  C25 UNK     1      32.610  -7.374  31.182  1.00  0.00     0.012 A 
HETATM   22  C27 UNK     1      32.606  -8.361  30.196  1.00  0.00     0.037 A 
HETATM   23  C29 UNK     1      33.009  -9.659  30.507  1.00  0.00     0.068 A 
HETATM   24  C28 UNK     1      33.416  -9.971  31.804  1.00  0.00     0.037 A 
HETATM   25  C26 UNK     1      33.421  -8.985  32.790  1.00  0.00     0.012 A 
BRANCH  23  26
HETATM   26  O6  UNK     1      33.004 -10.621  29.544  1.00  0.00    -0.356 OA
HETATM   27  C30 UNK     1      32.983 -11.979  29.982  1.00  0.00     0.210 C 
ENDBRANCH  23  26
ENDBRANCH  19  20
ENDBRANCH  18  19
ENDBRANCH  16  18
ENDBRANCH  12  16
BRANCH   8  28
HETATM   28  C12 UNK     1      29.011  -8.143  34.141  1.00  0.00     0.029 A 
HETATM   29  C15 UNK     1      29.545  -9.234  33.287  1.00  0.00     0.194 A 
HETATM   30  O5  UNK     1      30.245 -10.131  33.738  1.00  0.00    -0.287 OA
HETATM   31  C17 UNK     1      29.184  -9.182  31.858  1.00  0.00     0.048 A 
HETATM   32  C18 UNK     1      28.382  -8.137  31.399  1.00  0.00     0.089 A 
HETATM   33  C19 UNK     1      29.636 -10.164  30.972  1.00  0.00     0.018 A 
HETATM   34  O2  UNK     1      27.910  -7.148  32.224  1.00  0.00    -0.321 OA
HETATM   35  C21 UNK     1      28.028  -8.068  30.050  1.00  0.00     0.038 A 
HETATM   36  C16 UNK     1      28.255  -7.209  33.552  1.00  0.00     0.154 A 
HETATM   37  C23 UNK     1      28.479  -9.046  29.164  1.00  0.00     0.003 A 
HETATM   38  C22 UNK     1      29.281 -10.091  29.625  1.00  0.00     0.001 A 
ENDBRANCH   8  28
TORSDOF 6
ENDMDL
