MODEL 1
REMARK VINA RESULT:      -7.5      0.000      0.000
REMARK  7 active torsions:
REMARK  status: ('A' for Active; 'I' for Inactive)
REMARK    1  A    between atoms: C2_7  and  O1_1 
REMARK    2  A    between atoms: C5_10  and  O2_2 
REMARK    3  A    between atoms: C3_8  and  O3_3 
REMARK    4  A    between atoms: C13_18  and  O5_5 
REMARK    5  A    between atoms: C1_6  and  C6_11 
REMARK    6  A    between atoms: C6_11  and  C9_14 
REMARK    7  A    between atoms: C10_15  and  C8_13 
ROOT
HETATM    1  C1  UNK     1      18.686   5.162  31.396  1.00  0.00     0.081 A 
HETATM    2  C2  UNK     1      18.306   4.133  32.258  1.00  0.00     0.087 A 
HETATM    3  C3  UNK     1      18.961   4.883  30.056  1.00  0.00     0.085 A 
HETATM    4  C4  UNK     1      18.202   2.826  31.782  1.00  0.00     0.074 A 
HETATM    5  C5  UNK     1      18.477   2.547  30.443  1.00  0.00     0.073 A 
HETATM    6  C7  UNK     1      18.857   3.575  29.580  1.00  0.00     0.074 A 
ENDROOT
BRANCH   1   7
HETATM    7  C6  UNK     1      18.795   6.550  31.902  1.00  0.00     0.187 C 
HETATM    8  O4  UNK     1      18.015   7.407  31.500  1.00  0.00    -0.287 OA
BRANCH   7   9
HETATM    9  C9  UNK     1      19.888   6.850  32.868  1.00  0.00     0.056 C 
HETATM   10  C10 UNK     1      19.661   7.659  33.927  1.00  0.00     0.015 C 
BRANCH  10  11
HETATM   11  C8  UNK     1      18.392   8.300  34.236  1.00  0.00    -0.036 A 
HETATM   12  C11 UNK     1      17.399   7.591  34.912  1.00  0.00     0.014 A 
HETATM   13  C14 UNK     1      16.183   8.206  35.209  1.00  0.00     0.037 A 
HETATM   14  C13 UNK     1      15.960   9.531  34.830  1.00  0.00     0.068 A 
HETATM   15  C15 UNK     1      16.955  10.239  34.155  1.00  0.00     0.037 A 
HETATM   16  C12 UNK     1      18.170   9.624  33.857  1.00  0.00     0.014 A 
BRANCH  14  17
HETATM   17  O5  UNK     1      14.774  10.131  35.122  1.00  0.00    -0.356 OA
HETATM   18  C18 UNK     1      13.953  10.515  34.020  1.00  0.00     0.210 C 
ENDBRANCH  14  17
ENDBRANCH  10  11
ENDBRANCH   7   9
ENDBRANCH   1   7
BRANCH   2  19
HETATM   19  O1  UNK     1      18.033   4.382  33.569  1.00  0.00    -0.355 OA
HETATM   20  C16 UNK     1      18.378   3.364  34.508  1.00  0.00     0.210 C 
ENDBRANCH   2  19
BRANCH   3  21
HETATM   21  O3  UNK     1      19.331   5.873  29.196  1.00  0.00    -0.360 OA
HETATM   22  H9  UNK     1      19.271   5.567  28.277  1.00  0.00     0.217 HD
ENDBRANCH   3  21
BRANCH   5  23
HETATM   23  O2  UNK     1      18.375   1.273  29.978  1.00  0.00    -0.356 OA
HETATM   24  C17 UNK     1      18.155   1.108  28.577  1.00  0.00     0.210 C 
ENDBRANCH   5  23
TORSDOF 7
ENDMDL
MODEL 2
REMARK VINA RESULT:      -7.1      2.640      4.454
REMARK  7 active torsions:
REMARK  status: ('A' for Active; 'I' for Inactive)
REMARK    1  A    between atoms: C2_7  and  O1_1 
REMARK    2  A    between atoms: C5_10  and  O2_2 
REMARK    3  A    between atoms: C3_8  and  O3_3 
REMARK    4  A    between atoms: C13_18  and  O5_5 
REMARK    5  A    between atoms: C1_6  and  C6_11 
REMARK    6  A    between atoms: C6_11  and  C9_14 
REMARK    7  A    between atoms: C10_15  and  C8_13 
ROOT
HETATM    1  C1  UNK     1      18.633   1.513  31.445  1.00  0.00     0.081 A 
HETATM    2  C2  UNK     1      19.356   0.571  30.713  1.00  0.00     0.087 A 
HETATM    3  C3  UNK     1      18.310   1.262  32.779  1.00  0.00     0.085 A 
HETATM    4  C4  UNK     1      19.756  -0.622  31.315  1.00  0.00     0.074 A 
HETATM    5  C5  UNK     1      19.433  -0.874  32.649  1.00  0.00     0.073 A 
HETATM    6  C7  UNK     1      18.710   0.068  33.381  1.00  0.00     0.074 A 
ENDROOT
BRANCH   1   7
HETATM    7  C6  UNK     1      18.209   2.781  30.805  1.00  0.00     0.187 C 
HETATM    8  O4  UNK     1      17.015   3.047  30.715  1.00  0.00    -0.287 OA
BRANCH   7   9
HETATM    9  C9  UNK     1      19.272   3.672  30.263  1.00  0.00     0.056 C 
HETATM   10  C10 UNK     1      19.360   4.958  30.673  1.00  0.00     0.015 C 
BRANCH  10  11
HETATM   11  C8  UNK     1      18.476   5.593  31.637  1.00  0.00    -0.036 A 
HETATM   12  C11 UNK     1      18.589   5.286  32.994  1.00  0.00     0.014 A 
HETATM   13  C14 UNK     1      17.742   5.897  33.918  1.00  0.00     0.037 A 
HETATM   14  C13 UNK     1      16.783   6.814  33.488  1.00  0.00     0.068 A 
HETATM   15  C15 UNK     1      16.672   7.120  32.131  1.00  0.00     0.037 A 
HETATM   16  C12 UNK     1      17.518   6.510  31.206  1.00  0.00     0.014 A 
BRANCH  14  17
HETATM   17  O5  UNK     1      15.958   7.411  34.391  1.00  0.00    -0.356 OA
HETATM   18  C18 UNK     1      14.598   7.600  34.002  1.00  0.00     0.210 C 
ENDBRANCH  14  17
ENDBRANCH  10  11
ENDBRANCH   7   9
ENDBRANCH   1   7
BRANCH   2  19
HETATM   19  O1  UNK     1      19.681   0.795  29.409  1.00  0.00    -0.355 OA
HETATM   20  C16 UNK     1      19.772  -0.346  28.559  1.00  0.00     0.210 C 
ENDBRANCH   2  19
BRANCH   3  21
HETATM   21  O3  UNK     1      17.606   2.169  33.512  1.00  0.00    -0.360 OA
HETATM   22  H9  UNK     1      16.780   2.406  33.060  1.00  0.00     0.217 HD
ENDBRANCH   3  21
BRANCH   5  23
HETATM   23  O2  UNK     1      19.825  -2.037  33.236  1.00  0.00    -0.356 OA
HETATM   24  C17 UNK     1      20.982  -2.678  32.700  1.00  0.00     0.210 C 
ENDBRANCH   5  23
TORSDOF 7
ENDMDL
MODEL 3
REMARK VINA RESULT:      -7.0     22.350     24.889
REMARK  7 active torsions:
REMARK  status: ('A' for Active; 'I' for Inactive)
REMARK    1  A    between atoms: C2_7  and  O1_1 
REMARK    2  A    between atoms: C5_10  and  O2_2 
REMARK    3  A    between atoms: C3_8  and  O3_3 
REMARK    4  A    between atoms: C13_18  and  O5_5 
REMARK    5  A    between atoms: C1_6  and  C6_11 
REMARK    6  A    between atoms: C6_11  and  C9_14 
REMARK    7  A    between atoms: C10_15  and  C8_13 
ROOT
HETATM    1  C1  UNK     1      14.785   8.349   9.621  1.00  0.00     0.081 A 
HETATM    2  C2  UNK     1      16.100   8.563  10.035  1.00  0.00     0.087 A 
HETATM    3  C3  UNK     1      14.178   9.241   8.737  1.00  0.00     0.085 A 
HETATM    4  C4  UNK     1      16.807   9.670   9.566  1.00  0.00     0.074 A 
HETATM    5  C5  UNK     1      16.200  10.563   8.682  1.00  0.00     0.073 A 
HETATM    6  C7  UNK     1      14.886  10.348   8.268  1.00  0.00     0.074 A 
ENDROOT
BRANCH   1   7
HETATM    7  C6  UNK     1      14.035   7.172  10.119  1.00  0.00     0.187 C 
HETATM    8  O4  UNK     1      13.081   7.333  10.874  1.00  0.00    -0.287 OA
BRANCH   7   9
HETATM    9  C9  UNK     1      14.504   5.822   9.698  1.00  0.00     0.056 C 
HETATM   10  C10 UNK     1      13.773   5.086   8.831  1.00  0.00     0.015 C 
BRANCH  10  11
HETATM   11  C8  UNK     1      12.510   5.496   8.238  1.00  0.00    -0.036 A 
HETATM   12  C11 UNK     1      12.491   6.073   6.968  1.00  0.00     0.014 A 
HETATM   13  C14 UNK     1      11.280   6.465   6.399  1.00  0.00     0.037 A 
HETATM   14  C13 UNK     1      10.087   6.281   7.100  1.00  0.00     0.068 A 
HETATM   15  C15 UNK     1      10.108   5.704   8.370  1.00  0.00     0.037 A 
HETATM   16  C12 UNK     1      11.318   5.312   8.939  1.00  0.00     0.014 A 
BRANCH  14  17
HETATM   17  O5  UNK     1       8.905   6.663   6.544  1.00  0.00    -0.356 OA
HETATM   18  C18 UNK     1       7.859   7.039   7.437  1.00  0.00     0.210 C 
ENDBRANCH  14  17
ENDBRANCH  10  11
ENDBRANCH   7   9
ENDBRANCH   1   7
BRANCH   2  19
HETATM   19  O1  UNK     1      16.712   7.705  10.898  1.00  0.00    -0.355 OA
HETATM   20  C16 UNK     1      17.873   7.026  10.423  1.00  0.00     0.210 C 
ENDBRANCH   2  19
BRANCH   3  21
HETATM   21  O3  UNK     1      12.895   9.049   8.319  1.00  0.00    -0.360 OA
HETATM   22  H9  UNK     1      12.879   8.754   7.393  1.00  0.00     0.217 HD
ENDBRANCH   3  21
BRANCH   5  23
HETATM   23  O2  UNK     1      16.890  11.642   8.223  1.00  0.00    -0.356 OA
HETATM   24  C17 UNK     1      18.315  11.573   8.280  1.00  0.00     0.210 C 
ENDBRANCH   5  23
TORSDOF 7
ENDMDL
MODEL 4
REMARK VINA RESULT:      -7.0      1.772      7.654
REMARK  7 active torsions:
REMARK  status: ('A' for Active; 'I' for Inactive)
REMARK    1  A    between atoms: C2_7  and  O1_1 
REMARK    2  A    between atoms: C5_10  and  O2_2 
REMARK    3  A    between atoms: C3_8  and  O3_3 
REMARK    4  A    between atoms: C13_18  and  O5_5 
REMARK    5  A    between atoms: C1_6  and  C6_11 
REMARK    6  A    between atoms: C6_11  and  C9_14 
REMARK    7  A    between atoms: C10_15  and  C8_13 
ROOT
HETATM    1  C1  UNK     1      16.823   9.788  34.073  1.00  0.00     0.081 A 
HETATM    2  C2  UNK     1      17.043  11.164  34.147  1.00  0.00     0.087 A 
HETATM    3  C3  UNK     1      15.700   9.227  34.682  1.00  0.00     0.085 A 
HETATM    4  C4  UNK     1      16.139  11.979  34.830  1.00  0.00     0.074 A 
HETATM    5  C5  UNK     1      15.016  11.418  35.438  1.00  0.00     0.073 A 
HETATM    6  C7  UNK     1      14.796  10.042  35.364  1.00  0.00     0.074 A 
ENDROOT
BRANCH   1   7
HETATM    7  C6  UNK     1      17.783   8.923  33.347  1.00  0.00     0.187 C 
HETATM    8  O4  UNK     1      17.439   8.373  32.306  1.00  0.00    -0.287 OA
BRANCH   7   9
HETATM    9  C9  UNK     1      19.134   8.735  33.945  1.00  0.00     0.056 C 
HETATM   10  C10 UNK     1      19.773   7.549  33.829  1.00  0.00     0.015 C 
BRANCH  10  11
HETATM   11  C8  UNK     1      19.249   6.377  33.146  1.00  0.00    -0.036 A 
HETATM   12  C11 UNK     1      18.446   5.469  33.835  1.00  0.00     0.014 A 
HETATM   13  C14 UNK     1      17.942   4.346  33.179  1.00  0.00     0.037 A 
HETATM   14  C13 UNK     1      18.242   4.131  31.833  1.00  0.00     0.068 A 
HETATM   15  C15 UNK     1      19.045   5.040  31.145  1.00  0.00     0.037 A 
HETATM   16  C12 UNK     1      19.549   6.163  31.800  1.00  0.00     0.014 A 
BRANCH  14  17
HETATM   17  O5  UNK     1      17.749   3.036  31.193  1.00  0.00    -0.356 OA
HETATM   18  C18 UNK     1      18.608   2.391  30.254  1.00  0.00     0.210 C 
ENDBRANCH  14  17
ENDBRANCH  10  11
ENDBRANCH   7   9
ENDBRANCH   1   7
BRANCH   2  19
HETATM   19  O1  UNK     1      18.133  11.732  33.562  1.00  0.00    -0.355 OA
HETATM   20  C16 UNK     1      18.261  13.149  33.668  1.00  0.00     0.210 C 
ENDBRANCH   2  19
BRANCH   3  21
HETATM   21  O3  UNK     1      15.465   7.886  34.620  1.00  0.00    -0.360 OA
HETATM   22  H9  UNK     1      15.712   7.458  35.456  1.00  0.00     0.217 HD
ENDBRANCH   3  21
BRANCH   5  23
HETATM   23  O2  UNK     1      14.133  12.213  36.103  1.00  0.00    -0.356 OA
HETATM   24  C17 UNK     1      12.786  12.223  35.632  1.00  0.00     0.210 C 
ENDBRANCH   5  23
TORSDOF 7
ENDMDL
MODEL 5
REMARK VINA RESULT:      -7.0      4.200      8.447
REMARK  7 active torsions:
REMARK  status: ('A' for Active; 'I' for Inactive)
REMARK    1  A    between atoms: C2_7  and  O1_1 
REMARK    2  A    between atoms: C5_10  and  O2_2 
REMARK    3  A    between atoms: C3_8  and  O3_3 
REMARK    4  A    between atoms: C13_18  and  O5_5 
REMARK    5  A    between atoms: C1_6  and  C6_11 
REMARK    6  A    between atoms: C6_11  and  C9_14 
REMARK    7  A    between atoms: C10_15  and  C8_13 
ROOT
HETATM    1  C1  UNK     1      18.331   2.458  33.263  1.00  0.00     0.081 A 
HETATM    2  C2  UNK     1      18.557   1.835  32.036  1.00  0.00     0.087 A 
HETATM    3  C3  UNK     1      18.295   3.851  33.342  1.00  0.00     0.085 A 
HETATM    4  C4  UNK     1      18.747   2.604  30.888  1.00  0.00     0.074 A 
HETATM    5  C5  UNK     1      18.711   3.996  30.966  1.00  0.00     0.073 A 
HETATM    6  C7  UNK     1      18.485   4.620  32.193  1.00  0.00     0.074 A 
ENDROOT
BRANCH   1   7
HETATM    7  C6  UNK     1      18.128   1.641  34.483  1.00  0.00     0.187 C 
HETATM    8  O4  UNK     1      19.039   1.526  35.296  1.00  0.00    -0.287 OA
BRANCH   7   9
HETATM    9  C9  UNK     1      16.814   0.959  34.648  1.00  0.00     0.056 C 
HETATM   10  C10 UNK     1      16.757  -0.308  35.118  1.00  0.00     0.015 C 
BRANCH  10  11
HETATM   11  C8  UNK     1      17.905  -1.115  35.497  1.00  0.00    -0.036 A 
HETATM   12  C11 UNK     1      18.827  -1.515  34.529  1.00  0.00     0.014 A 
HETATM   13  C14 UNK     1      19.929  -2.288  34.894  1.00  0.00     0.037 A 
HETATM   14  C13 UNK     1      20.110  -2.661  36.226  1.00  0.00     0.068 A 
HETATM   15  C15 UNK     1      19.188  -2.260  37.194  1.00  0.00     0.037 A 
HETATM   16  C12 UNK     1      18.086  -1.487  36.830  1.00  0.00     0.014 A 
BRANCH  14  17
HETATM   17  O5  UNK     1      21.187  -3.414  36.582  1.00  0.00    -0.356 OA
HETATM   18  C18 UNK     1      20.947  -4.521  37.449  1.00  0.00     0.210 C 
ENDBRANCH  14  17
ENDBRANCH  10  11
ENDBRANCH   7   9
ENDBRANCH   1   7
BRANCH   2  19
HETATM   19  O1  UNK     1      18.597   0.477  31.936  1.00  0.00    -0.355 OA
HETATM   20  C16 UNK     1      19.588  -0.081  31.074  1.00  0.00     0.210 C 
ENDBRANCH   2  19
BRANCH   3  21
HETATM   21  O3  UNK     1      18.074   4.480  34.531  1.00  0.00    -0.360 OA
HETATM   22  H9  UNK     1      17.232   4.188  34.919  1.00  0.00     0.217 HD
ENDBRANCH   3  21
BRANCH   5  23
HETATM   23  O2  UNK     1      18.895   4.746  29.846  1.00  0.00    -0.356 OA
HETATM   24  C17 UNK     1      19.686   5.927  29.978  1.00  0.00     0.210 C 
ENDBRANCH   5  23
TORSDOF 7
ENDMDL
MODEL 6
REMARK VINA RESULT:      -7.0     23.336     25.437
REMARK  7 active torsions:
REMARK  status: ('A' for Active; 'I' for Inactive)
REMARK    1  A    between atoms: C2_7  and  O1_1 
REMARK    2  A    between atoms: C5_10  and  O2_2 
REMARK    3  A    between atoms: C3_8  and  O3_3 
REMARK    4  A    between atoms: C13_18  and  O5_5 
REMARK    5  A    between atoms: C1_6  and  C6_11 
REMARK    6  A    between atoms: C6_11  and  C9_14 
REMARK    7  A    between atoms: C10_15  and  C8_13 
ROOT
HETATM    1  C1  UNK     1       7.638   5.664   9.708  1.00  0.00     0.081 A 
HETATM    2  C2  UNK     1       6.430   6.271  10.054  1.00  0.00     0.087 A 
HETATM    3  C3  UNK     1       7.888   4.344  10.085  1.00  0.00     0.085 A 
HETATM    4  C4  UNK     1       5.473   5.558  10.777  1.00  0.00     0.074 A 
HETATM    5  C5  UNK     1       5.723   4.238  11.153  1.00  0.00     0.073 A 
HETATM    6  C7  UNK     1       6.931   3.631  10.807  1.00  0.00     0.074 A 
ENDROOT
BRANCH   1   7
HETATM    7  C6  UNK     1       8.653   6.421   8.939  1.00  0.00     0.187 C 
HETATM    8  O4  UNK     1       9.446   7.149   9.530  1.00  0.00    -0.287 OA
BRANCH   7   9
HETATM    9  C9  UNK     1       8.642   6.285   7.456  1.00  0.00     0.056 C 
HETATM   10  C10 UNK     1       9.804   6.187   6.770  1.00  0.00     0.015 C 
BRANCH  10  11
HETATM   11  C8  UNK     1      11.131   6.201   7.363  1.00  0.00    -0.036 A 
HETATM   12  C11 UNK     1      11.861   7.389   7.411  1.00  0.00     0.014 A 
HETATM   13  C14 UNK     1      13.134   7.403   7.981  1.00  0.00     0.037 A 
HETATM   14  C13 UNK     1      13.678   6.229   8.503  1.00  0.00     0.068 A 
HETATM   15  C15 UNK     1      12.947   5.041   8.456  1.00  0.00     0.037 A 
HETATM   16  C12 UNK     1      11.674   5.027   7.886  1.00  0.00     0.014 A 
BRANCH  14  17
HETATM   17  O5  UNK     1      14.919   6.243   9.060  1.00  0.00    -0.356 OA
HETATM   18  C18 UNK     1      15.309   5.092   9.808  1.00  0.00     0.210 C 
ENDBRANCH  14  17
ENDBRANCH  10  11
ENDBRANCH   7   9
ENDBRANCH   1   7
BRANCH   2  19
HETATM   19  O1  UNK     1       6.165   7.559   9.698  1.00  0.00    -0.355 OA
HETATM   20  C16 UNK     1       5.516   8.379  10.668  1.00  0.00     0.210 C 
ENDBRANCH   2  19
BRANCH   3  21
HETATM   21  O3  UNK     1       9.060   3.731   9.755  1.00  0.00    -0.360 OA
HETATM   22  H9  UNK     1       9.805   4.151  10.215  1.00  0.00     0.217 HD
ENDBRANCH   3  21
BRANCH   5  23
HETATM   23  O2  UNK     1       4.790   3.543  11.857  1.00  0.00    -0.356 OA
HETATM   24  C17 UNK     1       5.242   2.401  12.585  1.00  0.00     0.210 C 
ENDBRANCH   5  23
TORSDOF 7
ENDMDL
MODEL 7
REMARK VINA RESULT:      -6.9     21.852     24.151
REMARK  7 active torsions:
REMARK  status: ('A' for Active; 'I' for Inactive)
REMARK    1  A    between atoms: C2_7  and  O1_1 
REMARK    2  A    between atoms: C5_10  and  O2_2 
REMARK    3  A    between atoms: C3_8  and  O3_3 
REMARK    4  A    between atoms: C13_18  and  O5_5 
REMARK    5  A    between atoms: C1_6  and  C6_11 
REMARK    6  A    between atoms: C6_11  and  C9_14 
REMARK    7  A    between atoms: C10_15  and  C8_13 
ROOT
HETATM    1  C1  UNK     1      13.242   7.542   9.748  1.00  0.00     0.081 A 
HETATM    2  C2  UNK     1      13.421   6.184   9.486  1.00  0.00     0.087 A 
HETATM    3  C3  UNK     1      12.544   8.342   8.843  1.00  0.00     0.085 A 
HETATM    4  C4  UNK     1      12.901   5.625   8.318  1.00  0.00     0.074 A 
HETATM    5  C5  UNK     1      12.202   6.424   7.413  1.00  0.00     0.073 A 
HETATM    6  C7  UNK     1      12.024   7.783   7.675  1.00  0.00     0.074 A 
ENDROOT
BRANCH   1   7
HETATM    7  C6  UNK     1      13.794   8.135  10.989  1.00  0.00     0.187 C 
HETATM    8  O4  UNK     1      13.051   8.735  11.759  1.00  0.00    -0.287 OA
BRANCH   7   9
HETATM    9  C9  UNK     1      15.258   7.998  11.230  1.00  0.00     0.056 C 
HETATM   10  C10 UNK     1      16.113   8.955  10.804  1.00  0.00     0.015 C 
BRANCH  10  11
HETATM   11  C8  UNK     1      15.730  10.167  10.097  1.00  0.00    -0.036 A 
HETATM   12  C11 UNK     1      15.312  11.289  10.812  1.00  0.00     0.014 A 
HETATM   13  C14 UNK     1      14.946  12.451  10.134  1.00  0.00     0.037 A 
HETATM   14  C13 UNK     1      14.999  12.492   8.740  1.00  0.00     0.068 A 
HETATM   15  C15 UNK     1      15.418  11.369   8.026  1.00  0.00     0.037 A 
HETATM   16  C12 UNK     1      15.783  10.207   8.703  1.00  0.00     0.014 A 
BRANCH  14  17
HETATM   17  O5  UNK     1      14.644  13.627   8.078  1.00  0.00    -0.356 OA
HETATM   18  C18 UNK     1      15.212  13.830   6.786  1.00  0.00     0.210 C 
ENDBRANCH  14  17
ENDBRANCH  10  11
ENDBRANCH   7   9
ENDBRANCH   1   7
BRANCH   2  19
HETATM   19  O1  UNK     1      14.101   5.385  10.354  1.00  0.00    -0.355 OA
HETATM   20  C16 UNK     1      15.184   4.624   9.824  1.00  0.00     0.210 C 
ENDBRANCH   2  19
BRANCH   3  21
HETATM   21  O3  UNK     1      12.356   9.670   9.082  1.00  0.00    -0.360 OA
HETATM   22  H9  UNK     1      11.705  10.039   8.463  1.00  0.00     0.217 HD
ENDBRANCH   3  21
BRANCH   5  23
HETATM   23  O2  UNK     1      11.694   5.879   6.274  1.00  0.00    -0.356 OA
HETATM   24  C17 UNK     1      10.347   6.214   5.939  1.00  0.00     0.210 C 
ENDBRANCH   5  23
TORSDOF 7
ENDMDL
MODEL 8
REMARK VINA RESULT:      -6.9      2.626      3.929
REMARK  7 active torsions:
REMARK  status: ('A' for Active; 'I' for Inactive)
REMARK    1  A    between atoms: C2_7  and  O1_1 
REMARK    2  A    between atoms: C5_10  and  O2_2 
REMARK    3  A    between atoms: C3_8  and  O3_3 
REMARK    4  A    between atoms: C13_18  and  O5_5 
REMARK    5  A    between atoms: C1_6  and  C6_11 
REMARK    6  A    between atoms: C6_11  and  C9_14 
REMARK    7  A    between atoms: C10_15  and  C8_13 
ROOT
HETATM    1  C1  UNK     1      18.759   1.467  31.313  1.00  0.00     0.081 A 
HETATM    2  C2  UNK     1      18.419   1.064  32.604  1.00  0.00     0.087 A 
HETATM    3  C3  UNK     1      19.500   0.619  30.490  1.00  0.00     0.085 A 
HETATM    4  C4  UNK     1      18.821  -0.187  33.073  1.00  0.00     0.074 A 
HETATM    5  C5  UNK     1      19.562  -1.035  32.250  1.00  0.00     0.073 A 
HETATM    6  C7  UNK     1      19.902  -0.632  30.958  1.00  0.00     0.074 A 
ENDROOT
BRANCH   1   7
HETATM    7  C6  UNK     1      18.331   2.796  30.816  1.00  0.00     0.187 C 
HETATM    8  O4  UNK     1      17.138   3.084  30.797  1.00  0.00    -0.287 OA
BRANCH   7   9
HETATM    9  C9  UNK     1      19.387   3.724  30.323  1.00  0.00     0.056 C 
HETATM   10  C10 UNK     1      19.429   5.004  30.758  1.00  0.00     0.015 C 
BRANCH  10  11
HETATM   11  C8  UNK     1      18.499   5.599  31.705  1.00  0.00    -0.036 A 
HETATM   12  C11 UNK     1      18.584   5.279  33.060  1.00  0.00     0.014 A 
HETATM   13  C14 UNK     1      17.694   5.851  33.968  1.00  0.00     0.037 A 
HETATM   14  C13 UNK     1      16.718   6.743  33.521  1.00  0.00     0.068 A 
HETATM   15  C15 UNK     1      16.634   7.062  32.166  1.00  0.00     0.037 A 
HETATM   16  C12 UNK     1      17.524   6.490  31.257  1.00  0.00     0.014 A 
BRANCH  14  17
HETATM   17  O5  UNK     1      15.850   7.301  34.408  1.00  0.00    -0.356 OA
HETATM   18  C18 UNK     1      14.516   7.529  33.956  1.00  0.00     0.210 C 
ENDBRANCH  14  17
ENDBRANCH  10  11
ENDBRANCH   7   9
ENDBRANCH   1   7
BRANCH   2  19
HETATM   19  O1  UNK     1      17.697   1.876  33.425  1.00  0.00    -0.355 OA
HETATM   20  C16 UNK     1      18.193   2.066  34.749  1.00  0.00     0.210 C 
ENDBRANCH   2  19
BRANCH   3  21
HETATM   21  O3  UNK     1      19.841   0.993  29.224  1.00  0.00    -0.360 OA
HETATM   22  H9  UNK     1      20.004   0.212  28.670  1.00  0.00     0.217 HD
ENDBRANCH   3  21
BRANCH   5  23
HETATM   23  O2  UNK     1      19.953  -2.256  32.706  1.00  0.00    -0.356 OA
HETATM   24  C17 UNK     1      20.235  -2.369  34.100  1.00  0.00     0.210 C 
ENDBRANCH   5  23
TORSDOF 7
ENDMDL
MODEL 9
REMARK VINA RESULT:      -6.9     21.423     24.639
REMARK  7 active torsions:
REMARK  status: ('A' for Active; 'I' for Inactive)
REMARK    1  A    between atoms: C2_7  and  O1_1 
REMARK    2  A    between atoms: C5_10  and  O2_2 
REMARK    3  A    between atoms: C3_8  and  O3_3 
REMARK    4  A    between atoms: C13_18  and  O5_5 
REMARK    5  A    between atoms: C1_6  and  C6_11 
REMARK    6  A    between atoms: C6_11  and  C9_14 
REMARK    7  A    between atoms: C10_15  and  C8_13 
ROOT
HETATM    1  C1  UNK     1      13.743   7.793   9.178  1.00  0.00     0.081 A 
HETATM    2  C2  UNK     1      14.786   7.643  10.092  1.00  0.00     0.087 A 
HETATM    3  C3  UNK     1      12.679   8.648   9.466  1.00  0.00     0.085 A 
HETATM    4  C4  UNK     1      14.765   8.349  11.295  1.00  0.00     0.074 A 
HETATM    5  C5  UNK     1      13.701   9.205  11.584  1.00  0.00     0.073 A 
HETATM    6  C7  UNK     1      12.659   9.354  10.670  1.00  0.00     0.074 A 
ENDROOT
BRANCH   1   7
HETATM    7  C6  UNK     1      13.767   7.043   7.899  1.00  0.00     0.187 C 
HETATM    8  O4  UNK     1      13.724   7.653   6.836  1.00  0.00    -0.287 OA
BRANCH   7   9
HETATM    9  C9  UNK     1      13.808   5.556   7.970  1.00  0.00     0.056 C 
HETATM   10  C10 UNK     1      12.661   4.842   8.006  1.00  0.00     0.015 C 
BRANCH  10  11
HETATM   11  C8  UNK     1      11.321   5.405   7.982  1.00  0.00    -0.036 A 
HETATM   12  C11 UNK     1      10.778   5.864   6.781  1.00  0.00     0.014 A 
HETATM   13  C14 UNK     1       9.492   6.403   6.759  1.00  0.00     0.037 A 
HETATM   14  C13 UNK     1       8.748   6.485   7.937  1.00  0.00     0.068 A 
HETATM   15  C15 UNK     1       9.292   6.025   9.137  1.00  0.00     0.037 A 
HETATM   16  C12 UNK     1      10.578   5.486   9.160  1.00  0.00     0.014 A 
BRANCH  14  17
HETATM   17  O5  UNK     1       7.493   7.010   7.914  1.00  0.00    -0.356 OA
HETATM   18  C18 UNK     1       6.994   7.553   9.135  1.00  0.00     0.210 C 
ENDBRANCH  14  17
ENDBRANCH  10  11
ENDBRANCH   7   9
ENDBRANCH   1   7
BRANCH   2  19
HETATM   19  O1  UNK     1      15.834   6.813   9.832  1.00  0.00    -0.355 OA
HETATM   20  C16 UNK     1      17.135   7.283  10.177  1.00  0.00     0.210 C 
ENDBRANCH   2  19
BRANCH   3  21
HETATM   21  O3  UNK     1      11.652   8.811   8.586  1.00  0.00    -0.360 OA
HETATM   22  H9  UNK     1      11.796   9.597   8.035  1.00  0.00     0.217 HD
ENDBRANCH   3  21
BRANCH   5  23
HETATM   23  O2  UNK     1      13.681   9.894  12.757  1.00  0.00    -0.356 OA
HETATM   24  C17 UNK     1      12.402  10.270  13.268  1.00  0.00     0.210 C 
ENDBRANCH   5  23
TORSDOF 7
ENDMDL
MODEL 10
REMARK VINA RESULT:      -6.9      1.673      7.329
REMARK  7 active torsions:
REMARK  status: ('A' for Active; 'I' for Inactive)
REMARK    1  A    between atoms: C2_7  and  O1_1 
REMARK    2  A    between atoms: C5_10  and  O2_2 
REMARK    3  A    between atoms: C3_8  and  O3_3 
REMARK    4  A    between atoms: C13_18  and  O5_5 
REMARK    5  A    between atoms: C1_6  and  C6_11 
REMARK    6  A    between atoms: C6_11  and  C9_14 
REMARK    7  A    between atoms: C10_15  and  C8_13 
ROOT
HETATM    1  C1  UNK     1      16.760   9.556  34.005  1.00  0.00     0.081 A 
HETATM    2  C2  UNK     1      15.519   9.047  34.390  1.00  0.00     0.087 A 
HETATM    3  C3  UNK     1      17.013  10.925  34.102  1.00  0.00     0.085 A 
HETATM    4  C4  UNK     1      14.532   9.907  34.871  1.00  0.00     0.074 A 
HETATM    5  C5  UNK     1      14.785  11.276  34.968  1.00  0.00     0.073 A 
HETATM    6  C7  UNK     1      16.025  11.785  34.583  1.00  0.00     0.074 A 
ENDROOT
BRANCH   1   7
HETATM    7  C6  UNK     1      17.809   8.642  33.495  1.00  0.00     0.187 C 
HETATM    8  O4  UNK     1      17.817   8.327  32.310  1.00  0.00    -0.287 OA
BRANCH   7   9
HETATM    9  C9  UNK     1      18.802   8.114  34.473  1.00  0.00     0.056 C 
HETATM   10  C10 UNK     1      19.448   6.952  34.229  1.00  0.00     0.015 C 
BRANCH  10  11
HETATM   11  C8  UNK     1      19.263   6.120  33.050  1.00  0.00    -0.036 A 
HETATM   12  C11 UNK     1      18.250   5.162  33.024  1.00  0.00     0.014 A 
HETATM   13  C14 UNK     1      18.073   4.366  31.893  1.00  0.00     0.037 A 
HETATM   14  C13 UNK     1      18.909   4.528  30.787  1.00  0.00     0.068 A 
HETATM   15  C15 UNK     1      19.922   5.487  30.814  1.00  0.00     0.037 A 
HETATM   16  C12 UNK     1      20.100   6.283  31.945  1.00  0.00     0.014 A 
BRANCH  14  17
HETATM   17  O5  UNK     1      18.734   3.752  29.683  1.00  0.00    -0.356 OA
HETATM   18  C18 UNK     1      18.457   2.369  29.898  1.00  0.00     0.210 C 
ENDBRANCH  14  17
ENDBRANCH  10  11
ENDBRANCH   7   9
ENDBRANCH   1   7
BRANCH   2  19
HETATM   19  O1  UNK     1      15.250   7.715  34.304  1.00  0.00    -0.355 OA
HETATM   20  C16 UNK     1      14.221   7.319  33.398  1.00  0.00     0.210 C 
ENDBRANCH   2  19
BRANCH   3  21
HETATM   21  O3  UNK     1      18.219  11.442  33.733  1.00  0.00    -0.360 OA
HETATM   22  H9  UNK     1      18.799  11.538  34.506  1.00  0.00     0.217 HD
ENDBRANCH   3  21
BRANCH   5  23
HETATM   23  O2  UNK     1      13.822  12.115  35.438  1.00  0.00    -0.356 OA
HETATM   24  C17 UNK     1      12.635  12.245  34.656  1.00  0.00     0.210 C 
ENDBRANCH   5  23
TORSDOF 7
ENDMDL
