MODEL 1
REMARK VINA RESULT:      -8.5      0.000      0.000
REMARK  2 active torsions:
REMARK  status: ('A' for Active; 'I' for Inactive)
REMARK    1  A    between atoms: C18_23  and  O3_4 
REMARK    2  A    between atoms: C7_12  and  O3_4 
ROOT
HETATM    1 Cl1  UNK     1       6.469   9.963  11.802  1.00  0.00    -0.084 Cl
HETATM    2  O1  UNK     1       9.610   5.406   9.572  1.00  0.00    -0.306 OA
HETATM    3  O2  UNK     1       5.105   4.230  11.664  1.00  0.00    -0.275 OA
HETATM    4  O4  UNK     1       5.466   2.120  10.862  1.00  0.00    -0.260 OA
HETATM    5  C1  UNK     1       8.315   5.436   9.155  1.00  0.00     0.088 A 
HETATM    6  C2  UNK     1       7.243   5.111  10.011  1.00  0.00     0.017 A 
HETATM    7  C3  UNK     1       9.578   6.037   7.403  1.00  0.00     0.003 A 
HETATM    8  C4  UNK     1      10.380   5.771   8.509  1.00  0.00     0.119 A 
HETATM    9  C5  UNK     1       6.508   6.059  10.867  1.00  0.00     0.013 A 
HETATM   10  C6  UNK     1       8.243   5.817   7.833  1.00  0.00     0.052 A 
HETATM   11  C7  UNK     1      11.770   5.869   8.508  1.00  0.00     0.103 A 
HETATM   12  C8  UNK     1       5.465   5.590  11.664  1.00  0.00     0.090 A 
HETATM   13  C9  UNK     1      10.198   6.431   6.204  1.00  0.00     0.014 A 
HETATM   14  C10 UNK     1       6.871   3.820  10.035  1.00  0.00     0.097 A 
HETATM   15  C11 UNK     1       6.810   7.427  10.921  1.00  0.00     0.039 A 
HETATM   16  C12 UNK     1      12.365   6.263   7.305  1.00  0.00     0.040 A 
HETATM   17  C13 UNK     1      11.595   6.539   6.173  1.00  0.00     0.004 A 
HETATM   18  C14 UNK     1       4.730   6.434  12.497  1.00  0.00     0.040 A 
HETATM   19  C15 UNK     1       5.770   3.308  10.872  1.00  0.00     0.289 A 
HETATM   20  C16 UNK     1       6.082   8.285  11.751  1.00  0.00     0.035 A 
HETATM   21  C17 UNK     1       5.043   7.789  12.538  1.00  0.00     0.026 A 
ENDROOT
BRANCH  11  22
HETATM   22  O3  UNK     1      12.524   5.600   9.612  1.00  0.00    -0.349 OA
BRANCH  22  23
HETATM   23  C18 UNK     1      13.858   6.102   9.621  1.00  0.00     0.171 C 
HETATM   24  C19 UNK     1      14.815   4.952   9.849  1.00  0.00     0.034 C 
ENDBRANCH  22  23
ENDBRANCH  11  22
TORSDOF 2
ENDMDL
MODEL 2
REMARK VINA RESULT:      -8.0     28.073     30.142
REMARK  2 active torsions:
REMARK  status: ('A' for Active; 'I' for Inactive)
REMARK    1  A    between atoms: C18_23  and  O3_4 
REMARK    2  A    between atoms: C7_12  and  O3_4 
ROOT
HETATM    1 Cl1  UNK     1      17.363   0.795  38.285  1.00  0.00    -0.084 Cl
HETATM    2  O1  UNK     1      19.236  -4.427  36.089  1.00  0.00    -0.306 OA
HETATM    3  O2  UNK     1      19.251  -0.484  32.850  1.00  0.00    -0.275 OA
HETATM    4  O4  UNK     1      20.309  -1.892  31.394  1.00  0.00    -0.260 OA
HETATM    5  C1  UNK     1      20.080  -3.391  35.835  1.00  0.00     0.088 A 
HETATM    6  C2  UNK     1      19.769  -2.382  34.900  1.00  0.00     0.017 A 
HETATM    7  C3  UNK     1      21.070  -4.671  37.386  1.00  0.00     0.003 A 
HETATM    8  C4  UNK     1      19.835  -5.207  37.032  1.00  0.00     0.119 A 
HETATM    9  C5  UNK     1      19.055  -1.127  35.194  1.00  0.00     0.013 A 
HETATM   10  C6  UNK     1      21.218  -3.495  36.606  1.00  0.00     0.052 A 
HETATM   11  C7  UNK     1      19.306  -6.376  37.576  1.00  0.00     0.103 A 
HETATM   12  C8  UNK     1      18.818  -0.220  34.163  1.00  0.00     0.090 A 
HETATM   13  C9  UNK     1      21.840  -5.342  38.352  1.00  0.00     0.014 A 
HETATM   14  C10 UNK     1      20.168  -2.600  33.636  1.00  0.00     0.097 A 
HETATM   15  C11 UNK     1      18.594  -0.797  36.476  1.00  0.00     0.039 A 
HETATM   16  C12 UNK     1      20.089  -7.026  38.535  1.00  0.00     0.040 A 
HETATM   17  C13 UNK     1      21.334  -6.521  38.918  1.00  0.00     0.004 A 
HETATM   18  C14 UNK     1      18.148   0.985  34.373  1.00  0.00     0.040 A 
HETATM   19  C15 UNK     1      19.927  -1.651  32.534  1.00  0.00     0.289 A 
HETATM   20  C16 UNK     1      17.920   0.408  36.702  1.00  0.00     0.035 A 
HETATM   21  C17 UNK     1      17.698   1.298  35.652  1.00  0.00     0.026 A 
ENDROOT
BRANCH  11  22
HETATM   22  O3  UNK     1      18.091  -6.873  37.205  1.00  0.00    -0.349 OA
BRANCH  22  23
HETATM   23  C18 UNK     1      18.073  -7.786  36.111  1.00  0.00     0.171 C 
HETATM   24  C19 UNK     1      16.922  -7.432  35.194  1.00  0.00     0.034 C 
ENDBRANCH  22  23
ENDBRANCH  11  22
TORSDOF 2
ENDMDL
MODEL 3
REMARK VINA RESULT:      -7.9      1.267      1.804
REMARK  2 active torsions:
REMARK  status: ('A' for Active; 'I' for Inactive)
REMARK    1  A    between atoms: C18_23  and  O3_4 
REMARK    2  A    between atoms: C7_12  and  O3_4 
ROOT
HETATM    1 Cl1  UNK     1       8.330  11.762  11.278  1.00  0.00    -0.084 Cl
HETATM    2  O1  UNK     1       9.444   6.135   9.635  1.00  0.00    -0.306 OA
HETATM    3  O2  UNK     1       5.149   6.902  12.282  1.00  0.00    -0.275 OA
HETATM    4  O4  UNK     1       4.677   4.710  11.841  1.00  0.00    -0.260 OA
HETATM    5  C1  UNK     1       8.186   6.557   9.331  1.00  0.00     0.088 A 
HETATM    6  C2  UNK     1       7.200   6.747  10.321  1.00  0.00     0.017 A 
HETATM    7  C3  UNK     1       9.315   6.432   7.398  1.00  0.00     0.003 A 
HETATM    8  C4  UNK     1      10.132   6.059   8.461  1.00  0.00     0.119 A 
HETATM    9  C5  UNK     1       6.948   8.000  11.054  1.00  0.00     0.013 A 
HETATM   10  C6  UNK     1       8.057   6.753   7.974  1.00  0.00     0.052 A 
HETATM   11  C7  UNK     1      11.462   5.666   8.323  1.00  0.00     0.103 A 
HETATM   12  C8  UNK     1       5.933   8.039  12.009  1.00  0.00     0.090 A 
HETATM   13  C9  UNK     1       9.853   6.416   6.100  1.00  0.00     0.014 A 
HETATM   14  C10 UNK     1       6.431   5.683  10.607  1.00  0.00     0.097 A 
HETATM   15  C11 UNK     1       7.688   9.170  10.837  1.00  0.00     0.039 A 
HETATM   16  C12 UNK     1      11.976   5.659   7.023  1.00  0.00     0.040 A 
HETATM   17  C13 UNK     1      11.189   6.026   5.929  1.00  0.00     0.004 A 
HETATM   18  C14 UNK     1       5.643   9.192  12.738  1.00  0.00     0.040 A 
HETATM   19  C15 UNK     1       5.354   5.707  11.613  1.00  0.00     0.289 A 
HETATM   20  C16 UNK     1       7.408  10.334  11.561  1.00  0.00     0.035 A 
HETATM   21  C17 UNK     1       6.387  10.345  12.510  1.00  0.00     0.026 A 
ENDROOT
BRANCH  11  22
HETATM   22  O3  UNK     1      12.234   5.307   9.388  1.00  0.00    -0.349 OA
BRANCH  22  23
HETATM   23  C18 UNK     1      13.388   6.102   9.647  1.00  0.00     0.171 C 
HETATM   24  C19 UNK     1      14.579   5.190   9.849  1.00  0.00     0.034 C 
ENDBRANCH  22  23
ENDBRANCH  11  22
TORSDOF 2
ENDMDL
MODEL 4
REMARK VINA RESULT:      -7.9     28.815     30.790
REMARK  2 active torsions:
REMARK  status: ('A' for Active; 'I' for Inactive)
REMARK    1  A    between atoms: C18_23  and  O3_4 
REMARK    2  A    between atoms: C7_12  and  O3_4 
ROOT
HETATM    1 Cl1  UNK     1      16.655  -7.909  34.921  1.00  0.00    -0.084 Cl
HETATM    2  O1  UNK     1      18.877  -2.659  36.684  1.00  0.00    -0.306 OA
HETATM    3  O2  UNK     1      21.495  -6.806  38.100  1.00  0.00    -0.275 OA
HETATM    4  O4  UNK     1      23.075  -5.346  38.872  1.00  0.00    -0.260 OA
HETATM    5  C1  UNK     1      19.793  -3.471  36.090  1.00  0.00     0.088 A 
HETATM    6  C2  UNK     1      20.300  -4.623  36.727  1.00  0.00     0.017 A 
HETATM    7  C3  UNK     1      19.351  -1.819  34.640  1.00  0.00     0.003 A 
HETATM    8  C4  UNK     1      18.607  -1.654  35.804  1.00  0.00     0.119 A 
HETATM    9  C5  UNK     1      19.724  -5.977  36.641  1.00  0.00     0.013 A 
HETATM   10  C6  UNK     1      20.115  -2.999  34.836  1.00  0.00     0.052 A 
HETATM   11  C7  UNK     1      17.717  -0.603  36.020  1.00  0.00     0.103 A 
HETATM   12  C8  UNK     1      20.338  -7.023  37.329  1.00  0.00     0.090 A 
HETATM   13  C9  UNK     1      19.205  -0.874  33.610  1.00  0.00     0.014 A 
HETATM   14  C10 UNK     1      21.406  -4.453  37.471  1.00  0.00     0.097 A 
HETATM   15  C11 UNK     1      18.575  -6.269  35.894  1.00  0.00     0.039 A 
HETATM   16  C12 UNK     1      17.587   0.325  34.982  1.00  0.00     0.040 A 
HETATM   17  C13 UNK     1      18.317   0.195  33.798  1.00  0.00     0.004 A 
HETATM   18  C14 UNK     1      19.844  -8.327  37.290  1.00  0.00     0.040 A 
HETATM   19  C15 UNK     1      22.067  -5.548  38.204  1.00  0.00     0.289 A 
HETATM   20  C16 UNK     1      18.069  -7.571  35.846  1.00  0.00     0.035 A 
HETATM   21  C17 UNK     1      18.702  -8.599  36.543  1.00  0.00     0.026 A 
ENDROOT
BRANCH  11  22
HETATM   22  O3  UNK     1      17.003  -0.473  37.175  1.00  0.00    -0.349 OA
BRANCH  22  23
HETATM   23  C18 UNK     1      16.677   0.851  37.588  1.00  0.00     0.171 C 
HETATM   24  C19 UNK     1      17.759   1.358  38.517  1.00  0.00     0.034 C 
ENDBRANCH  22  23
ENDBRANCH  11  22
TORSDOF 2
ENDMDL
MODEL 5
REMARK VINA RESULT:      -7.8     32.069     35.214
REMARK  2 active torsions:
REMARK  status: ('A' for Active; 'I' for Inactive)
REMARK    1  A    between atoms: C18_23  and  O3_4 
REMARK    2  A    between atoms: C7_12  and  O3_4 
ROOT
HETATM    1 Cl1  UNK     1      33.507  -4.407  34.894  1.00  0.00    -0.084 Cl
HETATM    2  O1  UNK     1      28.973  -8.169  33.950  1.00  0.00    -0.306 OA
HETATM    3  O2  UNK     1      29.230  -6.068  38.594  1.00  0.00    -0.275 OA
HETATM    4  O4  UNK     1      27.202  -7.050  38.974  1.00  0.00    -0.260 OA
HETATM    5  C1  UNK     1      28.595  -6.980  34.493  1.00  0.00     0.088 A 
HETATM    6  C2  UNK     1      28.876  -6.644  35.834  1.00  0.00     0.017 A 
HETATM    7  C3  UNK     1      27.900  -6.972  32.362  1.00  0.00     0.003 A 
HETATM    8  C4  UNK     1      28.551  -8.167  32.654  1.00  0.00     0.119 A 
HETATM    9  C5  UNK     1      30.087  -5.955  36.313  1.00  0.00     0.013 A 
HETATM   10  C6  UNK     1      27.935  -6.211  33.560  1.00  0.00     0.052 A 
HETATM   11  C7  UNK     1      28.736  -9.201  31.738  1.00  0.00     0.103 A 
HETATM   12  C8  UNK     1      30.226  -5.689  37.675  1.00  0.00     0.090 A 
HETATM   13  C9  UNK     1      27.392  -6.785  31.065  1.00  0.00     0.014 A 
HETATM   14  C10 UNK     1      27.946  -6.990  36.740  1.00  0.00     0.097 A 
HETATM   15  C11 UNK     1      31.120  -5.549  35.457  1.00  0.00     0.039 A 
HETATM   16  C12 UNK     1      28.223  -8.992  30.454  1.00  0.00     0.040 A 
HETATM   17  C13 UNK     1      27.562  -7.808  30.121  1.00  0.00     0.004 A 
HETATM   18  C14 UNK     1      31.347  -5.041  38.193  1.00  0.00     0.040 A 
HETATM   19  C15 UNK     1      28.077  -6.716  38.183  1.00  0.00     0.289 A 
HETATM   20  C16 UNK     1      32.249  -4.898  35.963  1.00  0.00     0.035 A 
HETATM   21  C17 UNK     1      32.363  -4.644  37.329  1.00  0.00     0.026 A 
ENDROOT
BRANCH  11  22
HETATM   22  O3  UNK     1      29.380 -10.359  32.060  1.00  0.00    -0.349 OA
BRANCH  22  23
HETATM   23  C18 UNK     1      30.278 -10.890  31.090  1.00  0.00     0.171 C 
HETATM   24  C19 UNK     1      30.374 -12.389  31.277  1.00  0.00     0.034 C 
ENDBRANCH  22  23
ENDBRANCH  11  22
TORSDOF 2
ENDMDL
MODEL 6
REMARK VINA RESULT:      -7.8     32.472     35.703
REMARK  2 active torsions:
REMARK  status: ('A' for Active; 'I' for Inactive)
REMARK    1  A    between atoms: C18_23  and  O3_4 
REMARK    2  A    between atoms: C7_12  and  O3_4 
ROOT
HETATM    1 Cl1  UNK     1      26.345 -10.667  36.802  1.00  0.00    -0.084 Cl
HETATM    2  O1  UNK     1      29.463  -6.074  34.614  1.00  0.00    -0.306 OA
HETATM    3  O2  UNK     1      28.298  -5.848  39.578  1.00  0.00    -0.275 OA
HETATM    4  O4  UNK     1      29.639  -3.998  39.643  1.00  0.00    -0.260 OA
HETATM    5  C1  UNK     1      29.989  -6.601  35.753  1.00  0.00     0.088 A 
HETATM    6  C2  UNK     1      29.384  -6.417  37.014  1.00  0.00     0.017 A 
HETATM    7  C3  UNK     1      31.344  -7.204  34.072  1.00  0.00     0.003 A 
HETATM    8  C4  UNK     1      30.285  -6.439  33.590  1.00  0.00     0.119 A 
HETATM    9  C5  UNK     1      28.371  -7.299  37.619  1.00  0.00     0.013 A 
HETATM   10  C6  UNK     1      31.141  -7.302  35.474  1.00  0.00     0.052 A 
HETATM   11  C7  UNK     1      30.109  -6.105  32.249  1.00  0.00     0.103 A 
HETATM   12  C8  UNK     1      27.861  -6.988  38.879  1.00  0.00     0.090 A 
HETATM   13  C9  UNK     1      32.301  -7.675  33.158  1.00  0.00     0.014 A 
HETATM   14  C10 UNK     1      29.778  -5.338  37.711  1.00  0.00     0.097 A 
HETATM   15  C11 UNK     1      27.888  -8.451  36.983  1.00  0.00     0.039 A 
HETATM   16  C12 UNK     1      31.074  -6.585  31.357  1.00  0.00     0.040 A 
HETATM   17  C13 UNK     1      32.151  -7.356  31.801  1.00  0.00     0.004 A 
HETATM   18  C14 UNK     1      26.901  -7.781  39.508  1.00  0.00     0.040 A 
HETATM   19  C15 UNK     1      29.250  -4.995  39.044  1.00  0.00     0.289 A 
HETATM   20  C16 UNK     1      26.925  -9.256  37.601  1.00  0.00     0.035 A 
HETATM   21  C17 UNK     1      26.433  -8.921  38.862  1.00  0.00     0.026 A 
ENDROOT
BRANCH  11  22
HETATM   22  O3  UNK     1      29.058  -5.353  31.812  1.00  0.00    -0.349 OA
BRANCH  22  23
HETATM   23  C18 UNK     1      28.316  -5.861  30.707  1.00  0.00     0.171 C 
HETATM   24  C19 UNK     1      27.251  -6.806  31.222  1.00  0.00     0.034 C 
ENDBRANCH  22  23
ENDBRANCH  11  22
TORSDOF 2
ENDMDL
MODEL 7
REMARK VINA RESULT:      -7.8      3.536      7.864
REMARK  2 active torsions:
REMARK  status: ('A' for Active; 'I' for Inactive)
REMARK    1  A    between atoms: C18_23  and  O3_4 
REMARK    2  A    between atoms: C7_12  and  O3_4 
ROOT
HETATM    1 Cl1  UNK     1      15.996   4.458   9.774  1.00  0.00    -0.084 Cl
HETATM    2  O1  UNK     1      10.792   7.374   9.645  1.00  0.00    -0.306 OA
HETATM    3  O2  UNK     1      14.923  10.180  10.700  1.00  0.00    -0.275 OA
HETATM    4  O4  UNK     1      13.530  11.987  10.567  1.00  0.00    -0.260 OA
HETATM    5  C1  UNK     1      11.771   7.965   8.908  1.00  0.00     0.088 A 
HETATM    6  C2  UNK     1      12.860   8.633   9.504  1.00  0.00     0.017 A 
HETATM    7  C3  UNK     1      10.316   7.065   7.458  1.00  0.00     0.003 A 
HETATM    8  C4  UNK     1       9.907   6.826   8.766  1.00  0.00     0.119 A 
HETATM    9  C5  UNK     1      14.147   8.019   9.875  1.00  0.00     0.013 A 
HETATM   10  C6  UNK     1      11.525   7.803   7.562  1.00  0.00     0.052 A 
HETATM   11  C7  UNK     1       8.752   6.124   9.107  1.00  0.00     0.103 A 
HETATM   12  C8  UNK     1      15.136   8.809  10.460  1.00  0.00     0.090 A 
HETATM   13  C9  UNK     1       9.524   6.573   6.406  1.00  0.00     0.014 A 
HETATM   14  C10 UNK     1      12.693   9.944   9.747  1.00  0.00     0.097 A 
HETATM   15  C11 UNK     1      14.430   6.663   9.668  1.00  0.00     0.039 A 
HETATM   16  C12 UNK     1       7.980   5.643   8.045  1.00  0.00     0.040 A 
HETATM   17  C13 UNK     1       8.356   5.863   6.718  1.00  0.00     0.004 A 
HETATM   18  C14 UNK     1      16.375   8.291  10.835  1.00  0.00     0.040 A 
HETATM   19  C15 UNK     1      13.727  10.794  10.364  1.00  0.00     0.289 A 
HETATM   20  C16 UNK     1      15.669   6.129  10.039  1.00  0.00     0.035 A 
HETATM   21  C17 UNK     1      16.640   6.942  10.622  1.00  0.00     0.026 A 
ENDROOT
BRANCH  11  22
HETATM   22  O3  UNK     1       8.381   5.908  10.402  1.00  0.00    -0.349 OA
BRANCH  22  23
HETATM   23  C18 UNK     1       7.038   6.230  10.752  1.00  0.00     0.171 C 
HETATM   24  C19 UNK     1       6.927   7.726  10.954  1.00  0.00     0.034 C 
ENDBRANCH  22  23
ENDBRANCH  11  22
TORSDOF 2
ENDMDL
MODEL 8
REMARK VINA RESULT:      -7.7     23.977     25.944
REMARK  2 active torsions:
REMARK  status: ('A' for Active; 'I' for Inactive)
REMARK    1  A    between atoms: C18_23  and  O3_4 
REMARK    2  A    between atoms: C7_12  and  O3_4 
ROOT
HETATM    1 Cl1  UNK     1      18.296   3.172  28.659  1.00  0.00    -0.084 Cl
HETATM    2  O1  UNK     1      17.171   5.628  33.980  1.00  0.00    -0.306 OA
HETATM    3  O2  UNK     1      18.709   0.761  34.022  1.00  0.00    -0.275 OA
HETATM    4  O4  UNK     1      18.790   0.976  36.296  1.00  0.00    -0.260 OA
HETATM    5  C1  UNK     1      18.373   4.996  33.910  1.00  0.00     0.088 A 
HETATM    6  C2  UNK     1      18.481   3.590  33.868  1.00  0.00     0.017 A 
HETATM    7  C3  UNK     1      18.796   7.197  33.949  1.00  0.00     0.003 A 
HETATM    8  C4  UNK     1      17.425   6.966  34.003  1.00  0.00     0.119 A 
HETATM    9  C5  UNK     1      18.495   2.765  32.648  1.00  0.00     0.013 A 
HETATM   10  C6  UNK     1      19.400   5.914  33.889  1.00  0.00     0.052 A 
HETATM   11  C7  UNK     1      16.465   7.974  34.072  1.00  0.00     0.103 A 
HETATM   12  C8  UNK     1      18.608   1.380  32.762  1.00  0.00     0.090 A 
HETATM   13  C9  UNK     1      19.254   8.526  33.963  1.00  0.00     0.014 A 
HETATM   14  C10 UNK     1      18.581   2.965  35.054  1.00  0.00     0.097 A 
HETATM   15  C11 UNK     1      18.398   3.310  31.360  1.00  0.00     0.039 A 
HETATM   16  C12 UNK     1      16.943   9.288  34.084  1.00  0.00     0.040 A 
HETATM   17  C13 UNK     1      18.312   9.562  34.031  1.00  0.00     0.004 A 
HETATM   18  C14 UNK     1      18.627   0.542  31.647  1.00  0.00     0.040 A 
HETATM   19  C15 UNK     1      18.702   1.503  35.193  1.00  0.00     0.289 A 
HETATM   20  C16 UNK     1      18.416   2.482  30.233  1.00  0.00     0.035 A 
HETATM   21  C17 UNK     1      18.530   1.100  30.376  1.00  0.00     0.026 A 
ENDROOT
BRANCH  11  22
HETATM   22  O3  UNK     1      15.128   7.711  34.123  1.00  0.00    -0.349 OA
BRANCH  22  23
HETATM   23  C18 UNK     1      14.333   8.184  33.039  1.00  0.00     0.171 C 
HETATM   24  C19 UNK     1      14.223   7.092  31.996  1.00  0.00     0.034 C 
ENDBRANCH  22  23
ENDBRANCH  11  22
TORSDOF 2
ENDMDL
MODEL 9
REMARK VINA RESULT:      -7.5     32.120     35.665
REMARK  2 active torsions:
REMARK  status: ('A' for Active; 'I' for Inactive)
REMARK    1  A    between atoms: C18_23  and  O3_4 
REMARK    2  A    between atoms: C7_12  and  O3_4 
ROOT
HETATM    1 Cl1  UNK     1      27.104  -6.575  38.555  1.00  0.00    -0.084 Cl
HETATM    2  O1  UNK     1      30.115  -7.003  33.422  1.00  0.00    -0.306 OA
HETATM    3  O2  UNK     1      31.983  -3.732  36.866  1.00  0.00    -0.275 OA
HETATM    4  O4  UNK     1      33.763  -3.509  35.450  1.00  0.00    -0.260 OA
HETATM    5  C1  UNK     1      30.899  -7.111  34.528  1.00  0.00     0.088 A 
HETATM    6  C2  UNK     1      31.195  -6.003  35.350  1.00  0.00     0.017 A 
HETATM    7  C3  UNK     1      30.768  -9.157  33.622  1.00  0.00     0.003 A 
HETATM    8  C4  UNK     1      30.033  -8.245  32.869  1.00  0.00     0.119 A 
HETATM    9  C5  UNK     1      30.407  -5.560  36.513  1.00  0.00     0.013 A 
HETATM   10  C6  UNK     1      31.323  -8.411  34.694  1.00  0.00     0.052 A 
HETATM   11  C7  UNK     1      29.323  -8.576  31.716  1.00  0.00     0.103 A 
HETATM   12  C8  UNK     1      30.825  -4.442  37.234  1.00  0.00     0.090 A 
HETATM   13  C9  UNK     1      30.802 -10.498  33.204  1.00  0.00     0.014 A 
HETATM   14  C10 UNK     1      32.296  -5.302  35.029  1.00  0.00     0.097 A 
HETATM   15  C11 UNK     1      29.243  -6.216  36.938  1.00  0.00     0.039 A 
HETATM   16  C12 UNK     1      29.371  -9.917  31.320  1.00  0.00     0.040 A 
HETATM   17  C13 UNK     1      30.097 -10.862  32.048  1.00  0.00     0.004 A 
HETATM   18  C14 UNK     1      30.125  -3.971  38.344  1.00  0.00     0.040 A 
HETATM   19  C15 UNK     1      32.751  -4.118  35.780  1.00  0.00     0.289 A 
HETATM   20  C16 UNK     1      28.531  -5.755  38.050  1.00  0.00     0.035 A 
HETATM   21  C17 UNK     1      28.971  -4.633  38.752  1.00  0.00     0.026 A 
ENDROOT
BRANCH  11  22
HETATM   22  O3  UNK     1      28.613  -7.656  31.003  1.00  0.00    -0.349 OA
BRANCH  22  23
HETATM   23  C18 UNK     1      27.343  -8.065  30.504  1.00  0.00     0.171 C 
HETATM   24  C19 UNK     1      26.420  -6.866  30.463  1.00  0.00     0.034 C 
ENDBRANCH  22  23
ENDBRANCH  11  22
TORSDOF 2
ENDMDL
MODEL 10
REMARK VINA RESULT:      -7.5     33.593     36.697
REMARK  2 active torsions:
REMARK  status: ('A' for Active; 'I' for Inactive)
REMARK    1  A    between atoms: C18_23  and  O3_4 
REMARK    2  A    between atoms: C7_12  and  O3_4 
ROOT
HETATM    1 Cl1  UNK     1      28.538  -5.833  30.820  1.00  0.00    -0.084 Cl
HETATM    2  O1  UNK     1      30.742  -7.004  36.240  1.00  0.00    -0.306 OA
HETATM    3  O2  UNK     1      33.888  -7.812  32.303  1.00  0.00    -0.275 OA
HETATM    4  O4  UNK     1      35.500  -8.192  33.878  1.00  0.00    -0.260 OA
HETATM    5  C1  UNK     1      31.551  -6.222  35.476  1.00  0.00     0.088 A 
HETATM    6  C2  UNK     1      32.267  -6.734  34.373  1.00  0.00     0.017 A 
HETATM    7  C3  UNK     1      30.679  -4.900  37.063  1.00  0.00     0.003 A 
HETATM    8  C4  UNK     1      30.211  -6.203  37.206  1.00  0.00     0.119 A 
HETATM    9  C5  UNK     1      31.780  -6.792  32.984  1.00  0.00     0.013 A 
HETATM   10  C6  UNK     1      31.546  -4.924  35.939  1.00  0.00     0.052 A 
HETATM   11  C7  UNK     1      29.325  -6.610  38.201  1.00  0.00     0.103 A 
HETATM   12  C8  UNK     1      32.604  -7.328  31.995  1.00  0.00     0.090 A 
HETATM   13  C9  UNK     1      30.239  -3.925  37.974  1.00  0.00     0.014 A 
HETATM   14  C10 UNK     1      33.499  -7.204  34.631  1.00  0.00     0.097 A 
HETATM   15  C11 UNK     1      30.513  -6.329  32.602  1.00  0.00     0.039 A 
HETATM   16  C12 UNK     1      28.899  -5.623  39.096  1.00  0.00     0.040 A 
HETATM   17  C13 UNK     1      29.346  -4.304  38.987  1.00  0.00     0.004 A 
HETATM   18  C14 UNK     1      32.203  -7.412  30.661  1.00  0.00     0.040 A 
HETATM   19  C15 UNK     1      34.383  -7.774  33.597  1.00  0.00     0.289 A 
HETATM   20  C16 UNK     1      30.099  -6.408  31.268  1.00  0.00     0.035 A 
HETATM   21  C17 UNK     1      30.943  -6.948  30.299  1.00  0.00     0.026 A 
ENDROOT
BRANCH  11  22
HETATM   22  O3  UNK     1      28.885  -7.896  38.311  1.00  0.00    -0.349 OA
BRANCH  22  23
HETATM   23  C18 UNK     1      27.801  -8.135  39.204  1.00  0.00     0.171 C 
HETATM   24  C19 UNK     1      27.832  -9.585  39.639  1.00  0.00     0.034 C 
ENDBRANCH  22  23
ENDBRANCH  11  22
TORSDOF 2
ENDMDL
