MODEL 1
REMARK VINA RESULT:      -9.0      0.000      0.000
REMARK  7 active torsions:
REMARK  status: ('A' for Active; 'I' for Inactive)
REMARK    1  A    between atoms: C13_20  and  O1_2 
REMARK    2  A    between atoms: C2_9  and  O1_2 
REMARK    3  A    between atoms: C15_22  and  N1_7 
REMARK    4  A    between atoms: C1_8  and  C8_15 
REMARK    5  A    between atoms: C13_20  and  C5_12 
REMARK    6  A    between atoms: C12_19  and  C8_15 
REMARK    7  A    between atoms: C14_21  and  C9_16 
ROOT
HETATM    1  C1  UNK     1      23.161 -10.236  36.212  1.00  0.00     0.014 A 
HETATM    2  C2  UNK     1      25.872 -10.150  36.867  1.00  0.00     0.079 A 
HETATM    3  C3  UNK     1      23.699  -9.096  36.810  1.00  0.00     0.018 A 
HETATM    4  C4  UNK     1      23.979 -11.334  35.942  1.00  0.00     0.018 A 
HETATM    5  C6  UNK     1      25.054  -9.053  37.138  1.00  0.00     0.038 A 
HETATM    6  C7  UNK     1      25.334 -11.290  36.269  1.00  0.00     0.038 A 
ENDROOT
BRANCH   2   7
HETATM    7  O1  UNK     1      27.194 -10.108  37.186  1.00  0.00    -0.275 OA
BRANCH   7   8
HETATM    8  C13 UNK     1      27.454  -9.795  38.523  1.00  0.00     0.298 C 
HETATM    9  O3  UNK     1      27.153 -10.483  39.486  1.00  0.00    -0.259 OA
BRANCH   8  10
HETATM   10  C5  UNK     1      28.144  -8.486  38.643  1.00  0.00     0.040 A 
HETATM   11  C10 UNK     1      27.518  -7.423  39.295  1.00  0.00     0.020 A 
HETATM   12  C16 UNK     1      28.166  -6.194  39.408  1.00  0.00     0.037 A 
HETATM   13  C15 UNK     1      29.442  -6.026  38.870  1.00  0.00     0.102 A 
HETATM   14  C17 UNK     1      30.069  -7.088  38.217  1.00  0.00     0.037 A 
HETATM   15  C11 UNK     1      29.420  -8.318  38.104  1.00  0.00     0.020 A 
BRANCH  13  16
HETATM   16  N1  UNK     1      30.103  -4.774  38.984  1.00  0.00    -0.116 N 
HETATM   17  O4  UNK     1      31.143  -4.574  38.310  1.00  0.00    -0.532 OA
HETATM   18  O5  UNK     1      29.630  -3.905  39.755  1.00  0.00    -0.532 OA
ENDBRANCH  13  16
ENDBRANCH   8  10
ENDBRANCH   7   8
ENDBRANCH   2   7
BRANCH   1  19
HETATM   19  C8  UNK     1      21.748 -10.280  35.870  1.00  0.00     0.182 C 
HETATM   20  O2  UNK     1      21.299  -9.605  34.932  1.00  0.00    -0.288 OA
BRANCH  19  21
HETATM   21  C12 UNK     1      20.834 -11.138  36.700  1.00  0.00     0.056 C 
HETATM   22  C14 UNK     1      20.184 -10.621  37.754  1.00  0.00     0.017 C 
BRANCH  22  23
HETATM   23  C9  UNK     1      20.289  -9.220  38.196  1.00  0.00    -0.014 A 
HETATM   24  C18 UNK     1      19.526  -8.201  37.625  1.00  0.00     0.044 A 
HETATM   25 Cl1  UNK     1      18.395  -8.510  36.353  1.00  0.00    -0.083 Cl
HETATM   26  C20 UNK     1      19.663  -6.889  38.079  1.00  0.00     0.024 A 
HETATM   27  C22 UNK     1      20.562  -6.596  39.103  1.00  0.00     0.002 A 
HETATM   28  C21 UNK     1      21.326  -7.614  39.674  1.00  0.00     0.001 A 
HETATM   29  C19 UNK     1      21.190  -8.926  39.220  1.00  0.00     0.013 A 
ENDBRANCH  22  23
ENDBRANCH  19  21
ENDBRANCH   1  19
TORSDOF 7
ENDMDL
MODEL 2
REMARK VINA RESULT:      -8.4      5.629      8.971
REMARK  7 active torsions:
REMARK  status: ('A' for Active; 'I' for Inactive)
REMARK    1  A    between atoms: C13_20  and  O1_2 
REMARK    2  A    between atoms: C2_9  and  O1_2 
REMARK    3  A    between atoms: C15_22  and  N1_7 
REMARK    4  A    between atoms: C1_8  and  C8_15 
REMARK    5  A    between atoms: C13_20  and  C5_12 
REMARK    6  A    between atoms: C12_19  and  C8_15 
REMARK    7  A    between atoms: C14_21  and  C9_16 
ROOT
HETATM    1  C1  UNK     1      21.003  -7.184  38.961  1.00  0.00     0.014 A 
HETATM    2  C2  UNK     1      20.990  -4.625  37.850  1.00  0.00     0.079 A 
HETATM    3  C3  UNK     1      19.794  -6.523  38.747  1.00  0.00     0.018 A 
HETATM    4  C4  UNK     1      22.206  -6.565  38.620  1.00  0.00     0.018 A 
HETATM    5  C6  UNK     1      19.786  -5.243  38.191  1.00  0.00     0.038 A 
HETATM    6  C7  UNK     1      22.199  -5.286  38.064  1.00  0.00     0.038 A 
ENDROOT
BRANCH   2   7
HETATM    7  O1  UNK     1      20.983  -3.377  37.307  1.00  0.00    -0.275 OA
BRANCH   7   8
HETATM    8  C13 UNK     1      20.238  -3.265  36.131  1.00  0.00     0.298 C 
HETATM    9  O3  UNK     1      20.404  -3.927  35.118  1.00  0.00    -0.259 OA
BRANCH   8  10
HETATM   10  C5  UNK     1      19.200  -2.210  36.251  1.00  0.00     0.040 A 
HETATM   11  C10 UNK     1      18.574  -1.983  37.477  1.00  0.00     0.020 A 
HETATM   12  C16 UNK     1      17.599  -0.992  37.591  1.00  0.00     0.037 A 
HETATM   13  C15 UNK     1      17.250  -0.227  36.478  1.00  0.00     0.102 A 
HETATM   14  C17 UNK     1      17.876  -0.453  35.251  1.00  0.00     0.037 A 
HETATM   15  C11 UNK     1      18.851  -1.444  35.139  1.00  0.00     0.020 A 
BRANCH  13  16
HETATM   16  N1  UNK     1      16.258   0.783  36.592  1.00  0.00    -0.116 N 
HETATM   17  O4  UNK     1      15.157   0.620  36.012  1.00  0.00    -0.532 OA
HETATM   18  O5  UNK     1      16.508   1.808  37.270  1.00  0.00    -0.532 OA
ENDBRANCH  13  16
ENDBRANCH   8  10
ENDBRANCH   7   8
ENDBRANCH   2   7
BRANCH   1  19
HETATM   19  C8  UNK     1      21.010  -8.518  39.540  1.00  0.00     0.182 C 
HETATM   20  O2  UNK     1      22.016  -8.956  40.119  1.00  0.00    -0.288 OA
BRANCH  19  21
HETATM   21  C12 UNK     1      19.781  -9.372  39.394  1.00  0.00     0.056 C 
HETATM   22  C14 UNK     1      19.559 -10.060  38.264  1.00  0.00     0.017 C 
BRANCH  22  23
HETATM   23  C9  UNK     1      20.454 -10.057  37.093  1.00  0.00    -0.014 A 
HETATM   24  C18 UNK     1      20.291  -9.161  36.036  1.00  0.00     0.044 A 
HETATM   25 Cl1  UNK     1      19.024  -7.984  36.022  1.00  0.00    -0.083 Cl
HETATM   26  C20 UNK     1      21.165  -9.199  34.949  1.00  0.00     0.024 A 
HETATM   27  C22 UNK     1      22.202 -10.132  34.920  1.00  0.00     0.002 A 
HETATM   28  C21 UNK     1      22.364 -11.028  35.977  1.00  0.00     0.001 A 
HETATM   29  C19 UNK     1      21.491 -10.990  37.063  1.00  0.00     0.013 A 
ENDBRANCH  22  23
ENDBRANCH  19  21
ENDBRANCH   1  19
TORSDOF 7
ENDMDL
MODEL 3
REMARK VINA RESULT:      -8.4     12.878     15.618
REMARK  7 active torsions:
REMARK  status: ('A' for Active; 'I' for Inactive)
REMARK    1  A    between atoms: C13_20  and  O1_2 
REMARK    2  A    between atoms: C2_9  and  O1_2 
REMARK    3  A    between atoms: C15_22  and  N1_7 
REMARK    4  A    between atoms: C1_8  and  C8_15 
REMARK    5  A    between atoms: C13_20  and  C5_12 
REMARK    6  A    between atoms: C12_19  and  C8_15 
REMARK    7  A    between atoms: C14_21  and  C9_16 
ROOT
HETATM    1  C1  UNK     1      18.754   5.029  31.440  1.00  0.00     0.014 A 
HETATM    2  C2  UNK     1      18.400   2.347  30.760  1.00  0.00     0.079 A 
HETATM    3  C3  UNK     1      18.316   4.118  32.401  1.00  0.00     0.018 A 
HETATM    4  C4  UNK     1      19.015   4.599  30.138  1.00  0.00     0.018 A 
HETATM    5  C6  UNK     1      18.138   2.776  32.061  1.00  0.00     0.038 A 
HETATM    6  C7  UNK     1      18.838   3.257  29.799  1.00  0.00     0.038 A 
ENDROOT
BRANCH   2   7
HETATM    7  O1  UNK     1      18.227   1.038  30.429  1.00  0.00    -0.275 OA
BRANCH   7   8
HETATM    8  C13 UNK     1      19.413   0.302  30.356  1.00  0.00     0.298 C 
HETATM    9  O3  UNK     1      20.216   0.336  29.436  1.00  0.00    -0.259 OA
BRANCH   8  10
HETATM   10  C5  UNK     1      19.583  -0.562  31.552  1.00  0.00     0.040 A 
HETATM   11  C10 UNK     1      18.745  -0.399  32.656  1.00  0.00     0.020 A 
HETATM   12  C16 UNK     1      18.905  -1.209  33.779  1.00  0.00     0.037 A 
HETATM   13  C15 UNK     1      19.901  -2.185  33.799  1.00  0.00     0.102 A 
HETATM   14  C17 UNK     1      20.739  -2.349  32.695  1.00  0.00     0.037 A 
HETATM   15  C11 UNK     1      20.580  -1.537  31.572  1.00  0.00     0.020 A 
BRANCH  13  16
HETATM   16  N1  UNK     1      20.065  -3.011  34.942  1.00  0.00    -0.116 N 
HETATM   17  O4  UNK     1      20.341  -4.225  34.779  1.00  0.00    -0.532 OA
HETATM   18  O5  UNK     1      19.929  -2.506  36.082  1.00  0.00    -0.532 OA
ENDBRANCH  13  16
ENDBRANCH   8  10
ENDBRANCH   7   8
ENDBRANCH   2   7
BRANCH   1  19
HETATM   19  C8  UNK     1      18.940   6.427  31.794  1.00  0.00     0.182 C 
HETATM   20  O2  UNK     1      18.442   7.330  31.105  1.00  0.00    -0.288 OA
BRANCH  19  21
HETATM   21  C12 UNK     1      19.777   6.759  32.998  1.00  0.00     0.056 C 
HETATM   22  C14 UNK     1      19.248   7.426  34.034  1.00  0.00     0.017 C 
BRANCH  22  23
HETATM   23  C9  UNK     1      17.850   7.889  34.105  1.00  0.00    -0.014 A 
HETATM   24  C18 UNK     1      17.512   9.241  34.060  1.00  0.00     0.044 A 
HETATM   25 Cl1  UNK     1      18.711  10.479  33.914  1.00  0.00    -0.083 Cl
HETATM   26  C20 UNK     1      16.173   9.628  34.131  1.00  0.00     0.024 A 
HETATM   27  C22 UNK     1      15.174   8.663  34.248  1.00  0.00     0.002 A 
HETATM   28  C21 UNK     1      15.512   7.310  34.295  1.00  0.00     0.001 A 
HETATM   29  C19 UNK     1      16.850   6.923  34.223  1.00  0.00     0.013 A 
ENDBRANCH  22  23
ENDBRANCH  19  21
ENDBRANCH   1  19
TORSDOF 7
ENDMDL
MODEL 4
REMARK VINA RESULT:      -8.4      7.298      9.386
REMARK  7 active torsions:
REMARK  status: ('A' for Active; 'I' for Inactive)
REMARK    1  A    between atoms: C13_20  and  O1_2 
REMARK    2  A    between atoms: C2_9  and  O1_2 
REMARK    3  A    between atoms: C15_22  and  N1_7 
REMARK    4  A    between atoms: C1_8  and  C8_15 
REMARK    5  A    between atoms: C13_20  and  C5_12 
REMARK    6  A    between atoms: C12_19  and  C8_15 
REMARK    7  A    between atoms: C14_21  and  C9_16 
ROOT
HETATM    1  C1  UNK     1      32.620  -7.977  31.861  1.00  0.00     0.014 A 
HETATM    2  C2  UNK     1      33.649  -6.992  34.259  1.00  0.00     0.079 A 
HETATM    3  C3  UNK     1      31.850  -8.025  33.023  1.00  0.00     0.018 A 
HETATM    4  C4  UNK     1      33.905  -7.436  31.899  1.00  0.00     0.018 A 
HETATM    5  C6  UNK     1      32.364  -7.533  34.223  1.00  0.00     0.038 A 
HETATM    6  C7  UNK     1      34.420  -6.944  33.098  1.00  0.00     0.038 A 
ENDROOT
BRANCH   2   7
HETATM    7  O1  UNK     1      34.152  -6.511  35.430  1.00  0.00    -0.275 OA
BRANCH   7   8
HETATM    8  C13 UNK     1      33.876  -5.161  35.663  1.00  0.00     0.298 C 
HETATM    9  O3  UNK     1      34.476  -4.218  35.170  1.00  0.00    -0.259 OA
BRANCH   8  10
HETATM   10  C5  UNK     1      32.748  -5.000  36.615  1.00  0.00     0.040 A 
HETATM   11  C10 UNK     1      32.598  -5.892  37.677  1.00  0.00     0.020 A 
HETATM   12  C16 UNK     1      31.539  -5.741  38.571  1.00  0.00     0.037 A 
HETATM   13  C15 UNK     1      30.629  -4.696  38.404  1.00  0.00     0.102 A 
HETATM   14  C17 UNK     1      30.779  -3.804  37.342  1.00  0.00     0.037 A 
HETATM   15  C11 UNK     1      31.838  -3.956  36.448  1.00  0.00     0.020 A 
BRANCH  13  16
HETATM   16  N1  UNK     1      29.550  -4.541  39.314  1.00  0.00    -0.116 N 
HETATM   17  O4  UNK     1      28.630  -5.395  39.316  1.00  0.00    -0.532 OA
HETATM   18  O5  UNK     1      29.546  -3.557  40.091  1.00  0.00    -0.532 OA
ENDBRANCH  13  16
ENDBRANCH   8  10
ENDBRANCH   7   8
ENDBRANCH   2   7
BRANCH   1  19
HETATM   19  C8  UNK     1      32.082  -8.489  30.611  1.00  0.00     0.182 C 
HETATM   20  O2  UNK     1      31.740  -9.677  30.505  1.00  0.00    -0.288 OA
BRANCH  19  21
HETATM   21  C12 UNK     1      31.981  -7.557  29.436  1.00  0.00     0.056 C 
HETATM   22  C14 UNK     1      30.918  -6.751  29.294  1.00  0.00     0.017 C 
BRANCH  22  23
HETATM   23  C9  UNK     1      29.783  -6.692  30.232  1.00  0.00    -0.014 A 
HETATM   24  C18 UNK     1      28.743  -7.621  30.199  1.00  0.00     0.044 A 
HETATM   25 Cl1  UNK     1      28.711  -8.917  29.054  1.00  0.00    -0.083 Cl
HETATM   26  C20 UNK     1      27.690  -7.521  31.108  1.00  0.00     0.024 A 
HETATM   27  C22 UNK     1      27.676  -6.492  32.050  1.00  0.00     0.002 A 
HETATM   28  C21 UNK     1      28.716  -5.562  32.081  1.00  0.00     0.001 A 
HETATM   29  C19 UNK     1      29.769  -5.662  31.173  1.00  0.00     0.013 A 
ENDBRANCH  22  23
ENDBRANCH  19  21
ENDBRANCH   1  19
TORSDOF 7
ENDMDL
MODEL 5
REMARK VINA RESULT:      -8.4      7.542      9.798
REMARK  7 active torsions:
REMARK  status: ('A' for Active; 'I' for Inactive)
REMARK    1  A    between atoms: C13_20  and  O1_2 
REMARK    2  A    between atoms: C2_9  and  O1_2 
REMARK    3  A    between atoms: C15_22  and  N1_7 
REMARK    4  A    between atoms: C1_8  and  C8_15 
REMARK    5  A    between atoms: C13_20  and  C5_12 
REMARK    6  A    between atoms: C12_19  and  C8_15 
REMARK    7  A    between atoms: C14_21  and  C9_16 
ROOT
HETATM    1  C1  UNK     1      33.003  -7.691  31.616  1.00  0.00     0.014 A 
HETATM    2  C2  UNK     1      33.767  -6.777  34.139  1.00  0.00     0.079 A 
HETATM    3  C3  UNK     1      32.038  -7.460  32.597  1.00  0.00     0.018 A 
HETATM    4  C4  UNK     1      34.351  -7.465  31.898  1.00  0.00     0.018 A 
HETATM    5  C6  UNK     1      32.419  -7.004  33.858  1.00  0.00     0.038 A 
HETATM    6  C7  UNK     1      34.732  -7.007  33.159  1.00  0.00     0.038 A 
ENDROOT
BRANCH   2   7
HETATM    7  O1  UNK     1      34.140  -6.331  35.369  1.00  0.00    -0.275 OA
BRANCH   7   8
HETATM    8  C13 UNK     1      33.825  -4.992  35.616  1.00  0.00     0.298 C 
HETATM    9  O3  UNK     1      34.389  -4.026  35.123  1.00  0.00    -0.259 OA
BRANCH   8  10
HETATM   10  C5  UNK     1      32.704  -4.873  36.582  1.00  0.00     0.040 A 
HETATM   11  C10 UNK     1      31.837  -3.782  36.514  1.00  0.00     0.020 A 
HETATM   12  C16 UNK     1      30.783  -3.670  37.421  1.00  0.00     0.037 A 
HETATM   13  C15 UNK     1      30.596  -4.650  38.397  1.00  0.00     0.102 A 
HETATM   14  C17 UNK     1      31.463  -5.741  38.465  1.00  0.00     0.037 A 
HETATM   15  C11 UNK     1      32.516  -5.852  37.557  1.00  0.00     0.020 A 
BRANCH  13  16
HETATM   16  N1  UNK     1      29.524  -4.537  39.321  1.00  0.00    -0.116 N 
HETATM   17  O4  UNK     1      29.490  -3.548  40.093  1.00  0.00    -0.532 OA
HETATM   18  O5  UNK     1      28.641  -5.428  39.340  1.00  0.00    -0.532 OA
ENDBRANCH  13  16
ENDBRANCH   8  10
ENDBRANCH   7   8
ENDBRANCH   2   7
BRANCH   1  19
HETATM   19  C8  UNK     1      32.604  -8.167  30.301  1.00  0.00     0.182 C 
HETATM   20  O2  UNK     1      32.468  -9.379  30.077  1.00  0.00    -0.288 OA
BRANCH  19  21
HETATM   21  C12 UNK     1      32.392  -7.159  29.206  1.00  0.00     0.056 C 
HETATM   22  C14 UNK     1      31.152  -6.793  28.847  1.00  0.00     0.017 C 
BRANCH  22  23
HETATM   23  C9  UNK     1      29.916  -7.315  29.457  1.00  0.00    -0.014 A 
HETATM   24  C18 UNK     1      29.242  -6.631  30.469  1.00  0.00     0.044 A 
HETATM   25 Cl1  UNK     1      29.806  -5.116  31.082  1.00  0.00    -0.083 Cl
HETATM   26  C20 UNK     1      28.075  -7.168  31.015  1.00  0.00     0.024 A 
HETATM   27  C22 UNK     1      27.584  -8.387  30.549  1.00  0.00     0.002 A 
HETATM   28  C21 UNK     1      28.260  -9.071  29.538  1.00  0.00     0.001 A 
HETATM   29  C19 UNK     1      29.425  -8.535  28.992  1.00  0.00     0.013 A 
ENDBRANCH  22  23
ENDBRANCH  19  21
ENDBRANCH   1  19
TORSDOF 7
ENDMDL
MODEL 6
REMARK VINA RESULT:      -8.4      5.963      9.372
REMARK  7 active torsions:
REMARK  status: ('A' for Active; 'I' for Inactive)
REMARK    1  A    between atoms: C13_20  and  O1_2 
REMARK    2  A    between atoms: C2_9  and  O1_2 
REMARK    3  A    between atoms: C15_22  and  N1_7 
REMARK    4  A    between atoms: C1_8  and  C8_15 
REMARK    5  A    between atoms: C13_20  and  C5_12 
REMARK    6  A    between atoms: C12_19  and  C8_15 
REMARK    7  A    between atoms: C14_21  and  C9_16 
ROOT
HETATM    1  C1  UNK     1      19.383  -6.821  36.939  1.00  0.00     0.014 A 
HETATM    2  C2  UNK     1      20.437  -4.292  36.413  1.00  0.00     0.079 A 
HETATM    3  C3  UNK     1      19.536  -6.388  35.621  1.00  0.00     0.018 A 
HETATM    4  C4  UNK     1      19.757  -5.988  37.993  1.00  0.00     0.018 A 
HETATM    5  C6  UNK     1      20.063  -5.124  35.358  1.00  0.00     0.038 A 
HETATM    6  C7  UNK     1      20.285  -4.723  37.730  1.00  0.00     0.038 A 
ENDROOT
BRANCH   2   7
HETATM    7  O1  UNK     1      20.951  -3.058  36.157  1.00  0.00    -0.275 OA
BRANCH   7   8
HETATM    8  C13 UNK     1      20.379  -2.413  35.057  1.00  0.00     0.298 C 
HETATM    9  O3  UNK     1      20.757  -2.511  33.899  1.00  0.00    -0.259 OA
BRANCH   8  10
HETATM   10  C5  UNK     1      19.235  -1.561  35.469  1.00  0.00     0.040 A 
HETATM   11  C10 UNK     1      18.521  -0.840  34.512  1.00  0.00     0.020 A 
HETATM   12  C16 UNK     1      17.446  -0.040  34.899  1.00  0.00     0.037 A 
HETATM   13  C15 UNK     1      17.084   0.039  36.243  1.00  0.00     0.102 A 
HETATM   14  C17 UNK     1      17.798  -0.682  37.202  1.00  0.00     0.037 A 
HETATM   15  C11 UNK     1      18.873  -1.482  36.814  1.00  0.00     0.020 A 
BRANCH  13  16
HETATM   16  N1  UNK     1      15.990   0.853  36.639  1.00  0.00    -0.116 N 
HETATM   17  O4  UNK     1      16.183   1.760  37.485  1.00  0.00    -0.532 OA
HETATM   18  O5  UNK     1      14.862   0.645  36.131  1.00  0.00    -0.532 OA
ENDBRANCH  13  16
ENDBRANCH   8  10
ENDBRANCH   7   8
ENDBRANCH   2   7
BRANCH   1  19
HETATM   19  C8  UNK     1      18.835  -8.139  37.212  1.00  0.00     0.182 C 
HETATM   20  O2  UNK     1      18.167  -8.741  36.358  1.00  0.00    -0.288 OA
BRANCH  19  21
HETATM   21  C12 UNK     1      19.067  -8.748  38.567  1.00  0.00     0.056 C 
HETATM   22  C14 UNK     1      20.156  -9.495  38.802  1.00  0.00     0.017 C 
BRANCH  22  23
HETATM   23  C9  UNK     1      21.199  -9.790  37.804  1.00  0.00    -0.014 A 
HETATM   24  C18 UNK     1      22.347  -9.009  37.675  1.00  0.00     0.044 A 
HETATM   25 Cl1  UNK     1      22.634  -7.633  38.682  1.00  0.00    -0.083 Cl
HETATM   26  C20 UNK     1      23.305  -9.331  36.713  1.00  0.00     0.024 A 
HETATM   27  C22 UNK     1      23.114 -10.433  35.880  1.00  0.00     0.002 A 
HETATM   28  C21 UNK     1      21.965 -11.214  36.008  1.00  0.00     0.001 A 
HETATM   29  C19 UNK     1      21.008 -10.893  36.970  1.00  0.00     0.013 A 
ENDBRANCH  22  23
ENDBRANCH  19  21
ENDBRANCH   1  19
TORSDOF 7
ENDMDL
MODEL 7
REMARK VINA RESULT:      -8.4      7.191      9.050
REMARK  7 active torsions:
REMARK  status: ('A' for Active; 'I' for Inactive)
REMARK    1  A    between atoms: C13_20  and  O1_2 
REMARK    2  A    between atoms: C2_9  and  O1_2 
REMARK    3  A    between atoms: C15_22  and  N1_7 
REMARK    4  A    between atoms: C1_8  and  C8_15 
REMARK    5  A    between atoms: C13_20  and  C5_12 
REMARK    6  A    between atoms: C12_19  and  C8_15 
REMARK    7  A    between atoms: C14_21  and  C9_16 
ROOT
HETATM    1  C1  UNK     1      29.843  -7.396  32.902  1.00  0.00     0.014 A 
HETATM    2  C2  UNK     1      32.109  -6.100  33.884  1.00  0.00     0.079 A 
HETATM    3  C3  UNK     1      30.931  -8.141  33.356  1.00  0.00     0.018 A 
HETATM    4  C4  UNK     1      29.888  -6.002  32.939  1.00  0.00     0.018 A 
HETATM    5  C6  UNK     1      32.065  -7.494  33.847  1.00  0.00     0.038 A 
HETATM    6  C7  UNK     1      31.022  -5.354  33.430  1.00  0.00     0.038 A 
ENDROOT
BRANCH   2   7
HETATM    7  O1  UNK     1      33.215  -5.468  34.363  1.00  0.00    -0.275 OA
BRANCH   7   8
HETATM    8  C13 UNK     1      33.517  -5.767  35.694  1.00  0.00     0.298 C 
HETATM    9  O3  UNK     1      34.546  -6.294  36.089  1.00  0.00    -0.259 OA
BRANCH   8  10
HETATM   10  C5  UNK     1      32.408  -5.372  36.599  1.00  0.00     0.040 A 
HETATM   11  C10 UNK     1      31.815  -6.321  37.432  1.00  0.00     0.020 A 
HETATM   12  C16 UNK     1      30.773  -5.950  38.282  1.00  0.00     0.037 A 
HETATM   13  C15 UNK     1      30.324  -4.630  38.299  1.00  0.00     0.102 A 
HETATM   14  C17 UNK     1      30.917  -3.680  37.466  1.00  0.00     0.037 A 
HETATM   15  C11 UNK     1      31.958  -4.051  36.616  1.00  0.00     0.020 A 
BRANCH  13  16
HETATM   16  N1  UNK     1      29.263  -4.251  39.164  1.00  0.00    -0.116 N 
HETATM   17  O4  UNK     1      29.516  -3.510  40.145  1.00  0.00    -0.532 OA
HETATM   18  O5  UNK     1      28.104  -4.667  38.924  1.00  0.00    -0.532 OA
ENDBRANCH  13  16
ENDBRANCH   8  10
ENDBRANCH   7   8
ENDBRANCH   2   7
BRANCH   1  19
HETATM   19  C8  UNK     1      28.661  -8.072  32.391  1.00  0.00     0.182 C 
HETATM   20  O2  UNK     1      28.483  -9.283  32.592  1.00  0.00    -0.288 OA
BRANCH  19  21
HETATM   21  C12 UNK     1      27.672  -7.279  31.583  1.00  0.00     0.056 C 
HETATM   22  C14 UNK     1      27.643  -7.383  30.246  1.00  0.00     0.017 C 
BRANCH  22  23
HETATM   23  C9  UNK     1      28.538  -8.247  29.455  1.00  0.00    -0.014 A 
HETATM   24  C18 UNK     1      29.832  -7.858  29.108  1.00  0.00     0.044 A 
HETATM   25 Cl1  UNK     1      30.485  -6.329  29.585  1.00  0.00    -0.083 Cl
HETATM   26  C20 UNK     1      30.639  -8.712  28.358  1.00  0.00     0.024 A 
HETATM   27  C22 UNK     1      30.153  -9.955  27.953  1.00  0.00     0.002 A 
HETATM   28  C21 UNK     1      28.858 -10.344  28.299  1.00  0.00     0.001 A 
HETATM   29  C19 UNK     1      28.051  -9.490  29.050  1.00  0.00     0.013 A 
ENDBRANCH  22  23
ENDBRANCH  19  21
ENDBRANCH   1  19
TORSDOF 7
ENDMDL
MODEL 8
REMARK VINA RESULT:      -8.4      6.286      9.351
REMARK  7 active torsions:
REMARK  status: ('A' for Active; 'I' for Inactive)
REMARK    1  A    between atoms: C13_20  and  O1_2 
REMARK    2  A    between atoms: C2_9  and  O1_2 
REMARK    3  A    between atoms: C15_22  and  N1_7 
REMARK    4  A    between atoms: C1_8  and  C8_15 
REMARK    5  A    between atoms: C13_20  and  C5_12 
REMARK    6  A    between atoms: C12_19  and  C8_15 
REMARK    7  A    between atoms: C14_21  and  C9_16 
ROOT
HETATM    1  C1  UNK     1      19.696  -6.095  37.493  1.00  0.00     0.014 A 
HETATM    2  C2  UNK     1      20.372  -3.927  35.873  1.00  0.00     0.079 A 
HETATM    3  C3  UNK     1      19.479  -6.158  36.116  1.00  0.00     0.018 A 
HETATM    4  C4  UNK     1      20.251  -4.947  38.059  1.00  0.00     0.018 A 
HETATM    5  C6  UNK     1      19.816  -5.075  35.306  1.00  0.00     0.038 A 
HETATM    6  C7  UNK     1      20.589  -3.864  37.249  1.00  0.00     0.038 A 
ENDROOT
BRANCH   2   7
HETATM    7  O1  UNK     1      20.703  -2.870  35.082  1.00  0.00    -0.275 OA
BRANCH   7   8
HETATM    8  C13 UNK     1      19.624  -2.051  34.737  1.00  0.00     0.298 C 
HETATM    9  O3  UNK     1      18.687  -1.764  35.466  1.00  0.00    -0.259 OA
BRANCH   8  10
HETATM   10  C5  UNK     1      19.745  -1.565  33.339  1.00  0.00     0.040 A 
HETATM   11  C10 UNK     1      18.992  -0.471  32.913  1.00  0.00     0.020 A 
HETATM   12  C16 UNK     1      19.105  -0.014  31.600  1.00  0.00     0.037 A 
HETATM   13  C15 UNK     1      19.973  -0.651  30.713  1.00  0.00     0.102 A 
HETATM   14  C17 UNK     1      20.727  -1.745  31.139  1.00  0.00     0.037 A 
HETATM   15  C11 UNK     1      20.613  -2.201  32.452  1.00  0.00     0.020 A 
BRANCH  13  16
HETATM   16  N1  UNK     1      20.089  -0.186  29.376  1.00  0.00    -0.116 N 
HETATM   17  O4  UNK     1      20.893  -0.761  28.602  1.00  0.00    -0.532 OA
HETATM   18  O5  UNK     1      19.386   0.784  29.005  1.00  0.00    -0.532 OA
ENDBRANCH  13  16
ENDBRANCH   8  10
ENDBRANCH   7   8
ENDBRANCH   2   7
BRANCH   1  19
HETATM   19  C8  UNK     1      19.343  -7.226  38.337  1.00  0.00     0.182 C 
HETATM   20  O2  UNK     1      18.291  -7.855  38.152  1.00  0.00    -0.288 OA
BRANCH  19  21
HETATM   21  C12 UNK     1      20.267  -7.597  39.464  1.00  0.00     0.056 C 
HETATM   22  C14 UNK     1      21.210  -8.536  39.291  1.00  0.00     0.017 C 
BRANCH  22  23
HETATM   23  C9  UNK     1      21.435  -9.275  38.036  1.00  0.00    -0.014 A 
HETATM   24  C18 UNK     1      20.665 -10.381  37.676  1.00  0.00     0.044 A 
HETATM   25 Cl1  UNK     1      19.383 -10.967  38.679  1.00  0.00    -0.083 Cl
HETATM   26  C20 UNK     1      20.918 -11.047  36.477  1.00  0.00     0.024 A 
HETATM   27  C22 UNK     1      21.941 -10.607  35.638  1.00  0.00     0.002 A 
HETATM   28  C21 UNK     1      22.712  -9.501  35.998  1.00  0.00     0.001 A 
HETATM   29  C19 UNK     1      22.459  -8.835  37.197  1.00  0.00     0.013 A 
ENDBRANCH  22  23
ENDBRANCH  19  21
ENDBRANCH   1  19
TORSDOF 7
ENDMDL
MODEL 9
REMARK VINA RESULT:      -8.3      6.729      8.336
REMARK  7 active torsions:
REMARK  status: ('A' for Active; 'I' for Inactive)
REMARK    1  A    between atoms: C13_20  and  O1_2 
REMARK    2  A    between atoms: C2_9  and  O1_2 
REMARK    3  A    between atoms: C15_22  and  N1_7 
REMARK    4  A    between atoms: C1_8  and  C8_15 
REMARK    5  A    between atoms: C13_20  and  C5_12 
REMARK    6  A    between atoms: C12_19  and  C8_15 
REMARK    7  A    between atoms: C14_21  and  C9_16 
ROOT
HETATM    1  C1  UNK     1      32.074  -8.755  32.988  1.00  0.00     0.014 A 
HETATM    2  C2  UNK     1      33.596  -7.338  34.849  1.00  0.00     0.079 A 
HETATM    3  C3  UNK     1      32.415  -9.345  34.206  1.00  0.00     0.018 A 
HETATM    4  C4  UNK     1      32.496  -7.456  32.701  1.00  0.00     0.018 A 
HETATM    5  C6  UNK     1      33.175  -8.637  35.136  1.00  0.00     0.038 A 
HETATM    6  C7  UNK     1      33.256  -6.748  33.632  1.00  0.00     0.038 A 
ENDROOT
BRANCH   2   7
HETATM    7  O1  UNK     1      34.338  -6.647  35.757  1.00  0.00    -0.275 OA
BRANCH   7   8
HETATM    8  C13 UNK     1      34.003  -5.294  35.862  1.00  0.00     0.298 C 
HETATM    9  O3  UNK     1      34.584  -4.373  35.310  1.00  0.00    -0.259 OA
BRANCH   8  10
HETATM   10  C5  UNK     1      32.836  -5.098  36.759  1.00  0.00     0.040 A 
HETATM   11  C10 UNK     1      32.674  -5.910  37.882  1.00  0.00     0.020 A 
HETATM   12  C16 UNK     1      31.579  -5.726  38.725  1.00  0.00     0.037 A 
HETATM   13  C15 UNK     1      30.644  -4.729  38.446  1.00  0.00     0.102 A 
HETATM   14  C17 UNK     1      30.806  -3.916  37.323  1.00  0.00     0.037 A 
HETATM   15  C11 UNK     1      31.902  -4.101  36.480  1.00  0.00     0.020 A 
BRANCH  13  16
HETATM   16  N1  UNK     1      29.528  -4.541  39.303  1.00  0.00    -0.116 N 
HETATM   17  O4  UNK     1      28.580  -5.362  39.254  1.00  0.00    -0.532 OA
HETATM   18  O5  UNK     1      29.520  -3.560  40.085  1.00  0.00    -0.532 OA
ENDBRANCH  13  16
ENDBRANCH   8  10
ENDBRANCH   7   8
ENDBRANCH   2   7
BRANCH   1  19
HETATM   19  C8  UNK     1      31.281  -9.493  32.019  1.00  0.00     0.182 C 
HETATM   20  O2  UNK     1      31.430  -9.308  30.801  1.00  0.00    -0.288 OA
BRANCH  19  21
HETATM   21  C12 UNK     1      30.250 -10.465  32.524  1.00  0.00     0.056 C 
HETATM   22  C14 UNK     1      29.029 -10.040  32.880  1.00  0.00     0.017 C 
BRANCH  22  23
HETATM   23  C9  UNK     1      28.581  -8.637  32.819  1.00  0.00    -0.014 A 
HETATM   24  C18 UNK     1      28.075  -8.068  31.650  1.00  0.00     0.044 A 
HETATM   25 Cl1  UNK     1      27.934  -8.970  30.182  1.00  0.00    -0.083 Cl
HETATM   26  C20 UNK     1      27.664  -6.735  31.645  1.00  0.00     0.024 A 
HETATM   27  C22 UNK     1      27.760  -5.971  32.808  1.00  0.00     0.002 A 
HETATM   28  C21 UNK     1      28.267  -6.540  33.976  1.00  0.00     0.001 A 
HETATM   29  C19 UNK     1      28.677  -7.873  33.982  1.00  0.00     0.013 A 
ENDBRANCH  22  23
ENDBRANCH  19  21
ENDBRANCH   1  19
TORSDOF 7
ENDMDL
MODEL 10
REMARK VINA RESULT:      -8.2      6.605      9.289
REMARK  7 active torsions:
REMARK  status: ('A' for Active; 'I' for Inactive)
REMARK    1  A    between atoms: C13_20  and  O1_2 
REMARK    2  A    between atoms: C2_9  and  O1_2 
REMARK    3  A    between atoms: C15_22  and  N1_7 
REMARK    4  A    between atoms: C1_8  and  C8_15 
REMARK    5  A    between atoms: C13_20  and  C5_12 
REMARK    6  A    between atoms: C12_19  and  C8_15 
REMARK    7  A    between atoms: C14_21  and  C9_16 
ROOT
HETATM    1  C1  UNK     1      32.292  -7.018  32.674  1.00  0.00     0.014 A 
HETATM    2  C2  UNK     1      32.759  -5.423  34.914  1.00  0.00     0.079 A 
HETATM    3  C3  UNK     1      33.548  -7.018  33.281  1.00  0.00     0.018 A 
HETATM    4  C4  UNK     1      31.270  -6.220  33.187  1.00  0.00     0.018 A 
HETATM    5  C6  UNK     1      33.782  -6.221  34.401  1.00  0.00     0.038 A 
HETATM    6  C7  UNK     1      31.503  -5.423  34.308  1.00  0.00     0.038 A 
ENDROOT
BRANCH   2   7
HETATM    7  O1  UNK     1      32.987  -4.645  36.008  1.00  0.00    -0.275 OA
BRANCH   7   8
HETATM    8  C13 UNK     1      32.833  -5.308  37.228  1.00  0.00     0.298 C 
HETATM    9  O3  UNK     1      33.737  -5.778  37.902  1.00  0.00    -0.259 OA
BRANCH   8  10
HETATM   10  C5  UNK     1      31.402  -5.391  37.617  1.00  0.00     0.040 A 
HETATM   11  C10 UNK     1      30.818  -6.632  37.869  1.00  0.00     0.020 A 
HETATM   12  C16 UNK     1      29.474  -6.710  38.235  1.00  0.00     0.037 A 
HETATM   13  C15 UNK     1      28.714  -5.547  38.350  1.00  0.00     0.102 A 
HETATM   14  C17 UNK     1      29.298  -4.304  38.098  1.00  0.00     0.037 A 
HETATM   15  C11 UNK     1      30.642  -4.227  37.732  1.00  0.00     0.020 A 
BRANCH  13  16
HETATM   16  N1  UNK     1      27.346  -5.625  38.722  1.00  0.00    -0.116 N 
HETATM   17  O4  UNK     1      26.793  -6.751  38.769  1.00  0.00    -0.532 OA
HETATM   18  O5  UNK     1      26.728  -4.568  38.994  1.00  0.00    -0.532 OA
ENDBRANCH  13  16
ENDBRANCH   8  10
ENDBRANCH   7   8
ENDBRANCH   2   7
BRANCH   1  19
HETATM   19  C8  UNK     1      32.049  -7.850  31.506  1.00  0.00     0.182 C 
HETATM   20  O2  UNK     1      31.725  -9.041  31.630  1.00  0.00    -0.288 OA
BRANCH  19  21
HETATM   21  C12 UNK     1      32.230  -7.246  30.142  1.00  0.00     0.056 C 
HETATM   22  C14 UNK     1      31.167  -6.947  29.381  1.00  0.00     0.017 C 
BRANCH  22  23
HETATM   23  C9  UNK     1      29.765  -7.168  29.779  1.00  0.00    -0.014 A 
HETATM   24  C18 UNK     1      28.995  -6.169  30.376  1.00  0.00     0.044 A 
HETATM   25 Cl1  UNK     1      29.630  -4.592  30.691  1.00  0.00    -0.083 Cl
HETATM   26  C20 UNK     1      27.672  -6.429  30.735  1.00  0.00     0.024 A 
HETATM   27  C22 UNK     1      27.120  -7.688  30.498  1.00  0.00     0.002 A 
HETATM   28  C21 UNK     1      27.891  -8.687  29.902  1.00  0.00     0.001 A 
HETATM   29  C19 UNK     1      29.213  -8.427  29.543  1.00  0.00     0.013 A 
ENDBRANCH  22  23
ENDBRANCH  19  21
ENDBRANCH   1  19
TORSDOF 7
ENDMDL
