MODEL 1
REMARK VINA RESULT:      -9.5      0.000      0.000
REMARK  4 active torsions:
REMARK  status: ('A' for Active; 'I' for Inactive)
REMARK    1  A    between atoms: C7_16  and  O2_3 
REMARK    2  A    between atoms: C4_13  and  N1_8 
REMARK       I    between atoms: C6_15  and  N1_8 
REMARK    3  A    between atoms: C13_22  and  N2_9 
REMARK    4  A    between atoms: C2_11  and  C6_15 
ROOT
HETATM    1  O3  UNK     1      17.105  -1.788  17.013  1.00  0.00    -0.267 OA
HETATM    2  N1  UNK     1      19.278  -0.888  16.870  1.00  0.00    -0.320 N 
HETATM    3  C6  UNK     1      18.193  -1.652  16.458  1.00  0.00     0.262 C 
HETATM    4  H2  UNK     1      20.123  -0.900  16.305  1.00  0.00     0.169 HD
ENDROOT
BRANCH   3   5
HETATM    5  C2  UNK     1      18.460  -2.352  15.196  1.00  0.00     0.108 A 
HETATM    6  C9  UNK     1      19.029  -1.658  14.018  1.00  0.00     0.304 A 
HETATM    7  O1  UNK     1      19.237  -2.430  12.878  1.00  0.00    -0.274 OA
HETATM    8  O4  UNK     1      19.307  -0.464  14.041  1.00  0.00    -0.259 OA
HETATM    9  C3  UNK     1      18.922  -3.802  12.844  1.00  0.00     0.089 A 
HETATM   10  C1  UNK     1      18.388  -4.434  13.961  1.00  0.00     0.001 A 
HETATM   11  C11 UNK     1      19.167  -4.492  11.657  1.00  0.00     0.040 A 
HETATM   12  C5  UNK     1      18.159  -3.654  15.168  1.00  0.00     0.037 A 
HETATM   13  C8  UNK     1      18.089  -5.797  13.887  1.00  0.00     0.038 A 
HETATM   14  C15 UNK     1      18.328  -6.502  12.704  1.00  0.00     0.035 A 
HETATM   15 Cl1  UNK     1      17.959  -8.182  12.616  1.00  0.00    -0.084 Cl
HETATM   16  C16 UNK     1      18.865  -5.850  11.591  1.00  0.00     0.026 A 
ENDBRANCH   3   5
BRANCH   2  17
HETATM   17  C4  UNK     1      19.365  -0.097  18.023  1.00  0.00     0.068 A 
HETATM   18  C10 UNK     1      19.763  -0.684  19.222  1.00  0.00     0.035 A 
HETATM   19  C14 UNK     1      19.856   0.093  20.378  1.00  0.00     0.038 A 
HETATM   20  C13 UNK     1      19.549   1.452  20.331  1.00  0.00     0.105 A 
HETATM   21  C12 UNK     1      19.151   2.036  19.129  1.00  0.00     0.075 A 
HETATM   22  C7  UNK     1      19.059   1.261  17.973  1.00  0.00     0.097 A 
BRANCH  20  23
HETATM   23  N2  UNK     1      19.643   2.242  21.508  1.00  0.00    -0.116 N 
HETATM   24  O5  UNK     1      20.764   2.394  22.050  1.00  0.00    -0.532 OA
HETATM   25  O6  UNK     1      18.601   2.763  21.974  1.00  0.00    -0.532 OA
ENDBRANCH  20  23
BRANCH  22  26
HETATM   26  O2  UNK     1      18.667   1.850  16.808  1.00  0.00    -0.354 OA
HETATM   27  C17 UNK     1      19.529   2.847  16.264  1.00  0.00     0.210 C 
ENDBRANCH  22  26
ENDBRANCH   2  17
TORSDOF 4
ENDMDL
MODEL 2
REMARK VINA RESULT:      -9.3     13.439     16.405
REMARK  4 active torsions:
REMARK  status: ('A' for Active; 'I' for Inactive)
REMARK    1  A    between atoms: C7_16  and  O2_3 
REMARK    2  A    between atoms: C4_13  and  N1_8 
REMARK       I    between atoms: C6_15  and  N1_8 
REMARK    3  A    between atoms: C13_22  and  N2_9 
REMARK    4  A    between atoms: C2_11  and  C6_15 
ROOT
HETATM    1  O3  UNK     1      17.609   3.369  32.897  1.00  0.00    -0.267 OA
HETATM    2  N1  UNK     1      18.617   4.882  31.398  1.00  0.00    -0.320 N 
HETATM    3  C6  UNK     1      18.230   3.635  31.870  1.00  0.00     0.262 C 
HETATM    4  H2  UNK     1      19.152   4.931  30.535  1.00  0.00     0.169 HD
ENDROOT
BRANCH   3   5
HETATM    5  C2  UNK     1      18.652   2.552  30.974  1.00  0.00     0.108 A 
HETATM    6  C9  UNK     1      18.587   2.681  29.500  1.00  0.00     0.304 A 
HETATM    7  O1  UNK     1      19.015   1.585  28.756  1.00  0.00    -0.274 OA
HETATM    8  O4  UNK     1      18.177   3.702  28.957  1.00  0.00    -0.259 OA
HETATM    9  C3  UNK     1      19.488   0.410  29.372  1.00  0.00     0.089 A 
HETATM   10  C1  UNK     1      19.541   0.309  30.758  1.00  0.00     0.001 A 
HETATM   11  C11 UNK     1      19.897  -0.634  28.544  1.00  0.00     0.040 A 
HETATM   12  C5  UNK     1      19.100   1.438  31.563  1.00  0.00     0.037 A 
HETATM   13  C8  UNK     1      20.016  -0.873  31.330  1.00  0.00     0.038 A 
HETATM   14  C15 UNK     1      20.429  -1.930  30.513  1.00  0.00     0.035 A 
HETATM   15 Cl1  UNK     1      21.015  -3.385  31.223  1.00  0.00    -0.084 Cl
HETATM   16  C16 UNK     1      20.369  -1.810  29.123  1.00  0.00     0.026 A 
ENDBRANCH   3   5
BRANCH   2  17
HETATM   17  C4  UNK     1      18.380   6.125  32.001  1.00  0.00     0.068 A 
HETATM   18  C10 UNK     1      17.228   6.832  31.668  1.00  0.00     0.035 A 
HETATM   19  C14 UNK     1      16.978   8.071  32.261  1.00  0.00     0.038 A 
HETATM   20  C13 UNK     1      17.883   8.598  33.183  1.00  0.00     0.105 A 
HETATM   21  C12 UNK     1      19.035   7.886  33.512  1.00  0.00     0.075 A 
HETATM   22  C7  UNK     1      19.285   6.648  32.921  1.00  0.00     0.097 A 
BRANCH  20  23
HETATM   23  N2  UNK     1      17.628   9.859  33.785  1.00  0.00    -0.116 N 
HETATM   24  O5  UNK     1      16.650   9.975  34.562  1.00  0.00    -0.532 OA
HETATM   25  O6  UNK     1      18.389  10.822  33.522  1.00  0.00    -0.532 OA
ENDBRANCH  20  23
BRANCH  22  26
HETATM   26  O2  UNK     1      20.418   5.969  33.256  1.00  0.00    -0.354 OA
HETATM   27  C17 UNK     1      21.615   6.329  32.572  1.00  0.00     0.210 C 
ENDBRANCH  22  26
ENDBRANCH   2  17
TORSDOF 4
ENDMDL
MODEL 3
REMARK VINA RESULT:      -9.2     19.193     21.880
REMARK  4 active torsions:
REMARK  status: ('A' for Active; 'I' for Inactive)
REMARK    1  A    between atoms: C7_16  and  O2_3 
REMARK    2  A    between atoms: C4_13  and  N1_8 
REMARK       I    between atoms: C6_15  and  N1_8 
REMARK    3  A    between atoms: C13_22  and  N2_9 
REMARK    4  A    between atoms: C2_11  and  C6_15 
ROOT
HETATM    1  O3  UNK     1      21.281  -4.416  37.008  1.00  0.00    -0.267 OA
HETATM    2  N1  UNK     1      19.072  -5.188  36.735  1.00  0.00    -0.320 N 
HETATM    3  C6  UNK     1      20.108  -4.267  36.671  1.00  0.00     0.262 C 
HETATM    4  H2  UNK     1      18.145  -4.898  36.435  1.00  0.00     0.169 HD
ENDROOT
BRANCH   3   5
HETATM    5  C2  UNK     1      19.668  -2.979  36.122  1.00  0.00     0.108 A 
HETATM    6  C9  UNK     1      20.051  -2.532  34.763  1.00  0.00     0.304 A 
HETATM    7  O1  UNK     1      19.571  -1.291  34.354  1.00  0.00    -0.274 OA
HETATM    8  O4  UNK     1      20.756  -3.218  34.030  1.00  0.00    -0.259 OA
HETATM    9  C3  UNK     1      18.760  -0.497  35.189  1.00  0.00     0.089 A 
HETATM   10  C1  UNK     1      18.412  -0.936  36.462  1.00  0.00     0.001 A 
HETATM   11  C11 UNK     1      18.327   0.730  34.691  1.00  0.00     0.040 A 
HETATM   12  C5  UNK     1      18.899  -2.229  36.918  1.00  0.00     0.037 A 
HETATM   13  C8  UNK     1      17.606  -0.119  37.259  1.00  0.00     0.038 A 
HETATM   14  C15 UNK     1      17.164   1.115  36.774  1.00  0.00     0.035 A 
HETATM   15 Cl1  UNK     1      16.170   2.118  37.760  1.00  0.00    -0.084 Cl
HETATM   16  C16 UNK     1      17.524   1.539  35.493  1.00  0.00     0.026 A 
ENDBRANCH   3   5
BRANCH   2  17
HETATM   17  C4  UNK     1      19.140  -6.507  37.204  1.00  0.00     0.068 A 
HETATM   18  C10 UNK     1      19.672  -6.752  38.468  1.00  0.00     0.035 A 
HETATM   19  C14 UNK     1      19.746  -8.060  38.948  1.00  0.00     0.038 A 
HETATM   20  C13 UNK     1      19.289  -9.118  38.162  1.00  0.00     0.105 A 
HETATM   21  C12 UNK     1      18.758  -8.868  36.897  1.00  0.00     0.075 A 
HETATM   22  C7  UNK     1      18.684  -7.561  36.417  1.00  0.00     0.097 A 
BRANCH  20  23
HETATM   23  N2  UNK     1      19.365 -10.449  38.651  1.00  0.00    -0.116 N 
HETATM   24  O5  UNK     1      19.413 -11.397  37.830  1.00  0.00    -0.532 OA
HETATM   25  O6  UNK     1      19.383 -10.641  39.891  1.00  0.00    -0.532 OA
ENDBRANCH  20  23
BRANCH  22  26
HETATM   26  O2  UNK     1      18.162  -7.339  35.177  1.00  0.00    -0.354 OA
HETATM   27  C17 UNK     1      16.759  -7.536  35.020  1.00  0.00     0.210 C 
ENDBRANCH  22  26
ENDBRANCH   2  17
TORSDOF 4
ENDMDL
MODEL 4
REMARK VINA RESULT:      -9.0      1.893      2.540
REMARK  4 active torsions:
REMARK  status: ('A' for Active; 'I' for Inactive)
REMARK    1  A    between atoms: C7_16  and  O2_3 
REMARK    2  A    between atoms: C4_13  and  N1_8 
REMARK       I    between atoms: C6_15  and  N1_8 
REMARK    3  A    between atoms: C13_22  and  N2_9 
REMARK    4  A    between atoms: C2_11  and  C6_15 
ROOT
HETATM    1  O3  UNK     1      17.033  -1.736  16.945  1.00  0.00    -0.267 OA
HETATM    2  N1  UNK     1      19.290  -1.060  16.919  1.00  0.00    -0.320 N 
HETATM    3  C6  UNK     1      18.164  -1.732  16.463  1.00  0.00     0.262 C 
HETATM    4  H2  UNK     1      20.165  -1.180  16.415  1.00  0.00     0.169 HD
ENDROOT
BRANCH   3   5
HETATM    5  C2  UNK     1      18.441  -2.510  15.249  1.00  0.00     0.108 A 
HETATM    6  C9  UNK     1      17.906  -3.877  15.054  1.00  0.00     0.304 A 
HETATM    7  O1  UNK     1      18.238  -4.514  13.862  1.00  0.00    -0.274 OA
HETATM    8  O4  UNK     1      17.205  -4.425  15.899  1.00  0.00    -0.259 OA
HETATM    9  C3  UNK     1      19.041  -3.892  12.887  1.00  0.00     0.089 A 
HETATM   10  C1  UNK     1      19.533  -2.607  13.090  1.00  0.00     0.001 A 
HETATM   11  C11 UNK     1      19.318  -4.608  11.724  1.00  0.00     0.040 A 
HETATM   12  C5  UNK     1      19.204  -1.915  14.327  1.00  0.00     0.037 A 
HETATM   13  C8  UNK     1      20.327  -2.024  12.099  1.00  0.00     0.038 A 
HETATM   14  C15 UNK     1      20.614  -2.730  10.927  1.00  0.00     0.035 A 
HETATM   15 Cl1  UNK     1      21.592  -2.008   9.708  1.00  0.00    -0.084 Cl
HETATM   16  C16 UNK     1      20.111  -4.020  10.741  1.00  0.00     0.026 A 
ENDBRANCH   3   5
BRANCH   2  17
HETATM   17  C4  UNK     1      19.382  -0.230  18.044  1.00  0.00     0.068 A 
HETATM   18  C10 UNK     1      19.765  -0.780  19.265  1.00  0.00     0.035 A 
HETATM   19  C14 UNK     1      19.861   0.034  20.394  1.00  0.00     0.038 A 
HETATM   20  C13 UNK     1      19.573   1.395  20.298  1.00  0.00     0.105 A 
HETATM   21  C12 UNK     1      19.188   1.942  19.075  1.00  0.00     0.075 A 
HETATM   22  C7  UNK     1      19.093   1.128  17.946  1.00  0.00     0.097 A 
BRANCH  20  23
HETATM   23  N2  UNK     1      19.669   2.223  21.448  1.00  0.00    -0.116 N 
HETATM   24  O5  UNK     1      18.627   2.747  21.910  1.00  0.00    -0.532 OA
HETATM   25  O6  UNK     1      20.795   2.409  21.970  1.00  0.00    -0.532 OA
ENDBRANCH  20  23
BRANCH  22  26
HETATM   26  O2  UNK     1      18.715   1.682  16.759  1.00  0.00    -0.354 OA
HETATM   27  C17 UNK     1      19.513   2.754  16.262  1.00  0.00     0.210 C 
ENDBRANCH  22  26
ENDBRANCH   2  17
TORSDOF 4
ENDMDL
MODEL 5
REMARK VINA RESULT:      -8.9      3.978      8.581
REMARK  4 active torsions:
REMARK  status: ('A' for Active; 'I' for Inactive)
REMARK    1  A    between atoms: C7_16  and  O2_3 
REMARK    2  A    between atoms: C4_13  and  N1_8 
REMARK       I    between atoms: C6_15  and  N1_8 
REMARK    3  A    between atoms: C13_22  and  N2_9 
REMARK    4  A    between atoms: C2_11  and  C6_15 
ROOT
HETATM    1  O3  UNK     1      17.698  -3.358  15.775  1.00  0.00    -0.267 OA
HETATM    2  N1  UNK     1      19.850  -3.223  14.825  1.00  0.00    -0.320 N 
HETATM    3  C6  UNK     1      18.732  -2.753  15.501  1.00  0.00     0.262 C 
HETATM    4  H2  UNK     1      20.621  -2.582  14.656  1.00  0.00     0.169 HD
ENDROOT
BRANCH   3   5
HETATM    5  C2  UNK     1      18.882  -1.350  15.905  1.00  0.00     0.108 A 
HETATM    6  C9  UNK     1      19.117  -0.269  14.919  1.00  0.00     0.304 A 
HETATM    7  O1  UNK     1      19.243   1.022  15.425  1.00  0.00    -0.274 OA
HETATM    8  O4  UNK     1      19.197  -0.496  13.716  1.00  0.00    -0.259 OA
HETATM    9  C3  UNK     1      19.152   1.291  16.804  1.00  0.00     0.089 A 
HETATM   10  C1  UNK     1      18.931   0.261  17.713  1.00  0.00     0.001 A 
HETATM   11  C11 UNK     1      19.290   2.615  17.215  1.00  0.00     0.040 A 
HETATM   12  C5  UNK     1      18.796  -1.100  17.216  1.00  0.00     0.037 A 
HETATM   13  C8  UNK     1      18.847   0.569  19.073  1.00  0.00     0.038 A 
HETATM   14  C15 UNK     1      18.984   1.893  19.501  1.00  0.00     0.035 A 
HETATM   15 Cl1  UNK     1      18.880   2.268  21.178  1.00  0.00    -0.084 Cl
HETATM   16  C16 UNK     1      19.205   2.913  18.574  1.00  0.00     0.026 A 
ENDBRANCH   3   5
BRANCH   2  17
HETATM   17  C4  UNK     1      20.043  -4.509  14.302  1.00  0.00     0.068 A 
HETATM   18  C10 UNK     1      20.814  -5.424  15.015  1.00  0.00     0.035 A 
HETATM   19  C14 UNK     1      21.015  -6.708  14.507  1.00  0.00     0.038 A 
HETATM   20  C13 UNK     1      20.444  -7.072  13.288  1.00  0.00     0.105 A 
HETATM   21  C12 UNK     1      19.673  -6.153  12.577  1.00  0.00     0.075 A 
HETATM   22  C7  UNK     1      19.472  -4.869  13.084  1.00  0.00     0.097 A 
BRANCH  20  23
HETATM   23  N2  UNK     1      20.649  -8.379  12.771  1.00  0.00    -0.116 N 
HETATM   24  O5  UNK     1      21.659  -9.026  13.139  1.00  0.00    -0.532 OA
HETATM   25  O6  UNK     1      19.815  -8.849  11.960  1.00  0.00    -0.532 OA
ENDBRANCH  20  23
BRANCH  22  26
HETATM   26  O2  UNK     1      18.716  -3.986  12.373  1.00  0.00    -0.354 OA
HETATM   27  C17 UNK     1      19.248  -3.532  11.131  1.00  0.00     0.210 C 
ENDBRANCH  22  26
ENDBRANCH   2  17
TORSDOF 4
ENDMDL
MODEL 6
REMARK VINA RESULT:      -8.7     18.377     20.878
REMARK  4 active torsions:
REMARK  status: ('A' for Active; 'I' for Inactive)
REMARK    1  A    between atoms: C7_16  and  O2_3 
REMARK    2  A    between atoms: C4_13  and  N1_8 
REMARK       I    between atoms: C6_15  and  N1_8 
REMARK    3  A    between atoms: C13_22  and  N2_9 
REMARK    4  A    between atoms: C2_11  and  C6_15 
ROOT
HETATM    1  O3  UNK     1      20.957  -4.211  37.950  1.00  0.00    -0.267 OA
HETATM    2  N1  UNK     1      19.073  -4.033  36.547  1.00  0.00    -0.320 N 
HETATM    3  C6  UNK     1      20.070  -4.695  37.251  1.00  0.00     0.262 C 
HETATM    4  H2  UNK     1      18.423  -4.583  35.991  1.00  0.00     0.169 HD
ENDROOT
BRANCH   3   5
HETATM    5  C2  UNK     1      19.986  -6.151  37.087  1.00  0.00     0.108 A 
HETATM    6  C9  UNK     1      18.698  -6.878  37.168  1.00  0.00     0.304 A 
HETATM    7  O1  UNK     1      18.746  -8.258  36.996  1.00  0.00    -0.274 OA
HETATM    8  O4  UNK     1      17.638  -6.296  37.377  1.00  0.00    -0.259 OA
HETATM    9  C3  UNK     1      19.959  -8.934  36.755  1.00  0.00     0.089 A 
HETATM   10  C1  UNK     1      21.157  -8.232  36.682  1.00  0.00     0.001 A 
HETATM   11  C11 UNK     1      19.907 -10.317  36.594  1.00  0.00     0.040 A 
HETATM   12  C5  UNK     1      21.139  -6.788  36.859  1.00  0.00     0.037 A 
HETATM   13  C8  UNK     1      22.338  -8.939  36.442  1.00  0.00     0.038 A 
HETATM   14  C15 UNK     1      22.303 -10.327  36.279  1.00  0.00     0.035 A 
HETATM   15 Cl1  UNK     1      23.761 -11.194  35.983  1.00  0.00    -0.084 Cl
HETATM   16  C16 UNK     1      21.090 -11.014  36.356  1.00  0.00     0.026 A 
ENDBRANCH   3   5
BRANCH   2  17
HETATM   17  C4  UNK     1      18.859  -2.650  36.483  1.00  0.00     0.068 A 
HETATM   18  C10 UNK     1      17.870  -2.077  37.279  1.00  0.00     0.035 A 
HETATM   19  C14 UNK     1      17.646  -0.700  37.225  1.00  0.00     0.038 A 
HETATM   20  C13 UNK     1      18.413   0.098  36.377  1.00  0.00     0.105 A 
HETATM   21  C12 UNK     1      19.403  -0.479  35.582  1.00  0.00     0.075 A 
HETATM   22  C7  UNK     1      19.626  -1.855  35.635  1.00  0.00     0.097 A 
BRANCH  20  23
HETATM   23  N2  UNK     1      18.185   1.499  36.323  1.00  0.00    -0.116 N 
HETATM   24  O5  UNK     1      19.006   2.225  35.712  1.00  0.00    -0.532 OA
HETATM   25  O6  UNK     1      17.169   1.971  36.887  1.00  0.00    -0.532 OA
ENDBRANCH  20  23
BRANCH  22  26
HETATM   26  O2  UNK     1      20.598  -2.400  34.849  1.00  0.00    -0.354 OA
HETATM   27  C17 UNK     1      20.354  -2.429  33.445  1.00  0.00     0.210 C 
ENDBRANCH  22  26
ENDBRANCH   2  17
TORSDOF 4
ENDMDL
MODEL 7
REMARK VINA RESULT:      -8.5     18.793     21.507
REMARK  4 active torsions:
REMARK  status: ('A' for Active; 'I' for Inactive)
REMARK    1  A    between atoms: C7_16  and  O2_3 
REMARK    2  A    between atoms: C4_13  and  N1_8 
REMARK       I    between atoms: C6_15  and  N1_8 
REMARK    3  A    between atoms: C13_22  and  N2_9 
REMARK    4  A    between atoms: C2_11  and  C6_15 
ROOT
HETATM    1  O3  UNK     1      21.330  -4.250  37.088  1.00  0.00    -0.267 OA
HETATM    2  N1  UNK     1      19.846  -5.401  35.665  1.00  0.00    -0.320 N 
HETATM    3  C6  UNK     1      20.438  -4.286  36.243  1.00  0.00     0.262 C 
HETATM    4  H2  UNK     1      19.098  -5.260  34.991  1.00  0.00     0.169 HD
ENDROOT
BRANCH   3   5
HETATM    5  C2  UNK     1      19.874  -3.033  35.726  1.00  0.00     0.108 A 
HETATM    6  C9  UNK     1      20.133  -2.566  34.345  1.00  0.00     0.304 A 
HETATM    7  O1  UNK     1      19.542  -1.361  33.972  1.00  0.00    -0.274 OA
HETATM    8  O4  UNK     1      20.831  -3.204  33.565  1.00  0.00    -0.259 OA
HETATM    9  C3  UNK     1      18.738  -0.623  34.861  1.00  0.00     0.089 A 
HETATM   10  C1  UNK     1      18.508  -1.080  36.154  1.00  0.00     0.001 A 
HETATM   11  C11 UNK     1      18.188   0.571  34.396  1.00  0.00     0.040 A 
HETATM   12  C5  UNK     1      19.112  -2.335  36.575  1.00  0.00     0.037 A 
HETATM   13  C8  UNK     1      17.704  -0.318  37.006  1.00  0.00     0.038 A 
HETATM   14  C15 UNK     1      17.146   0.882  36.554  1.00  0.00     0.035 A 
HETATM   15 Cl1  UNK     1      16.156   1.818  37.607  1.00  0.00    -0.084 Cl
HETATM   16  C16 UNK     1      17.389   1.325  35.252  1.00  0.00     0.026 A 
ENDBRANCH   3   5
BRANCH   2  17
HETATM   17  C4  UNK     1      20.142  -6.746  35.925  1.00  0.00     0.068 A 
HETATM   18  C10 UNK     1      20.736  -7.516  34.928  1.00  0.00     0.035 A 
HETATM   19  C14 UNK     1      21.037  -8.857  35.173  1.00  0.00     0.038 A 
HETATM   20  C13 UNK     1      20.743  -9.422  36.414  1.00  0.00     0.105 A 
HETATM   21  C12 UNK     1      20.148  -8.647  37.409  1.00  0.00     0.075 A 
HETATM   22  C7  UNK     1      19.847  -7.307  37.164  1.00  0.00     0.097 A 
BRANCH  20  23
HETATM   23  N2  UNK     1      21.048 -10.786  36.662  1.00  0.00    -0.116 N 
HETATM   24  O5  UNK     1      21.974 -11.330  36.012  1.00  0.00    -0.532 OA
HETATM   25  O6  UNK     1      20.384 -11.411  37.524  1.00  0.00    -0.532 OA
ENDBRANCH  20  23
BRANCH  22  26
HETATM   26  O2  UNK     1      19.265  -6.568  38.150  1.00  0.00    -0.354 OA
HETATM   27  C17 UNK     1      19.941  -6.515  39.404  1.00  0.00     0.210 C 
ENDBRANCH  22  26
ENDBRANCH   2  17
TORSDOF 4
ENDMDL
MODEL 8
REMARK VINA RESULT:      -8.5     18.578     21.195
REMARK  4 active torsions:
REMARK  status: ('A' for Active; 'I' for Inactive)
REMARK    1  A    between atoms: C7_16  and  O2_3 
REMARK    2  A    between atoms: C4_13  and  N1_8 
REMARK       I    between atoms: C6_15  and  N1_8 
REMARK    3  A    between atoms: C13_22  and  N2_9 
REMARK    4  A    between atoms: C2_11  and  C6_15 
ROOT
HETATM    1  O3  UNK     1      20.962  -4.100  37.916  1.00  0.00    -0.267 OA
HETATM    2  N1  UNK     1      19.099  -3.950  36.481  1.00  0.00    -0.320 N 
HETATM    3  C6  UNK     1      20.098  -4.597  37.197  1.00  0.00     0.262 C 
HETATM    4  H2  UNK     1      18.472  -4.509  35.909  1.00  0.00     0.169 HD
ENDROOT
BRANCH   3   5
HETATM    5  C2  UNK     1      20.049  -6.053  37.019  1.00  0.00     0.108 A 
HETATM    6  C9  UNK     1      20.220  -6.689  35.692  1.00  0.00     0.304 A 
HETATM    7  O1  UNK     1      20.152  -8.079  35.651  1.00  0.00    -0.274 OA
HETATM    8  O4  UNK     1      20.412  -6.028  34.677  1.00  0.00    -0.259 OA
HETATM    9  C3  UNK     1      19.933  -8.845  36.812  1.00  0.00     0.089 A 
HETATM   10  C1  UNK     1      19.775  -8.228  38.049  1.00  0.00     0.001 A 
HETATM   11  C11 UNK     1      19.883 -10.231  36.672  1.00  0.00     0.040 A 
HETATM   12  C5  UNK     1      19.840  -6.776  38.124  1.00  0.00     0.037 A 
HETATM   13  C8  UNK     1      19.559  -9.023  39.177  1.00  0.00     0.038 A 
HETATM   14  C15 UNK     1      19.505 -10.415  39.052  1.00  0.00     0.035 A 
HETATM   15 Cl1  UNK     1      19.240 -11.392  40.445  1.00  0.00    -0.084 Cl
HETATM   16  C16 UNK     1      19.667 -11.017  37.802  1.00  0.00     0.026 A 
ENDBRANCH   3   5
BRANCH   2  17
HETATM   17  C4  UNK     1      18.857  -2.571  36.425  1.00  0.00     0.068 A 
HETATM   18  C10 UNK     1      17.833  -2.029  37.198  1.00  0.00     0.035 A 
HETATM   19  C14 UNK     1      17.581  -0.657  37.152  1.00  0.00     0.038 A 
HETATM   20  C13 UNK     1      18.353   0.167  36.333  1.00  0.00     0.105 A 
HETATM   21  C12 UNK     1      19.377  -0.380  35.561  1.00  0.00     0.075 A 
HETATM   22  C7  UNK     1      19.630  -1.751  35.606  1.00  0.00     0.097 A 
BRANCH  20  23
HETATM   23  N2  UNK     1      18.095   1.563  36.287  1.00  0.00    -0.116 N 
HETATM   24  O5  UNK     1      17.174   2.034  36.996  1.00  0.00    -0.532 OA
HETATM   25  O6  UNK     1      18.795   2.285  35.537  1.00  0.00    -0.532 OA
ENDBRANCH  20  23
BRANCH  22  26
HETATM   26  O2  UNK     1      20.634  -2.266  34.843  1.00  0.00    -0.354 OA
HETATM   27  C17 UNK     1      20.369  -2.435  33.452  1.00  0.00     0.210 C 
ENDBRANCH  22  26
ENDBRANCH   2  17
TORSDOF 4
ENDMDL
MODEL 9
REMARK VINA RESULT:      -8.4     13.903     18.717
REMARK  4 active torsions:
REMARK  status: ('A' for Active; 'I' for Inactive)
REMARK    1  A    between atoms: C7_16  and  O2_3 
REMARK    2  A    between atoms: C4_13  and  N1_8 
REMARK       I    between atoms: C6_15  and  N1_8 
REMARK    3  A    between atoms: C13_22  and  N2_9 
REMARK    4  A    between atoms: C2_11  and  C6_15 
ROOT
HETATM    1  O3  UNK     1      19.026   5.518  30.431  1.00  0.00    -0.267 OA
HETATM    2  N1  UNK     1      18.011   3.743  31.602  1.00  0.00    -0.320 N 
HETATM    3  C6  UNK     1      18.338   5.068  31.345  1.00  0.00     0.262 C 
HETATM    4  H2  UNK     1      17.446   3.532  32.420  1.00  0.00     0.169 HD
ENDROOT
BRANCH   3   5
HETATM    5  C2  UNK     1      17.750   5.982  32.332  1.00  0.00     0.108 A 
HETATM    6  C9  UNK     1      18.022   5.852  33.782  1.00  0.00     0.304 A 
HETATM    7  O1  UNK     1      17.407   6.779  34.619  1.00  0.00    -0.274 OA
HETATM    8  O4  UNK     1      18.753   4.974  34.228  1.00  0.00    -0.259 OA
HETATM    9  C3  UNK     1      16.567   7.791  34.115  1.00  0.00     0.089 A 
HETATM   10  C1  UNK     1      16.326   7.895  32.749  1.00  0.00     0.001 A 
HETATM   11  C11 UNK     1      15.997   8.674  35.030  1.00  0.00     0.040 A 
HETATM   12  C5  UNK     1      16.954   6.941  31.848  1.00  0.00     0.037 A 
HETATM   13  C8  UNK     1      15.487   8.913  32.289  1.00  0.00     0.038 A 
HETATM   14  C15 UNK     1      14.907   9.806  33.195  1.00  0.00     0.035 A 
HETATM   15 Cl1  UNK     1      13.874  11.059  32.623  1.00  0.00    -0.084 Cl
HETATM   16  C16 UNK     1      15.161   9.686  34.563  1.00  0.00     0.026 A 
ENDBRANCH   3   5
BRANCH   2  17
HETATM   17  C4  UNK     1      18.400   2.618  30.864  1.00  0.00     0.068 A 
HETATM   18  C10 UNK     1      18.265   2.634  29.477  1.00  0.00     0.035 A 
HETATM   19  C14 UNK     1      18.649   1.520  28.729  1.00  0.00     0.038 A 
HETATM   20  C13 UNK     1      19.167   0.395  29.370  1.00  0.00     0.105 A 
HETATM   21  C12 UNK     1      19.300   0.383  30.758  1.00  0.00     0.075 A 
HETATM   22  C7  UNK     1      18.917   1.496  31.506  1.00  0.00     0.097 A 
BRANCH  20  23
HETATM   23  N2  UNK     1      19.557  -0.739  28.608  1.00  0.00    -0.116 N 
HETATM   24  O5  UNK     1      20.322  -1.586  29.128  1.00  0.00    -0.532 OA
HETATM   25  O6  UNK     1      19.126  -0.860  27.436  1.00  0.00    -0.532 OA
ENDBRANCH  20  23
BRANCH  22  26
HETATM   26  O2  UNK     1      19.055   1.463  32.862  1.00  0.00    -0.354 OA
HETATM   27  C17 UNK     1      18.317   0.466  33.564  1.00  0.00     0.210 C 
ENDBRANCH  22  26
ENDBRANCH   2  17
TORSDOF 4
ENDMDL
MODEL 10
REMARK VINA RESULT:      -8.4      4.018      8.839
REMARK  4 active torsions:
REMARK  status: ('A' for Active; 'I' for Inactive)
REMARK    1  A    between atoms: C7_16  and  O2_3 
REMARK    2  A    between atoms: C4_13  and  N1_8 
REMARK       I    between atoms: C6_15  and  N1_8 
REMARK    3  A    between atoms: C13_22  and  N2_9 
REMARK    4  A    between atoms: C2_11  and  C6_15 
ROOT
HETATM    1  O3  UNK     1      20.322  -3.618  15.964  1.00  0.00    -0.267 OA
HETATM    2  N1  UNK     1      18.468  -3.300  14.545  1.00  0.00    -0.320 N 
HETATM    3  C6  UNK     1      19.436  -2.925  15.468  1.00  0.00     0.262 C 
HETATM    4  H2  UNK     1      17.786  -2.607  14.248  1.00  0.00     0.169 HD
ENDROOT
BRANCH   3   5
HETATM    5  C2  UNK     1      19.320  -1.512  15.845  1.00  0.00     0.108 A 
HETATM    6  C9  UNK     1      19.281  -0.430  14.834  1.00  0.00     0.304 A 
HETATM    7  O1  UNK     1      19.170   0.872  15.316  1.00  0.00    -0.274 OA
HETATM    8  O4  UNK     1      19.344  -0.663  13.632  1.00  0.00    -0.259 OA
HETATM    9  C3  UNK     1      19.096   1.149  16.695  1.00  0.00     0.089 A 
HETATM   10  C1  UNK     1      19.134   0.118  17.627  1.00  0.00     0.001 A 
HETATM   11  C11 UNK     1      18.983   2.484  17.081  1.00  0.00     0.040 A 
HETATM   12  C5  UNK     1      19.251  -1.254  17.155  1.00  0.00     0.037 A 
HETATM   13  C8  UNK     1      19.058   0.434  18.986  1.00  0.00     0.038 A 
HETATM   14  C15 UNK     1      18.946   1.768  19.389  1.00  0.00     0.035 A 
HETATM   15 Cl1  UNK     1      18.853   2.153  21.064  1.00  0.00    -0.084 Cl
HETATM   16  C16 UNK     1      18.909   2.790  18.438  1.00  0.00     0.026 A 
ENDBRANCH   3   5
BRANCH   2  17
HETATM   17  C4  UNK     1      18.289  -4.567  13.974  1.00  0.00     0.068 A 
HETATM   18  C10 UNK     1      18.840  -4.832  12.723  1.00  0.00     0.035 A 
HETATM   19  C14 UNK     1      18.670  -6.089  12.142  1.00  0.00     0.038 A 
HETATM   20  C13 UNK     1      17.951  -7.077  12.814  1.00  0.00     0.105 A 
HETATM   21  C12 UNK     1      17.401  -6.807  14.067  1.00  0.00     0.075 A 
HETATM   22  C7  UNK     1      17.570  -5.551  14.648  1.00  0.00     0.097 A 
BRANCH  20  23
HETATM   23  N2  UNK     1      17.778  -8.356  12.222  1.00  0.00    -0.116 N 
HETATM   24  O5  UNK     1      17.010  -8.471  11.237  1.00  0.00    -0.532 OA
HETATM   25  O6  UNK     1      18.398  -9.336  12.701  1.00  0.00    -0.532 OA
ENDBRANCH  20  23
BRANCH  22  26
HETATM   26  O2  UNK     1      17.024  -5.307  15.873  1.00  0.00    -0.354 OA
HETATM   27  C17 UNK     1      16.649  -6.441  16.651  1.00  0.00     0.210 C 
ENDBRANCH  22  26
ENDBRANCH   2  17
TORSDOF 4
ENDMDL
