MODEL 1
REMARK VINA RESULT:      -8.0      0.000      0.000
REMARK  4 active torsions:
REMARK  status: ('A' for Active; 'I' for Inactive)
REMARK    1  A    between atoms: C5_12  and  N1_5 
REMARK    2  A    between atoms: N1_5  and  N2_6 
REMARK    3  A    between atoms: C12_19  and  N2_6 
REMARK    4  A    between atoms: C12_19  and  N3_7 
ROOT
HETATM    1  O1  UNK     1      20.169  -2.629  35.120  1.00  0.00    -0.274 OA
HETATM    2  O2  UNK     1      17.650   0.151  33.455  1.00  0.00    -0.286 OA
HETATM    3  O3  UNK     1      21.104  -3.120  33.097  1.00  0.00    -0.259 OA
HETATM    4  C1  UNK     1      19.383  -1.464  33.154  1.00  0.00     0.114 A 
HETATM    5  C2  UNK     1      18.390  -0.961  35.385  1.00  0.00     0.049 A 
HETATM    6  C3  UNK     1      18.405  -0.679  33.944  1.00  0.00     0.203 A 
HETATM    7  C4  UNK     1      19.256  -1.910  35.915  1.00  0.00     0.093 A 
HETATM    8  C5  UNK     1      19.446  -1.253  31.832  1.00  0.00     0.042 C 
HETATM    9  C6  UNK     1      20.294  -2.467  33.745  1.00  0.00     0.304 A 
HETATM   10  C7  UNK     1      17.510  -0.283  36.232  1.00  0.00     0.018 A 
HETATM   11  C8  UNK     1      19.260  -2.194  37.280  1.00  0.00     0.038 A 
HETATM   12  C9  UNK     1      20.419  -2.020  30.979  1.00  0.00     0.071 C 
HETATM   13  C10 UNK     1      17.508  -0.563  37.601  1.00  0.00     0.001 A 
HETATM   14  C11 UNK     1      18.381  -1.517  38.124  1.00  0.00     0.003 A 
ENDROOT
BRANCH   8  15
HETATM   15  N1  UNK     1      18.655  -0.353  31.172  1.00  0.00    -0.302 N 
HETATM   16  H6  UNK     1      18.097  -0.687  30.394  1.00  0.00     0.186 HD
BRANCH  15  17
HETATM   17  N2  UNK     1      19.197   0.875  30.952  1.00  0.00    -0.276 N 
HETATM   18  H9  UNK     1      20.193   0.966  31.123  1.00  0.00     0.189 HD
BRANCH  17  19
HETATM   19  C12 UNK     1      18.405   1.919  30.546  1.00  0.00     0.184 C 
HETATM   20  S1  UNK     1      18.137   2.227  28.925  1.00  0.00    -0.040 SA
BRANCH  19  21
HETATM   21  N3  UNK     1      17.842   2.696  31.521  1.00  0.00    -0.375 N 
HETATM   22  H10 UNK     1      16.914   2.502  31.883  1.00  0.00     0.158 HD
HETATM   23  H11 UNK     1      18.335   3.491  31.913  1.00  0.00     0.158 HD
ENDBRANCH  19  21
ENDBRANCH  17  19
ENDBRANCH  15  17
ENDBRANCH   8  15
TORSDOF 4
ENDMDL
MODEL 2
REMARK VINA RESULT:      -7.4      1.809      2.142
REMARK  4 active torsions:
REMARK  status: ('A' for Active; 'I' for Inactive)
REMARK    1  A    between atoms: C5_12  and  N1_5 
REMARK    2  A    between atoms: N1_5  and  N2_6 
REMARK    3  A    between atoms: C12_19  and  N2_6 
REMARK    4  A    between atoms: C12_19  and  N3_7 
ROOT
HETATM    1  O1  UNK     1      19.607  -1.628  33.469  1.00  0.00    -0.274 OA
HETATM    2  O2  UNK     1      17.692   1.982  33.085  1.00  0.00    -0.286 OA
HETATM    3  O3  UNK     1      20.273  -1.605  31.286  1.00  0.00    -0.259 OA
HETATM    4  C1  UNK     1      18.985   0.246  32.076  1.00  0.00     0.114 A 
HETATM    5  C2  UNK     1      18.279   0.177  34.466  1.00  0.00     0.049 A 
HETATM    6  C3  UNK     1      18.267   0.906  33.191  1.00  0.00     0.203 A 
HETATM    7  C4  UNK     1      18.937  -1.044  34.560  1.00  0.00     0.093 A 
HETATM    8  C5  UNK     1      19.010   0.861  30.885  1.00  0.00     0.042 C 
HETATM    9  C6  UNK     1      19.678  -1.054  32.204  1.00  0.00     0.304 A 
HETATM   10  C7  UNK     1      17.635   0.700  35.590  1.00  0.00     0.018 A 
HETATM   11  C8  UNK     1      18.963  -1.754  35.759  1.00  0.00     0.038 A 
HETATM   12  C9  UNK     1      19.724   0.239  29.717  1.00  0.00     0.071 C 
HETATM   13  C10 UNK     1      17.656  -0.007  36.795  1.00  0.00     0.001 A 
HETATM   14  C11 UNK     1      18.319  -1.231  36.880  1.00  0.00     0.003 A 
ENDROOT
BRANCH   8  15
HETATM   15  N1  UNK     1      18.406   2.064  30.643  1.00  0.00    -0.302 N 
HETATM   16  H6  UNK     1      17.603   2.081  30.025  1.00  0.00     0.186 HD
BRANCH  15  17
HETATM   17  N2  UNK     1      19.236   3.128  30.470  1.00  0.00    -0.276 N 
HETATM   18  H9  UNK     1      20.147   2.931  30.070  1.00  0.00     0.189 HD
BRANCH  17  19
HETATM   19  C12 UNK     1      18.839   4.385  30.850  1.00  0.00     0.184 C 
HETATM   20  S1  UNK     1      19.538   5.754  30.193  1.00  0.00    -0.040 SA
BRANCH  19  21
HETATM   21  N3  UNK     1      17.846   4.473  31.788  1.00  0.00    -0.375 N 
HETATM   22  H10 UNK     1      17.740   3.774  32.514  1.00  0.00     0.158 HD
HETATM   23  H11 UNK     1      17.184   5.242  31.785  1.00  0.00     0.158 HD
ENDBRANCH  19  21
ENDBRANCH  17  19
ENDBRANCH  15  17
ENDBRANCH   8  15
TORSDOF 4
ENDMDL
MODEL 3
REMARK VINA RESULT:      -7.4      2.746      5.061
REMARK  4 active torsions:
REMARK  status: ('A' for Active; 'I' for Inactive)
REMARK    1  A    between atoms: C5_12  and  N1_5 
REMARK    2  A    between atoms: N1_5  and  N2_6 
REMARK    3  A    between atoms: C12_19  and  N2_6 
REMARK    4  A    between atoms: C12_19  and  N3_7 
ROOT
HETATM    1  O1  UNK     1      19.593  -1.656  32.982  1.00  0.00    -0.274 OA
HETATM    2  O2  UNK     1      18.468   2.028  31.564  1.00  0.00    -0.286 OA
HETATM    3  O3  UNK     1      18.820  -1.181  35.076  1.00  0.00    -0.259 OA
HETATM    4  C1  UNK     1      18.590   0.503  33.397  1.00  0.00     0.114 A 
HETATM    5  C2  UNK     1      19.448  -0.059  31.125  1.00  0.00     0.049 A 
HETATM    6  C3  UNK     1      18.799   0.931  31.994  1.00  0.00     0.203 A 
HETATM    7  C4  UNK     1      19.817  -1.297  31.639  1.00  0.00     0.093 A 
HETATM    8  C5  UNK     1      18.002   1.362  34.241  1.00  0.00     0.042 C 
HETATM    9  C6  UNK     1      18.991  -0.821  33.917  1.00  0.00     0.304 A 
HETATM   10  C7  UNK     1      19.699   0.231  29.781  1.00  0.00     0.018 A 
HETATM   11  C8  UNK     1      20.433  -2.253  30.833  1.00  0.00     0.038 A 
HETATM   12  C9  UNK     1      17.763   0.983  35.677  1.00  0.00     0.071 C 
HETATM   13  C10 UNK     1      20.317  -0.723  28.968  1.00  0.00     0.001 A 
HETATM   14  C11 UNK     1      20.684  -1.962  29.493  1.00  0.00     0.003 A 
ENDROOT
BRANCH   8  15
HETATM   15  N1  UNK     1      17.588   2.614  33.879  1.00  0.00    -0.302 N 
HETATM   16  H6  UNK     1      17.196   2.739  32.951  1.00  0.00     0.186 HD
BRANCH  15  17
HETATM   17  N2  UNK     1      18.385   3.646  34.266  1.00  0.00    -0.276 N 
HETATM   18  H9  UNK     1      18.914   3.512  35.121  1.00  0.00     0.189 HD
BRANCH  17  19
HETATM   19  C12 UNK     1      18.428   4.802  33.529  1.00  0.00     0.184 C 
HETATM   20  S1  UNK     1      19.523   6.017  33.880  1.00  0.00    -0.040 SA
BRANCH  19  21
HETATM   21  N3  UNK     1      17.542   4.920  32.493  1.00  0.00    -0.375 N 
HETATM   22  H10 UNK     1      16.546   5.015  32.657  1.00  0.00     0.158 HD
HETATM   23  H11 UNK     1      17.854   4.917  31.528  1.00  0.00     0.158 HD
ENDBRANCH  19  21
ENDBRANCH  17  19
ENDBRANCH  15  17
ENDBRANCH   8  15
TORSDOF 4
ENDMDL
MODEL 4
REMARK VINA RESULT:      -7.4      2.250      3.856
REMARK  4 active torsions:
REMARK  status: ('A' for Active; 'I' for Inactive)
REMARK    1  A    between atoms: C5_12  and  N1_5 
REMARK    2  A    between atoms: N1_5  and  N2_6 
REMARK    3  A    between atoms: C12_19  and  N2_6 
REMARK    4  A    between atoms: C12_19  and  N3_7 
ROOT
HETATM    1  O1  UNK     1      18.058   2.813  35.511  1.00  0.00    -0.274 OA
HETATM    2  O2  UNK     1      18.274  -0.277  32.818  1.00  0.00    -0.286 OA
HETATM    3  O3  UNK     1      18.243   4.379  33.861  1.00  0.00    -0.259 OA
HETATM    4  C1  UNK     1      18.270   2.077  33.219  1.00  0.00     0.114 A 
HETATM    5  C2  UNK     1      18.066   0.403  35.055  1.00  0.00     0.049 A 
HETATM    6  C3  UNK     1      18.209   0.650  33.615  1.00  0.00     0.203 A 
HETATM    7  C4  UNK     1      17.997   1.474  35.939  1.00  0.00     0.093 A 
HETATM    8  C5  UNK     1      18.400   2.369  31.918  1.00  0.00     0.042 C 
HETATM    9  C6  UNK     1      18.193   3.197  34.182  1.00  0.00     0.304 A 
HETATM   10  C7  UNK     1      17.998  -0.903  35.549  1.00  0.00     0.018 A 
HETATM   11  C8  UNK     1      17.861   1.264  37.311  1.00  0.00     0.038 A 
HETATM   12  C9  UNK     1      18.467   3.799  31.457  1.00  0.00     0.071 C 
HETATM   13  C10 UNK     1      17.862  -1.120  36.922  1.00  0.00     0.001 A 
HETATM   14  C11 UNK     1      17.794  -0.040  37.801  1.00  0.00     0.003 A 
ENDROOT
BRANCH   8  15
HETATM   15  N1  UNK     1      18.482   1.422  30.935  1.00  0.00    -0.302 N 
HETATM   16  H6  UNK     1      17.982   0.549  31.068  1.00  0.00     0.186 HD
BRANCH  15  17
HETATM   17  N2  UNK     1      19.704   1.256  30.361  1.00  0.00    -0.276 N 
HETATM   18  H9  UNK     1      20.173   2.098  30.046  1.00  0.00     0.189 HD
BRANCH  17  19
HETATM   19  C12 UNK     1      20.234  -0.000  30.211  1.00  0.00     0.184 C 
HETATM   20  S1  UNK     1      20.155  -0.808  28.749  1.00  0.00    -0.040 SA
BRANCH  19  21
HETATM   21  N3  UNK     1      20.833  -0.565  31.304  1.00  0.00    -0.375 N 
HETATM   22  H10 UNK     1      21.710  -0.210  31.670  1.00  0.00     0.158 HD
HETATM   23  H11 UNK     1      20.418  -1.356  31.784  1.00  0.00     0.158 HD
ENDBRANCH  19  21
ENDBRANCH  17  19
ENDBRANCH  15  17
ENDBRANCH   8  15
TORSDOF 4
ENDMDL
MODEL 5
REMARK VINA RESULT:      -7.4      4.056      6.580
REMARK  4 active torsions:
REMARK  status: ('A' for Active; 'I' for Inactive)
REMARK    1  A    between atoms: C5_12  and  N1_5 
REMARK    2  A    between atoms: N1_5  and  N2_6 
REMARK    3  A    between atoms: C12_19  and  N2_6 
REMARK    4  A    between atoms: C12_19  and  N3_7 
ROOT
HETATM    1  O1  UNK     1      18.474   0.221  33.041  1.00  0.00    -0.274 OA
HETATM    2  O2  UNK     1      20.514  -3.237  33.889  1.00  0.00    -0.286 OA
HETATM    3  O3  UNK     1      17.696   0.389  35.180  1.00  0.00    -0.259 OA
HETATM    4  C1  UNK     1      19.100  -1.470  34.649  1.00  0.00     0.114 A 
HETATM    5  C2  UNK     1      19.926  -1.612  32.301  1.00  0.00     0.049 A 
HETATM    6  C3  UNK     1      19.904  -2.205  33.644  1.00  0.00     0.203 A 
HETATM    7  C4  UNK     1      19.223  -0.440  32.049  1.00  0.00     0.093 A 
HETATM    8  C5  UNK     1      19.040  -1.960  35.895  1.00  0.00     0.042 C 
HETATM    9  C6  UNK     1      18.362  -0.224  34.353  1.00  0.00     0.304 A 
HETATM   10  C7  UNK     1      20.650  -2.216  31.270  1.00  0.00     0.018 A 
HETATM   11  C8  UNK     1      19.229   0.142  30.782  1.00  0.00     0.038 A 
HETATM   12  C9  UNK     1      18.240  -1.257  36.957  1.00  0.00     0.071 C 
HETATM   13  C10 UNK     1      20.660  -1.638  29.997  1.00  0.00     0.001 A 
HETATM   14  C11 UNK     1      19.951  -0.462  29.754  1.00  0.00     0.003 A 
ENDROOT
BRANCH   8  15
HETATM   15  N1  UNK     1      19.679  -3.104  36.289  1.00  0.00    -0.302 N 
HETATM   16  H6  UNK     1      20.552  -3.346  35.834  1.00  0.00     0.186 HD
BRANCH  15  17
HETATM   17  N2  UNK     1      18.885  -4.182  36.530  1.00  0.00    -0.276 N 
HETATM   18  H9  UNK     1      17.930  -3.986  36.810  1.00  0.00     0.189 HD
BRANCH  17  19
HETATM   19  C12 UNK     1      19.389  -5.453  36.416  1.00  0.00     0.184 C 
HETATM   20  S1  UNK     1      19.586  -6.434  37.755  1.00  0.00    -0.040 SA
BRANCH  19  21
HETATM   21  N3  UNK     1      19.721  -5.886  35.160  1.00  0.00    -0.375 N 
HETATM   22  H10 UNK     1      20.526  -5.515  34.668  1.00  0.00     0.158 HD
HETATM   23  H11 UNK     1      19.172  -6.592  34.683  1.00  0.00     0.158 HD
ENDBRANCH  19  21
ENDBRANCH  17  19
ENDBRANCH  15  17
ENDBRANCH   8  15
TORSDOF 4
ENDMDL
MODEL 6
REMARK VINA RESULT:      -7.3      3.646      6.415
REMARK  4 active torsions:
REMARK  status: ('A' for Active; 'I' for Inactive)
REMARK    1  A    between atoms: C5_12  and  N1_5 
REMARK    2  A    between atoms: N1_5  and  N2_6 
REMARK    3  A    between atoms: C12_19  and  N2_6 
REMARK    4  A    between atoms: C12_19  and  N3_7 
ROOT
HETATM    1  O1  UNK     1      18.669   1.316  31.563  1.00  0.00    -0.274 OA
HETATM    2  O2  UNK     1      19.473  -2.343  33.241  1.00  0.00    -0.286 OA
HETATM    3  O3  UNK     1      17.624   2.050  33.454  1.00  0.00    -0.259 OA
HETATM    4  C1  UNK     1      18.512  -0.168  33.463  1.00  0.00     0.114 A 
HETATM    5  C2  UNK     1      19.644  -0.927  31.376  1.00  0.00     0.049 A 
HETATM    6  C3  UNK     1      19.231  -1.249  32.748  1.00  0.00     0.203 A 
HETATM    7  C4  UNK     1      19.355   0.322  30.840  1.00  0.00     0.093 A 
HETATM    8  C5  UNK     1      18.107  -0.400  34.720  1.00  0.00     0.042 C 
HETATM    9  C6  UNK     1      18.218   1.152  32.868  1.00  0.00     0.304 A 
HETATM   10  C7  UNK     1      20.330  -1.867  30.602  1.00  0.00     0.018 A 
HETATM   11  C8  UNK     1      19.738   0.651  29.540  1.00  0.00     0.038 A 
HETATM   12  C9  UNK     1      17.373   0.659  35.496  1.00  0.00     0.071 C 
HETATM   13  C10 UNK     1      20.716  -1.545  29.298  1.00  0.00     0.001 A 
HETATM   14  C11 UNK     1      20.421  -0.289  28.769  1.00  0.00     0.003 A 
ENDROOT
BRANCH   8  15
HETATM   15  N1  UNK     1      18.320  -1.581  35.377  1.00  0.00    -0.302 N 
HETATM   16  H6  UNK     1      17.522  -2.045  35.798  1.00  0.00     0.186 HD
BRANCH  15  17
HETATM   17  N2  UNK     1      19.442  -1.648  36.143  1.00  0.00    -0.276 N 
HETATM   18  H9  UNK     1      20.236  -1.099  35.831  1.00  0.00     0.189 HD
BRANCH  17  19
HETATM   19  C12 UNK     1      19.473  -2.446  37.258  1.00  0.00     0.184 C 
HETATM   20  S1  UNK     1      20.445  -3.805  37.329  1.00  0.00    -0.040 SA
BRANCH  19  21
HETATM   21  N3  UNK     1      18.677  -2.084  38.312  1.00  0.00    -0.375 N 
HETATM   22  H10 UNK     1      18.595  -2.667  39.137  1.00  0.00     0.158 HD
HETATM   23  H11 UNK     1      18.145  -1.221  38.299  1.00  0.00     0.158 HD
ENDBRANCH  19  21
ENDBRANCH  17  19
ENDBRANCH  15  17
ENDBRANCH   8  15
TORSDOF 4
ENDMDL
MODEL 7
REMARK VINA RESULT:      -7.2      3.000      5.334
REMARK  4 active torsions:
REMARK  status: ('A' for Active; 'I' for Inactive)
REMARK    1  A    between atoms: C5_12  and  N1_5 
REMARK    2  A    between atoms: N1_5  and  N2_6 
REMARK    3  A    between atoms: C12_19  and  N2_6 
REMARK    4  A    between atoms: C12_19  and  N3_7 
ROOT
HETATM    1  O1  UNK     1      20.667  -2.430  31.627  1.00  0.00    -0.274 OA
HETATM    2  O2  UNK     1      18.305   0.584  33.106  1.00  0.00    -0.286 OA
HETATM    3  O3  UNK     1      20.778  -3.458  33.661  1.00  0.00    -0.259 OA
HETATM    4  C1  UNK     1      19.510  -1.440  33.503  1.00  0.00     0.114 A 
HETATM    5  C2  UNK     1      19.417  -0.351  31.262  1.00  0.00     0.049 A 
HETATM    6  C3  UNK     1      19.008  -0.319  32.672  1.00  0.00     0.203 A 
HETATM    7  C4  UNK     1      20.218  -1.387  30.795  1.00  0.00     0.093 A 
HETATM    8  C5  UNK     1      19.172  -1.468  34.800  1.00  0.00     0.042 C 
HETATM    9  C6  UNK     1      20.361  -2.529  32.980  1.00  0.00     0.304 A 
HETATM   10  C7  UNK     1      19.006   0.653  30.381  1.00  0.00     0.018 A 
HETATM   11  C8  UNK     1      20.618  -1.439  29.461  1.00  0.00     0.038 A 
HETATM   12  C9  UNK     1      19.650  -2.580  35.692  1.00  0.00     0.071 C 
HETATM   13  C10 UNK     1      19.404   0.607  29.042  1.00  0.00     0.001 A 
HETATM   14  C11 UNK     1      20.208  -0.436  28.583  1.00  0.00     0.003 A 
ENDROOT
BRANCH   8  15
HETATM   15  N1  UNK     1      18.392  -0.517  35.399  1.00  0.00    -0.302 N 
HETATM   16  H6  UNK     1      17.518  -0.263  34.951  1.00  0.00     0.186 HD
BRANCH  15  17
HETATM   17  N2  UNK     1      19.047   0.547  35.934  1.00  0.00    -0.276 N 
HETATM   18  H9  UNK     1      20.054   0.459  36.024  1.00  0.00     0.189 HD
BRANCH  17  19
HETATM   19  C12 UNK     1      18.350   1.655  36.344  1.00  0.00     0.184 C 
HETATM   20  S1  UNK     1      17.338   1.604  37.673  1.00  0.00    -0.040 SA
BRANCH  19  21
HETATM   21  N3  UNK     1      18.519   2.806  35.622  1.00  0.00    -0.375 N 
HETATM   22  H10 UNK     1      18.943   2.795  34.700  1.00  0.00     0.158 HD
HETATM   23  H11 UNK     1      18.226   3.706  35.986  1.00  0.00     0.158 HD
ENDBRANCH  19  21
ENDBRANCH  17  19
ENDBRANCH  15  17
ENDBRANCH   8  15
TORSDOF 4
ENDMDL
MODEL 8
REMARK VINA RESULT:      -7.2      4.199      6.374
REMARK  4 active torsions:
REMARK  status: ('A' for Active; 'I' for Inactive)
REMARK    1  A    between atoms: C5_12  and  N1_5 
REMARK    2  A    between atoms: N1_5  and  N2_6 
REMARK    3  A    between atoms: C12_19  and  N2_6 
REMARK    4  A    between atoms: C12_19  and  N3_7 
ROOT
HETATM    1  O1  UNK     1      18.460   4.829  30.002  1.00  0.00    -0.274 OA
HETATM    2  O2  UNK     1      18.374   1.926  32.903  1.00  0.00    -0.286 OA
HETATM    3  O3  UNK     1      18.674   3.281  28.338  1.00  0.00    -0.259 OA
HETATM    4  C1  UNK     1      18.532   2.485  30.587  1.00  0.00     0.114 A 
HETATM    5  C2  UNK     1      18.299   4.211  32.370  1.00  0.00     0.049 A 
HETATM    6  C3  UNK     1      18.399   2.786  32.032  1.00  0.00     0.203 A 
HETATM    7  C4  UNK     1      18.333   5.167  31.362  1.00  0.00     0.093 A 
HETATM    8  C5  UNK     1      18.628   1.202  30.212  1.00  0.00     0.042 C 
HETATM    9  C6  UNK     1      18.564   3.523  29.535  1.00  0.00     0.304 A 
HETATM   10  C7  UNK     1      18.171   4.618  33.701  1.00  0.00     0.018 A 
HETATM   11  C8  UNK     1      18.239   6.526  31.659  1.00  0.00     0.038 A 
HETATM   12  C9  UNK     1      18.765   0.836  28.760  1.00  0.00     0.071 C 
HETATM   13  C10 UNK     1      18.077   5.978  34.006  1.00  0.00     0.001 A 
HETATM   14  C11 UNK     1      18.112   6.930  32.988  1.00  0.00     0.003 A 
ENDROOT
BRANCH   8  15
HETATM   15  N1  UNK     1      18.611   0.154  31.092  1.00  0.00    -0.302 N 
HETATM   16  H6  UNK     1      17.926   0.167  31.839  1.00  0.00     0.186 HD
BRANCH  15  17
HETATM   17  N2  UNK     1      19.824  -0.317  31.487  1.00  0.00    -0.276 N 
HETATM   18  H9  UNK     1      20.483   0.370  31.838  1.00  0.00     0.189 HD
BRANCH  17  19
HETATM   19  C12 UNK     1      20.117  -1.653  31.381  1.00  0.00     0.184 C 
HETATM   20  S1  UNK     1      20.816  -2.494  32.646  1.00  0.00    -0.040 SA
BRANCH  19  21
HETATM   21  N3  UNK     1      19.812  -2.270  30.198  1.00  0.00    -0.375 N 
HETATM   22  H10 UNK     1      19.427  -3.208  30.174  1.00  0.00     0.158 HD
HETATM   23  H11 UNK     1      19.961  -1.809  29.307  1.00  0.00     0.158 HD
ENDBRANCH  19  21
ENDBRANCH  17  19
ENDBRANCH  15  17
ENDBRANCH   8  15
TORSDOF 4
ENDMDL
MODEL 9
REMARK VINA RESULT:      -7.1      3.393      5.782
REMARK  4 active torsions:
REMARK  status: ('A' for Active; 'I' for Inactive)
REMARK    1  A    between atoms: C5_12  and  N1_5 
REMARK    2  A    between atoms: N1_5  and  N2_6 
REMARK    3  A    between atoms: C12_19  and  N2_6 
REMARK    4  A    between atoms: C12_19  and  N3_7 
ROOT
HETATM    1  O1  UNK     1      19.525   1.819  29.688  1.00  0.00    -0.274 OA
HETATM    2  O2  UNK     1      18.259   0.795  33.456  1.00  0.00    -0.286 OA
HETATM    3  O3  UNK     1      20.151  -0.326  29.222  1.00  0.00    -0.259 OA
HETATM    4  C1  UNK     1      19.214   0.117  31.375  1.00  0.00     0.114 A 
HETATM    5  C2  UNK     1      18.546   2.473  31.840  1.00  0.00     0.049 A 
HETATM    6  C3  UNK     1      18.637   1.092  32.330  1.00  0.00     0.203 A 
HETATM    7  C4  UNK     1      18.985   2.784  30.558  1.00  0.00     0.093 A 
HETATM    8  C5  UNK     1      19.325  -1.162  31.763  1.00  0.00     0.042 C 
HETATM    9  C6  UNK     1      19.673   0.476  30.016  1.00  0.00     0.304 A 
HETATM   10  C7  UNK     1      18.019   3.481  32.652  1.00  0.00     0.018 A 
HETATM   11  C8  UNK     1      18.908   4.088  30.071  1.00  0.00     0.038 A 
HETATM   12  C9  UNK     1      19.902  -2.196  30.836  1.00  0.00     0.071 C 
HETATM   13  C10 UNK     1      17.939   4.791  32.169  1.00  0.00     0.001 A 
HETATM   14  C11 UNK     1      18.383   5.093  30.882  1.00  0.00     0.003 A 
ENDROOT
BRANCH   8  15
HETATM   15  N1  UNK     1      18.937  -1.614  32.994  1.00  0.00    -0.302 N 
HETATM   16  H6  UNK     1      18.212  -1.103  33.485  1.00  0.00     0.186 HD
BRANCH  15  17
HETATM   17  N2  UNK     1      19.930  -2.054  33.812  1.00  0.00    -0.276 N 
HETATM   18  H9  UNK     1      20.722  -2.500  33.362  1.00  0.00     0.189 HD
BRANCH  17  19
HETATM   19  C12 UNK     1      19.822  -1.909  35.172  1.00  0.00     0.184 C 
HETATM   20  S1  UNK     1      19.995  -3.214  36.203  1.00  0.00    -0.040 SA
BRANCH  19  21
HETATM   21  N3  UNK     1      19.570  -0.652  35.651  1.00  0.00    -0.375 N 
HETATM   22  H10 UNK     1      20.286   0.066  35.657  1.00  0.00     0.158 HD
HETATM   23  H11 UNK     1      18.658  -0.399  36.016  1.00  0.00     0.158 HD
ENDBRANCH  19  21
ENDBRANCH  17  19
ENDBRANCH  15  17
ENDBRANCH   8  15
TORSDOF 4
ENDMDL
MODEL 10
REMARK VINA RESULT:      -7.1      8.593     10.439
REMARK  4 active torsions:
REMARK  status: ('A' for Active; 'I' for Inactive)
REMARK    1  A    between atoms: C5_12  and  N1_5 
REMARK    2  A    between atoms: N1_5  and  N2_6 
REMARK    3  A    between atoms: C12_19  and  N2_6 
REMARK    4  A    between atoms: C12_19  and  N3_7 
ROOT
HETATM    1  O1  UNK     1      18.457   7.095  33.976  1.00  0.00    -0.274 OA
HETATM    2  O2  UNK     1      16.091   8.319  30.854  1.00  0.00    -0.286 OA
HETATM    3  O3  UNK     1      17.179   8.217  35.498  1.00  0.00    -0.259 OA
HETATM    4  C1  UNK     1      16.537   8.340  33.199  1.00  0.00     0.114 A 
HETATM    5  C2  UNK     1      17.963   7.099  31.573  1.00  0.00     0.049 A 
HETATM    6  C3  UNK     1      16.791   7.957  31.790  1.00  0.00     0.203 A 
HETATM    7  C4  UNK     1      18.742   6.704  32.654  1.00  0.00     0.093 A 
HETATM    8  C5  UNK     1      15.482   9.123  33.464  1.00  0.00     0.042 C 
HETATM    9  C6  UNK     1      17.383   7.904  34.330  1.00  0.00     0.304 A 
HETATM   10  C7  UNK     1      18.303   6.673  30.287  1.00  0.00     0.018 A 
HETATM   11  C8  UNK     1      19.859   5.889  32.473  1.00  0.00     0.038 A 
HETATM   12  C9  UNK     1      15.175   9.543  34.875  1.00  0.00     0.071 C 
HETATM   13  C10 UNK     1      19.421   5.857  30.098  1.00  0.00     0.001 A 
HETATM   14  C11 UNK     1      20.197   5.466  31.188  1.00  0.00     0.003 A 
ENDROOT
BRANCH   8  15
HETATM   15  N1  UNK     1      14.628   9.590  32.503  1.00  0.00    -0.302 N 
HETATM   16  H6  UNK     1      14.966  10.304  31.868  1.00  0.00     0.186 HD
BRANCH  15  17
HETATM   17  N2  UNK     1      13.338   9.785  32.890  1.00  0.00    -0.276 N 
HETATM   18  H9  UNK     1      12.896   9.022  33.391  1.00  0.00     0.189 HD
BRANCH  17  19
HETATM   19  C12 UNK     1      12.692  10.955  32.580  1.00  0.00     0.184 C 
HETATM   20  S1  UNK     1      13.459  12.435  32.713  1.00  0.00    -0.040 SA
BRANCH  19  21
HETATM   21  N3  UNK     1      11.394  10.862  32.155  1.00  0.00    -0.375 N 
HETATM   22  H10 UNK     1      11.128  11.108  31.208  1.00  0.00     0.158 HD
HETATM   23  H11 UNK     1      10.657  10.543  32.774  1.00  0.00     0.158 HD
ENDBRANCH  19  21
ENDBRANCH  17  19
ENDBRANCH  15  17
ENDBRANCH   8  15
TORSDOF 4
ENDMDL
