MODEL 1
REMARK VINA RESULT:      -6.9      0.000      0.000
REMARK  5 active torsions:
REMARK  status: ('A' for Active; 'I' for Inactive)
REMARK    1  A    between atoms: C11_14  and  O2_2 
REMARK    2  A    between atoms: C6_9  and  O2_2 
REMARK    3  A    between atoms: C5_8  and  C8_11 
REMARK    4  A    between atoms: C10_13  and  C15_18 
REMARK    5  A    between atoms: C10_13  and  C11_14 
ROOT
HETATM    1  O1  UNK     1      18.532   0.615  32.111  1.00  0.00    -0.274 OA
HETATM    2  O3  UNK     1      18.687  -1.586  32.645  1.00  0.00    -0.259 OA
HETATM    3  C1  UNK     1      18.291   2.287  33.861  1.00  0.00     0.005 A 
HETATM    4  C2  UNK     1      18.335   1.211  34.872  1.00  0.00    -0.037 A 
HETATM    5  C3  UNK     1      18.391   1.951  32.514  1.00  0.00     0.099 A 
HETATM    6  C4  UNK     1      18.357   2.907  31.496  1.00  0.00     0.006 A 
HETATM    7  C5  UNK     1      18.436  -0.074  34.468  1.00  0.00     0.024 A 
HETATM    8  C6  UNK     1      18.214   4.250  31.826  1.00  0.00     0.077 A 
HETATM    9  C7  UNK     1      18.140   3.649  34.171  1.00  0.00     0.017 A 
HETATM   10  C9  UNK     1      18.104   4.621  33.163  1.00  0.00     0.038 A 
HETATM   11  C12 UNK     1      18.558  -0.425  33.024  1.00  0.00     0.295 A 
HETATM   12  C13 UNK     1      18.278   1.630  36.320  1.00  0.00     0.050 C 
HETATM   13  C14 UNK     1      18.471   2.497  30.063  1.00  0.00     0.054 C 
ENDROOT
BRANCH   8  14
HETATM   14  O2  UNK     1      18.175   5.210  30.861  1.00  0.00    -0.351 OA
BRANCH  14  15
HETATM   15  C11 UNK     1      19.084   6.301  30.996  1.00  0.00     0.175 C 
BRANCH  15  16
HETATM   16  C10 UNK     1      20.418   5.908  30.377  1.00  0.00     0.026 C 
BRANCH  16  17
HETATM   17  C15 UNK     1      21.535   5.884  31.417  1.00  0.00    -0.002 C 
HETATM   18  C17 UNK     1      21.091   6.517  32.726  1.00  0.00     0.005 C 
ENDBRANCH  16  17
ENDBRANCH  15  16
ENDBRANCH  14  15
ENDBRANCH   8  14
BRANCH   7  19
HETATM   19  C8  UNK     1      18.430  -1.269  35.388  1.00  0.00     0.041 C 
HETATM   20  C16 UNK     1      19.834  -1.674  35.778  1.00  0.00     0.010 C 
ENDBRANCH   7  19
TORSDOF 5
ENDMDL
MODEL 2
REMARK VINA RESULT:      -6.9      2.263      6.376
REMARK  5 active torsions:
REMARK  status: ('A' for Active; 'I' for Inactive)
REMARK    1  A    between atoms: C11_14  and  O2_2 
REMARK    2  A    between atoms: C6_9  and  O2_2 
REMARK    3  A    between atoms: C5_8  and  C8_11 
REMARK    4  A    between atoms: C10_13  and  C15_18 
REMARK    5  A    between atoms: C10_13  and  C11_14 
ROOT
HETATM    1  O1  UNK     1      17.882   4.169  33.564  1.00  0.00    -0.274 OA
HETATM    2  O3  UNK     1      17.407   6.165  34.536  1.00  0.00    -0.259 OA
HETATM    3  C1  UNK     1      18.532   4.070  31.222  1.00  0.00     0.005 A 
HETATM    4  C2  UNK     1      18.411   5.540  31.144  1.00  0.00    -0.037 A 
HETATM    5  C3  UNK     1      18.264   3.435  32.431  1.00  0.00     0.099 A 
HETATM    6  C4  UNK     1      18.354   2.050  32.590  1.00  0.00     0.006 A 
HETATM    7  C5  UNK     1      18.009   6.231  32.233  1.00  0.00     0.024 A 
HETATM    8  C6  UNK     1      18.721   1.262  31.505  1.00  0.00     0.077 A 
HETATM    9  C7  UNK     1      18.895   3.254  30.139  1.00  0.00     0.017 A 
HETATM   10  C9  UNK     1      18.991   1.864  30.279  1.00  0.00     0.038 A 
HETATM   11  C12 UNK     1      17.737   5.546  33.529  1.00  0.00     0.295 A 
HETATM   12  C13 UNK     1      18.766   6.186  29.827  1.00  0.00     0.050 C 
HETATM   13  C14 UNK     1      18.057   1.414  33.910  1.00  0.00     0.054 C 
ENDROOT
BRANCH   8  14
HETATM   14  O2  UNK     1      18.818  -0.091  31.621  1.00  0.00    -0.351 OA
BRANCH  14  15
HETATM   15  C11 UNK     1      20.127  -0.654  31.566  1.00  0.00     0.175 C 
BRANCH  15  16
HETATM   16  C10 UNK     1      20.159  -1.719  30.479  1.00  0.00     0.026 C 
BRANCH  16  17
HETATM   17  C15 UNK     1      20.698  -1.164  29.163  1.00  0.00    -0.002 C 
HETATM   18  C17 UNK     1      19.570  -0.770  28.222  1.00  0.00     0.005 C 
ENDBRANCH  16  17
ENDBRANCH  15  16
ENDBRANCH  14  15
ENDBRANCH   8  14
BRANCH   7  19
HETATM   19  C8  UNK     1      17.785   7.721  32.272  1.00  0.00     0.041 C 
HETATM   20  C16 UNK     1      16.380   8.081  31.841  1.00  0.00     0.010 C 
ENDBRANCH   7  19
TORSDOF 5
ENDMDL
MODEL 3
REMARK VINA RESULT:      -6.7      3.910      7.990
REMARK  5 active torsions:
REMARK  status: ('A' for Active; 'I' for Inactive)
REMARK    1  A    between atoms: C11_14  and  O2_2 
REMARK    2  A    between atoms: C6_9  and  O2_2 
REMARK    3  A    between atoms: C5_8  and  C8_11 
REMARK    4  A    between atoms: C10_13  and  C15_18 
REMARK    5  A    between atoms: C10_13  and  C11_14 
ROOT
HETATM    1  O1  UNK     1      16.385   9.051  33.282  1.00  0.00    -0.274 OA
HETATM    2  O3  UNK     1      15.768  11.169  33.819  1.00  0.00    -0.259 OA
HETATM    3  C1  UNK     1      18.692   8.336  33.576  1.00  0.00     0.005 A 
HETATM    4  C2  UNK     1      19.025   9.679  34.093  1.00  0.00    -0.037 A 
HETATM    5  C3  UNK     1      17.382   8.068  33.189  1.00  0.00     0.099 A 
HETATM    6  C4  UNK     1      16.983   6.826  32.690  1.00  0.00     0.006 A 
HETATM    7  C5  UNK     1      18.063  10.626  34.144  1.00  0.00     0.024 A 
HETATM    8  C6  UNK     1      17.922   5.808  32.565  1.00  0.00     0.077 A 
HETATM    9  C7  UNK     1      19.624   7.295  33.436  1.00  0.00     0.017 A 
HETATM   10  C9  UNK     1      19.243   6.043  32.937  1.00  0.00     0.038 A 
HETATM   11  C12 UNK     1      16.659  10.328  33.742  1.00  0.00     0.295 A 
HETATM   12  C13 UNK     1      20.445   9.902  34.550  1.00  0.00     0.050 C 
HETATM   13  C14 UNK     1      15.563   6.586  32.289  1.00  0.00     0.054 C 
ENDROOT
BRANCH   8  14
HETATM   14  O2  UNK     1      17.572   4.585  32.082  1.00  0.00    -0.351 OA
BRANCH  14  15
HETATM   15  C11 UNK     1      18.400   4.030  31.061  1.00  0.00     0.175 C 
BRANCH  15  16
HETATM   16  C10 UNK     1      18.304   2.512  31.122  1.00  0.00     0.026 C 
BRANCH  16  17
HETATM   17  C15 UNK     1      18.853   1.862  29.855  1.00  0.00    -0.002 C 
HETATM   18  C17 UNK     1      17.859   1.950  28.708  1.00  0.00     0.005 C 
ENDBRANCH  16  17
ENDBRANCH  15  16
ENDBRANCH  14  15
ENDBRANCH   8  14
BRANCH   7  19
HETATM   19  C8  UNK     1      18.281  12.050  34.590  1.00  0.00     0.041 C 
HETATM   20  C16 UNK     1      18.612  12.951  33.420  1.00  0.00     0.010 C 
ENDBRANCH   7  19
TORSDOF 5
ENDMDL
MODEL 4
REMARK VINA RESULT:      -6.6      1.504      6.477
REMARK  5 active torsions:
REMARK  status: ('A' for Active; 'I' for Inactive)
REMARK    1  A    between atoms: C11_14  and  O2_2 
REMARK    2  A    between atoms: C6_9  and  O2_2 
REMARK    3  A    between atoms: C5_8  and  C8_11 
REMARK    4  A    between atoms: C10_13  and  C15_18 
REMARK    5  A    between atoms: C10_13  and  C11_14 
ROOT
HETATM    1  O1  UNK     1      18.667   1.315  31.374  1.00  0.00    -0.274 OA
HETATM    2  O3  UNK     1      18.861   2.492  29.443  1.00  0.00    -0.259 OA
HETATM    3  C1  UNK     1      18.302   2.472  33.483  1.00  0.00     0.005 A 
HETATM    4  C2  UNK     1      18.310   3.759  32.759  1.00  0.00    -0.037 A 
HETATM    5  C3  UNK     1      18.480   1.293  32.765  1.00  0.00     0.099 A 
HETATM    6  C4  UNK     1      18.486   0.035  33.372  1.00  0.00     0.006 A 
HETATM    7  C5  UNK     1      18.526   3.768  31.425  1.00  0.00     0.024 A 
HETATM    8  C6  UNK     1      18.312  -0.058  34.748  1.00  0.00     0.077 A 
HETATM    9  C7  UNK     1      18.134   2.354  34.872  1.00  0.00     0.017 A 
HETATM   10  C9  UNK     1      18.138   1.101  35.499  1.00  0.00     0.038 A 
HETATM   11  C12 UNK     1      18.701   2.500  30.660  1.00  0.00     0.295 A 
HETATM   12  C13 UNK     1      18.059   5.003  33.574  1.00  0.00     0.050 C 
HETATM   13  C14 UNK     1      18.679  -1.203  32.557  1.00  0.00     0.054 C 
ENDROOT
BRANCH   8  14
HETATM   14  O2  UNK     1      18.314  -1.266  35.376  1.00  0.00    -0.351 OA
BRANCH  14  15
HETATM   15  C11 UNK     1      19.429  -1.559  36.216  1.00  0.00     0.175 C 
BRANCH  15  16
HETATM   16  C10 UNK     1      20.179  -2.750  35.638  1.00  0.00     0.026 C 
BRANCH  16  17
HETATM   17  C15 UNK     1      19.808  -4.049  36.349  1.00  0.00    -0.002 C 
HETATM   18  C17 UNK     1      20.782  -4.366  37.473  1.00  0.00     0.005 C 
ENDBRANCH  16  17
ENDBRANCH  15  16
ENDBRANCH  14  15
ENDBRANCH   8  14
BRANCH   7  19
HETATM   19  C8  UNK     1      18.621   5.011  30.577  1.00  0.00     0.041 C 
HETATM   20  C16 UNK     1      20.011   5.606  30.622  1.00  0.00     0.010 C 
ENDBRANCH   7  19
TORSDOF 5
ENDMDL
MODEL 5
REMARK VINA RESULT:      -6.6     22.890     25.545
REMARK  5 active torsions:
REMARK  status: ('A' for Active; 'I' for Inactive)
REMARK    1  A    between atoms: C11_14  and  O2_2 
REMARK    2  A    between atoms: C6_9  and  O2_2 
REMARK    3  A    between atoms: C5_8  and  C8_11 
REMARK    4  A    between atoms: C10_13  and  C15_18 
REMARK    5  A    between atoms: C10_13  and  C11_14 
ROOT
HETATM    1  O1  UNK     1      13.734   5.253   9.544  1.00  0.00    -0.274 OA
HETATM    2  O3  UNK     1      15.866   4.496   9.738  1.00  0.00    -0.259 OA
HETATM    3  C1  UNK     1      13.299   7.628   9.252  1.00  0.00     0.005 A 
HETATM    4  C2  UNK     1      14.754   7.882   9.285  1.00  0.00    -0.037 A 
HETATM    5  C3  UNK     1      12.839   6.321   9.383  1.00  0.00     0.099 A 
HETATM    6  C4  UNK     1      11.481   5.995   9.362  1.00  0.00     0.006 A 
HETATM    7  C5  UNK     1      15.602   6.848   9.477  1.00  0.00     0.024 A 
HETATM    8  C6  UNK     1      10.540   7.007   9.212  1.00  0.00     0.077 A 
HETATM    9  C7  UNK     1      12.330   8.634   9.107  1.00  0.00     0.017 A 
HETATM   10  C9  UNK     1      10.964   8.327   9.085  1.00  0.00     0.038 A 
HETATM   11  C12 UNK     1      15.104   5.448   9.601  1.00  0.00     0.295 A 
HETATM   12  C13 UNK     1      15.204   9.307   9.086  1.00  0.00     0.050 C 
HETATM   13  C14 UNK     1      11.036   4.575   9.504  1.00  0.00     0.054 C 
ENDROOT
BRANCH   8  14
HETATM   14  O2  UNK     1       9.207   6.729   9.189  1.00  0.00    -0.351 OA
BRANCH  14  15
HETATM   15  C11 UNK     1       8.497   7.056   7.996  1.00  0.00     0.175 C 
BRANCH  15  16
HETATM   16  C10 UNK     1       8.769   5.984   6.951  1.00  0.00     0.026 C 
BRANCH  16  17
HETATM   17  C15 UNK     1       9.522   6.547   5.749  1.00  0.00    -0.002 C 
HETATM   18  C17 UNK     1      11.008   6.236   5.826  1.00  0.00     0.005 C 
ENDBRANCH  16  17
ENDBRANCH  15  16
ENDBRANCH  14  15
ENDBRANCH   8  14
BRANCH   7  19
HETATM   19  C8  UNK     1      17.100   6.974   9.593  1.00  0.00     0.041 C 
HETATM   20  C16 UNK     1      17.508   7.485  10.957  1.00  0.00     0.010 C 
ENDBRANCH   7  19
TORSDOF 5
ENDMDL
MODEL 6
REMARK VINA RESULT:      -6.5      1.482      2.226
REMARK  5 active torsions:
REMARK  status: ('A' for Active; 'I' for Inactive)
REMARK    1  A    between atoms: C11_14  and  O2_2 
REMARK    2  A    between atoms: C6_9  and  O2_2 
REMARK    3  A    between atoms: C5_8  and  C8_11 
REMARK    4  A    between atoms: C10_13  and  C15_18 
REMARK    5  A    between atoms: C10_13  and  C11_14 
ROOT
HETATM    1  O1  UNK     1      18.377   0.882  32.207  1.00  0.00    -0.274 OA
HETATM    2  O3  UNK     1      18.433  -1.352  32.611  1.00  0.00    -0.259 OA
HETATM    3  C1  UNK     1      18.313   2.461  34.056  1.00  0.00     0.005 A 
HETATM    4  C2  UNK     1      18.344   1.327  35.003  1.00  0.00    -0.037 A 
HETATM    5  C3  UNK     1      18.331   2.198  32.690  1.00  0.00     0.099 A 
HETATM    6  C4  UNK     1      18.304   3.211  31.728  1.00  0.00     0.006 A 
HETATM    7  C5  UNK     1      18.353   0.064  34.525  1.00  0.00     0.024 A 
HETATM    8  C6  UNK     1      18.252   4.538  32.138  1.00  0.00     0.077 A 
HETATM    9  C7  UNK     1      18.254   3.808  34.447  1.00  0.00     0.017 A 
HETATM   10  C9  UNK     1      18.225   4.837  33.497  1.00  0.00     0.038 A 
HETATM   11  C12 UNK     1      18.388  -0.209  33.059  1.00  0.00     0.295 A 
HETATM   12  C13 UNK     1      18.377   1.665  36.473  1.00  0.00     0.050 C 
HETATM   13  C14 UNK     1      18.328   2.879  30.271  1.00  0.00     0.054 C 
ENDROOT
BRANCH   8  14
HETATM   14  O2  UNK     1      18.222   5.553  31.231  1.00  0.00    -0.351 OA
BRANCH  14  15
HETATM   15  C11 UNK     1      18.202   6.883  31.746  1.00  0.00     0.175 C 
BRANCH  15  16
HETATM   16  C10 UNK     1      16.903   7.554  31.322  1.00  0.00     0.026 C 
BRANCH  16  17
HETATM   17  C15 UNK     1      15.887   7.584  32.460  1.00  0.00    -0.002 C 
HETATM   18  C17 UNK     1      14.529   7.072  32.008  1.00  0.00     0.005 C 
ENDBRANCH  16  17
ENDBRANCH  15  16
ENDBRANCH  14  15
ENDBRANCH   8  14
BRANCH   7  19
HETATM   19  C8  UNK     1      18.322  -1.179  35.376  1.00  0.00     0.041 C 
HETATM   20  C16 UNK     1      19.719  -1.649  35.719  1.00  0.00     0.010 C 
ENDBRANCH   7  19
TORSDOF 5
ENDMDL
MODEL 7
REMARK VINA RESULT:      -6.5      2.757      7.613
REMARK  5 active torsions:
REMARK  status: ('A' for Active; 'I' for Inactive)
REMARK    1  A    between atoms: C11_14  and  O2_2 
REMARK    2  A    between atoms: C6_9  and  O2_2 
REMARK    3  A    between atoms: C5_8  and  C8_11 
REMARK    4  A    between atoms: C10_13  and  C15_18 
REMARK    5  A    between atoms: C10_13  and  C11_14 
ROOT
HETATM    1  O1  UNK     1      18.189   1.195  32.988  1.00  0.00    -0.274 OA
HETATM    2  O3  UNK     1      17.634   2.929  31.632  1.00  0.00    -0.259 OA
HETATM    3  C1  UNK     1      19.590  -0.612  32.157  1.00  0.00     0.005 A 
HETATM    4  C2  UNK     1      19.668   0.072  30.850  1.00  0.00    -0.037 A 
HETATM    5  C3  UNK     1      18.853  -0.026  33.182  1.00  0.00     0.099 A 
HETATM    6  C4  UNK     1      18.728  -0.606  34.447  1.00  0.00     0.006 A 
HETATM    7  C5  UNK     1      18.996   1.229  30.667  1.00  0.00     0.024 A 
HETATM    8  C6  UNK     1      19.355  -1.820  34.704  1.00  0.00     0.077 A 
HETATM    9  C7  UNK     1      20.210  -1.840  32.438  1.00  0.00     0.017 A 
HETATM   10  C9  UNK     1      20.095  -2.438  33.700  1.00  0.00     0.038 A 
HETATM   11  C12 UNK     1      18.220   1.859  31.774  1.00  0.00     0.295 A 
HETATM   12  C13 UNK     1      20.523  -0.575  29.790  1.00  0.00     0.050 C 
HETATM   13  C14 UNK     1      17.926   0.063  35.516  1.00  0.00     0.054 C 
ENDROOT
BRANCH   8  14
HETATM   14  O2  UNK     1      19.255  -2.417  35.923  1.00  0.00    -0.351 OA
BRANCH  14  15
HETATM   15  C11 UNK     1      20.418  -3.077  36.419  1.00  0.00     0.175 C 
BRANCH  15  16
HETATM   16  C10 UNK     1      20.023  -4.459  36.922  1.00  0.00     0.026 C 
BRANCH  16  17
HETATM   17  C15 UNK     1      21.083  -5.046  37.849  1.00  0.00    -0.002 C 
HETATM   18  C17 UNK     1      20.529  -6.202  38.667  1.00  0.00     0.005 C 
ENDBRANCH  16  17
ENDBRANCH  15  16
ENDBRANCH  14  15
ENDBRANCH   8  14
BRANCH   7  19
HETATM   19  C8  UNK     1      18.939   1.996  29.370  1.00  0.00     0.041 C 
HETATM   20  C16 UNK     1      17.788   1.533  28.504  1.00  0.00     0.010 C 
ENDBRANCH   7  19
TORSDOF 5
ENDMDL
MODEL 8
REMARK VINA RESULT:      -6.4      1.695      3.258
REMARK  5 active torsions:
REMARK  status: ('A' for Active; 'I' for Inactive)
REMARK    1  A    between atoms: C11_14  and  O2_2 
REMARK    2  A    between atoms: C6_9  and  O2_2 
REMARK    3  A    between atoms: C5_8  and  C8_11 
REMARK    4  A    between atoms: C10_13  and  C15_18 
REMARK    5  A    between atoms: C10_13  and  C11_14 
ROOT
HETATM    1  O1  UNK     1      18.747   0.752  32.963  1.00  0.00    -0.274 OA
HETATM    2  O3  UNK     1      19.156  -1.396  33.572  1.00  0.00    -0.259 OA
HETATM    3  C1  UNK     1      19.076   1.457  30.658  1.00  0.00     0.005 A 
HETATM    4  C2  UNK     1      19.487   0.080  30.314  1.00  0.00    -0.037 A 
HETATM    5  C3  UNK     1      18.719   1.745  31.972  1.00  0.00     0.099 A 
HETATM    6  C4  UNK     1      18.318   3.019  32.381  1.00  0.00     0.006 A 
HETATM    7  C5  UNK     1      19.543  -0.857  31.285  1.00  0.00     0.024 A 
HETATM    8  C6  UNK     1      18.274   4.051  31.450  1.00  0.00     0.077 A 
HETATM    9  C7  UNK     1      19.029   2.515  29.737  1.00  0.00     0.017 A 
HETATM   10  C9  UNK     1      18.631   3.799  30.128  1.00  0.00     0.038 A 
HETATM   11  C12 UNK     1      19.145  -0.545  32.688  1.00  0.00     0.295 A 
HETATM   12  C13 UNK     1      19.812  -0.194  28.867  1.00  0.00     0.050 C 
HETATM   13  C14 UNK     1      17.942   3.279  33.804  1.00  0.00     0.054 C 
ENDROOT
BRANCH   8  14
HETATM   14  O2  UNK     1      17.891   5.306  31.811  1.00  0.00    -0.351 OA
BRANCH  14  15
HETATM   15  C11 UNK     1      18.751   6.380  31.435  1.00  0.00     0.175 C 
BRANCH  15  16
HETATM   16  C10 UNK     1      19.236   7.085  32.694  1.00  0.00     0.026 C 
BRANCH  16  17
HETATM   17  C15 UNK     1      20.503   6.439  33.248  1.00  0.00    -0.002 C 
HETATM   18  C17 UNK     1      21.485   6.098  32.139  1.00  0.00     0.005 C 
ENDBRANCH  16  17
ENDBRANCH  15  16
ENDBRANCH  14  15
ENDBRANCH   8  14
BRANCH   7  19
HETATM   19  C8  UNK     1      20.004  -2.278  31.084  1.00  0.00     0.041 C 
HETATM   20  C16 UNK     1      21.133  -2.632  32.028  1.00  0.00     0.010 C 
ENDBRANCH   7  19
TORSDOF 5
ENDMDL
MODEL 9
REMARK VINA RESULT:      -6.4     13.255     15.288
REMARK  5 active torsions:
REMARK  status: ('A' for Active; 'I' for Inactive)
REMARK    1  A    between atoms: C11_14  and  O2_2 
REMARK    2  A    between atoms: C6_9  and  O2_2 
REMARK    3  A    between atoms: C5_8  and  C8_11 
REMARK    4  A    between atoms: C10_13  and  C15_18 
REMARK    5  A    between atoms: C10_13  and  C11_14 
ROOT
HETATM    1  O1  UNK     1      28.085  -5.348  38.360  1.00  0.00    -0.274 OA
HETATM    2  O3  UNK     1      25.828  -5.393  38.600  1.00  0.00    -0.259 OA
HETATM    3  C1  UNK     1      29.367  -7.413  38.439  1.00  0.00     0.005 A 
HETATM    4  C2  UNK     1      28.111  -8.166  38.636  1.00  0.00    -0.037 A 
HETATM    5  C3  UNK     1      29.310  -6.029  38.307  1.00  0.00     0.099 A 
HETATM    6  C4  UNK     1      30.450  -5.243  38.118  1.00  0.00     0.006 A 
HETATM    7  C5  UNK     1      26.943  -7.494  38.719  1.00  0.00     0.024 A 
HETATM    8  C6  UNK     1      31.697  -5.854  38.063  1.00  0.00     0.077 A 
HETATM    9  C7  UNK     1      30.638  -8.008  38.385  1.00  0.00     0.017 A 
HETATM   10  C9  UNK     1      31.792  -7.236  38.198  1.00  0.00     0.038 A 
HETATM   11  C12 UNK     1      26.887  -6.012  38.563  1.00  0.00     0.295 A 
HETATM   12  C13 UNK     1      28.220  -9.668  38.718  1.00  0.00     0.050 C 
HETATM   13  C14 UNK     1      30.337  -3.759  37.980  1.00  0.00     0.054 C 
ENDROOT
BRANCH   8  14
HETATM   14  O2  UNK     1      32.830  -5.121  37.882  1.00  0.00    -0.351 OA
BRANCH  14  15
HETATM   15  C11 UNK     1      33.578  -5.366  36.692  1.00  0.00     0.175 C 
BRANCH  15  16
HETATM   16  C10 UNK     1      33.315  -4.237  35.706  1.00  0.00     0.026 C 
BRANCH  16  17
HETATM   17  C15 UNK     1      32.269  -4.630  34.666  1.00  0.00    -0.002 C 
HETATM   18  C17 UNK     1      32.285  -6.127  34.399  1.00  0.00     0.005 C 
ENDBRANCH  16  17
ENDBRANCH  15  16
ENDBRANCH  14  15
ENDBRANCH   8  14
BRANCH   7  19
HETATM   19  C8  UNK     1      25.601  -8.130  38.980  1.00  0.00     0.041 C 
HETATM   20  C16 UNK     1      24.979  -8.651  37.703  1.00  0.00     0.010 C 
ENDBRANCH   7  19
TORSDOF 5
ENDMDL
MODEL 10
REMARK VINA RESULT:      -6.3     23.779     25.527
REMARK  5 active torsions:
REMARK  status: ('A' for Active; 'I' for Inactive)
REMARK    1  A    between atoms: C11_14  and  O2_2 
REMARK    2  A    between atoms: C6_9  and  O2_2 
REMARK    3  A    between atoms: C5_8  and  C8_11 
REMARK    4  A    between atoms: C10_13  and  C15_18 
REMARK    5  A    between atoms: C10_13  and  C11_14 
ROOT
HETATM    1  O1  UNK     1      15.920   7.300   9.898  1.00  0.00    -0.274 OA
HETATM    2  O3  UNK     1      18.101   7.897  10.096  1.00  0.00    -0.259 OA
HETATM    3  C1  UNK     1      14.208   8.999   9.584  1.00  0.00     0.005 A 
HETATM    4  C2  UNK     1      15.257  10.038   9.614  1.00  0.00    -0.037 A 
HETATM    5  C3  UNK     1      14.576   7.665   9.727  1.00  0.00     0.099 A 
HETATM    6  C4  UNK     1      13.647   6.622   9.711  1.00  0.00     0.006 A 
HETATM    7  C5  UNK     1      16.543   9.675   9.813  1.00  0.00     0.024 A 
HETATM    8  C6  UNK     1      12.297   6.914   9.551  1.00  0.00     0.077 A 
HETATM    9  C7  UNK     1      12.839   9.271   9.430  1.00  0.00     0.017 A 
HETATM   10  C9  UNK     1      11.893   8.239   9.412  1.00  0.00     0.038 A 
HETATM   11  C12 UNK     1      16.932   8.242   9.951  1.00  0.00     0.295 A 
HETATM   12  C13 UNK     1      14.814  11.464   9.400  1.00  0.00     0.050 C 
HETATM   13  C14 UNK     1      14.092   5.203   9.866  1.00  0.00     0.054 C 
ENDROOT
BRANCH   8  14
HETATM   14  O2  UNK     1      11.362   5.925   9.532  1.00  0.00    -0.351 OA
BRANCH  14  15
HETATM   15  C11 UNK     1      10.518   5.852   8.385  1.00  0.00     0.175 C 
BRANCH  15  16
HETATM   16  C10 UNK     1      11.382   5.616   7.154  1.00  0.00     0.026 C 
BRANCH  16  17
HETATM   17  C15 UNK     1      11.011   6.562   6.015  1.00  0.00    -0.002 C 
HETATM   18  C17 UNK     1       9.530   6.477   5.682  1.00  0.00     0.005 C 
ENDBRANCH  16  17
ENDBRANCH  15  16
ENDBRANCH  14  15
ENDBRANCH   8  14
BRANCH   7  19
HETATM   19  C8  UNK     1      17.700  10.635   9.927  1.00  0.00     0.041 C 
HETATM   20  C16 UNK     1      18.213  11.047   8.564  1.00  0.00     0.010 C 
ENDBRANCH   7  19
TORSDOF 5
ENDMDL
