MODEL 1
REMARK VINA RESULT:      -8.6      0.000      0.000
REMARK  6 active torsions:
REMARK  status: ('A' for Active; 'I' for Inactive)
REMARK    1  A    between atoms: C11_18  and  O2_2 
REMARK    2  A    between atoms: C2_9  and  N1_5 
REMARK    3  A    between atoms: C3_10  and  N2_6 
REMARK       I    between atoms: C6_13  and  N2_6 
REMARK    4  A    between atoms: C1_8  and  C2_9 
REMARK    5  A    between atoms: C1_8  and  C3_10 
REMARK    6  A    between atoms: C4_11  and  C6_13 
ROOT
HETATM    1  O1  UNK     1      18.858   0.513  32.284  1.00  0.00    -0.271 OA
HETATM    2  O4  UNK     1      17.980   2.616  32.428  1.00  0.00    -0.259 OA
HETATM    3  C4  UNK     1      18.951   2.011  30.354  1.00  0.00     0.108 A 
HETATM    4  C5  UNK     1      19.882  -0.220  30.205  1.00  0.00     0.002 A 
HETATM    5  C7  UNK     1      19.515  -0.473  31.522  1.00  0.00     0.123 A 
HETATM    6  C8  UNK     1      19.575   1.078  29.625  1.00  0.00     0.037 A 
HETATM    7  C11 UNK     1      19.779  -1.696  32.136  1.00  0.00     0.102 A 
HETATM    8  C12 UNK     1      18.551   1.764  31.757  1.00  0.00     0.304 A 
HETATM    9  C13 UNK     1      20.533  -1.223  29.482  1.00  0.00     0.014 A 
HETATM   10  C14 UNK     1      20.429  -2.690  31.408  1.00  0.00     0.040 A 
HETATM   11  C15 UNK     1      20.805  -2.455  30.084  1.00  0.00     0.004 A 
ENDROOT
BRANCH   3  12
HETATM   12  C6  UNK     1      18.685   3.289  29.681  1.00  0.00     0.257 C 
HETATM   13  O3  UNK     1      18.035   3.329  28.639  1.00  0.00    -0.267 OA
HETATM   14  N2  UNK     1      19.238   4.370  30.341  1.00  0.00    -0.357 N 
HETATM   15  H7  UNK     1      19.740   4.235  31.213  1.00  0.00     0.162 HD
BRANCH  14  16
HETATM   16  C3  UNK     1      19.112   5.730  29.870  1.00  0.00     0.124 C 
BRANCH  16  17
HETATM   17  C1  UNK     1      18.339   6.612  30.844  1.00  0.00     0.040 C 
BRANCH  17  18
HETATM   18  C2  UNK     1      18.921   6.569  32.258  1.00  0.00     0.131 C 
BRANCH  18  19
HETATM   19  N1  UNK     1      17.935   6.943  33.267  1.00  0.00    -0.350 N 
HETATM   20  C10 UNK     1      16.592   6.779  33.160  1.00  0.00     0.209 A 
HETATM   21  N3  UNK     1      15.972   7.215  34.234  1.00  0.00    -0.255 NA
HETATM   22  C16 UNK     1      16.974   7.674  35.053  1.00  0.00     0.135 A 
HETATM   23  C9  UNK     1      18.207   7.513  34.467  1.00  0.00     0.111 A 
ENDBRANCH  18  19
ENDBRANCH  17  18
ENDBRANCH  16  17
ENDBRANCH  14  16
ENDBRANCH   3  12
BRANCH   7  24
HETATM   24  O2  UNK     1      19.415  -1.930  33.425  1.00  0.00    -0.353 OA
HETATM   25  C17 UNK     1      20.380  -2.555  34.271  1.00  0.00     0.210 C 
ENDBRANCH   7  24
TORSDOF 6
ENDMDL
MODEL 2
REMARK VINA RESULT:      -8.5      4.792      9.048
REMARK  6 active torsions:
REMARK  status: ('A' for Active; 'I' for Inactive)
REMARK    1  A    between atoms: C11_18  and  O2_2 
REMARK    2  A    between atoms: C2_9  and  N1_5 
REMARK    3  A    between atoms: C3_10  and  N2_6 
REMARK       I    between atoms: C6_13  and  N2_6 
REMARK    4  A    between atoms: C1_8  and  C2_9 
REMARK    5  A    between atoms: C1_8  and  C3_10 
REMARK    6  A    between atoms: C4_11  and  C6_13 
ROOT
HETATM    1  O1  UNK     1      18.622   0.866  32.370  1.00  0.00    -0.271 OA
HETATM    2  O4  UNK     1      17.850   1.138  34.502  1.00  0.00    -0.259 OA
HETATM    3  C4  UNK     1      18.856  -0.947  33.995  1.00  0.00     0.108 A 
HETATM    4  C5  UNK     1      19.673  -1.232  31.733  1.00  0.00     0.002 A 
HETATM    5  C7  UNK     1      19.252   0.053  31.407  1.00  0.00     0.123 A 
HETATM    6  C8  UNK     1      19.456  -1.723  33.084  1.00  0.00     0.037 A 
HETATM    7  C11 UNK     1      19.432   0.583  30.131  1.00  0.00     0.102 A 
HETATM    8  C12 UNK     1      18.399   0.424  33.671  1.00  0.00     0.304 A 
HETATM    9  C13 UNK     1      20.294  -2.008  30.750  1.00  0.00     0.014 A 
HETATM   10  C14 UNK     1      20.051  -0.198  29.157  1.00  0.00     0.040 A 
HETATM   11  C15 UNK     1      20.481  -1.490  29.465  1.00  0.00     0.004 A 
ENDROOT
BRANCH   3  12
HETATM   12  C6  UNK     1      18.681  -1.531  35.331  1.00  0.00     0.257 C 
HETATM   13  O3  UNK     1      17.621  -1.404  35.940  1.00  0.00    -0.267 OA
HETATM   14  N2  UNK     1      19.807  -2.196  35.779  1.00  0.00    -0.357 N 
HETATM   15  H7  UNK     1      20.630  -2.265  35.188  1.00  0.00     0.162 HD
BRANCH  14  16
HETATM   16  C3  UNK     1      19.876  -2.850  37.066  1.00  0.00     0.124 C 
BRANCH  16  17
HETATM   17  C1  UNK     1      20.444  -4.262  36.969  1.00  0.00     0.040 C 
BRANCH  17  18
HETATM   18  C2  UNK     1      19.544  -5.198  36.161  1.00  0.00     0.131 C 
BRANCH  18  19
HETATM   19  N1  UNK     1      20.235  -6.426  35.779  1.00  0.00    -0.350 N 
HETATM   20  C10 UNK     1      20.296  -6.942  34.525  1.00  0.00     0.209 A 
HETATM   21  N3  UNK     1      20.990  -8.057  34.503  1.00  0.00    -0.255 NA
HETATM   22  C16 UNK     1      21.383  -8.251  35.804  1.00  0.00     0.135 A 
HETATM   23  C9  UNK     1      20.921  -7.242  36.617  1.00  0.00     0.111 A 
ENDBRANCH  18  19
ENDBRANCH  17  18
ENDBRANCH  16  17
ENDBRANCH  14  16
ENDBRANCH   3  12
BRANCH   7  24
HETATM   24  O2  UNK     1      19.015   1.841  29.825  1.00  0.00    -0.353 OA
HETATM   25  C17 UNK     1      17.909   1.961  28.931  1.00  0.00     0.210 C 
ENDBRANCH   7  24
TORSDOF 6
ENDMDL
MODEL 3
REMARK VINA RESULT:      -8.2      5.385      9.198
REMARK  6 active torsions:
REMARK  status: ('A' for Active; 'I' for Inactive)
REMARK    1  A    between atoms: C11_18  and  O2_2 
REMARK    2  A    between atoms: C2_9  and  N1_5 
REMARK    3  A    between atoms: C3_10  and  N2_6 
REMARK       I    between atoms: C6_13  and  N2_6 
REMARK    4  A    between atoms: C1_8  and  C2_9 
REMARK    5  A    between atoms: C1_8  and  C3_10 
REMARK    6  A    between atoms: C4_11  and  C6_13 
ROOT
HETATM    1  O1  UNK     1      18.615   1.017  32.173  1.00  0.00    -0.271 OA
HETATM    2  O4  UNK     1      17.800   1.334  34.282  1.00  0.00    -0.259 OA
HETATM    3  C4  UNK     1      18.756  -0.784  33.820  1.00  0.00     0.108 A 
HETATM    4  C5  UNK     1      19.619  -1.116  31.581  1.00  0.00     0.002 A 
HETATM    5  C7  UNK     1      19.243   0.176  31.233  1.00  0.00     0.123 A 
HETATM    6  C8  UNK     1      19.354  -1.587  32.932  1.00  0.00     0.037 A 
HETATM    7  C11 UNK     1      19.470   0.687  29.956  1.00  0.00     0.102 A 
HETATM    8  C12 UNK     1      18.348   0.596  33.472  1.00  0.00     0.304 A 
HETATM    9  C13 UNK     1      20.239  -1.921  30.622  1.00  0.00     0.014 A 
HETATM   10  C14 UNK     1      20.088  -0.121  29.006  1.00  0.00     0.040 A 
HETATM   11  C15 UNK     1      20.472  -1.422  29.337  1.00  0.00     0.004 A 
ENDROOT
BRANCH   3  12
HETATM   12  C6  UNK     1      18.532  -1.349  35.157  1.00  0.00     0.257 C 
HETATM   13  O3  UNK     1      17.593  -0.968  35.853  1.00  0.00    -0.267 OA
HETATM   14  N2  UNK     1      19.469  -2.305  35.502  1.00  0.00    -0.357 N 
HETATM   15  H7  UNK     1      20.197  -2.568  34.845  1.00  0.00     0.162 HD
BRANCH  14  16
HETATM   16  C3  UNK     1      19.457  -3.000  36.769  1.00  0.00     0.124 C 
BRANCH  16  17
HETATM   17  C1  UNK     1      19.754  -4.488  36.616  1.00  0.00     0.040 C 
BRANCH  17  18
HETATM   18  C2  UNK     1      20.547  -5.049  37.798  1.00  0.00     0.131 C 
BRANCH  18  19
HETATM   19  N1  UNK     1      20.058  -6.360  38.212  1.00  0.00    -0.350 N 
HETATM   20  C10 UNK     1      20.449  -7.036  39.322  1.00  0.00     0.209 A 
HETATM   21  N3  UNK     1      19.829  -8.191  39.420  1.00  0.00    -0.255 NA
HETATM   22  C16 UNK     1      19.012  -8.242  38.318  1.00  0.00     0.135 A 
HETATM   23  C9  UNK     1      19.140  -7.108  37.551  1.00  0.00     0.111 A 
ENDBRANCH  18  19
ENDBRANCH  17  18
ENDBRANCH  16  17
ENDBRANCH  14  16
ENDBRANCH   3  12
BRANCH   7  24
HETATM   24  O2  UNK     1      19.098   1.954  29.629  1.00  0.00    -0.353 OA
HETATM   25  C17 UNK     1      17.992   2.098  28.738  1.00  0.00     0.210 C 
ENDBRANCH   7  24
TORSDOF 6
ENDMDL
MODEL 4
REMARK VINA RESULT:      -8.2      6.664     11.515
REMARK  6 active torsions:
REMARK  status: ('A' for Active; 'I' for Inactive)
REMARK    1  A    between atoms: C11_18  and  O2_2 
REMARK    2  A    between atoms: C2_9  and  N1_5 
REMARK    3  A    between atoms: C3_10  and  N2_6 
REMARK       I    between atoms: C6_13  and  N2_6 
REMARK    4  A    between atoms: C1_8  and  C2_9 
REMARK    5  A    between atoms: C1_8  and  C3_10 
REMARK    6  A    between atoms: C4_11  and  C6_13 
ROOT
HETATM    1  O1  UNK     1      19.515  -0.929  34.840  1.00  0.00    -0.271 OA
HETATM    2  O4  UNK     1      20.550  -2.859  34.193  1.00  0.00    -0.259 OA
HETATM    3  C4  UNK     1      19.518  -2.871  36.325  1.00  0.00     0.108 A 
HETATM    4  C5  UNK     1      18.422  -0.823  37.009  1.00  0.00     0.002 A 
HETATM    5  C7  UNK     1      18.779  -0.219  35.808  1.00  0.00     0.123 A 
HETATM    6  C8  UNK     1      18.819  -2.202  37.249  1.00  0.00     0.037 A 
HETATM    7  C11 UNK     1      18.429   1.099  35.517  1.00  0.00     0.102 A 
HETATM    8  C12 UNK     1      19.910  -2.249  35.041  1.00  0.00     0.304 A 
HETATM    9  C13 UNK     1      17.693  -0.085  37.945  1.00  0.00     0.014 A 
HETATM   10  C14 UNK     1      17.702   1.827  36.456  1.00  0.00     0.040 A 
HETATM   11  C15 UNK     1      17.335   1.237  37.667  1.00  0.00     0.004 A 
ENDROOT
BRANCH   3  12
HETATM   12  C6  UNK     1      19.872  -4.257  36.659  1.00  0.00     0.257 C 
HETATM   13  O3  UNK     1      21.026  -4.560  36.955  1.00  0.00    -0.267 OA
HETATM   14  N2  UNK     1      18.793  -5.119  36.592  1.00  0.00    -0.357 N 
HETATM   15  H7  UNK     1      17.870  -4.766  36.359  1.00  0.00     0.162 HD
BRANCH  14  16
HETATM   16  C3  UNK     1      18.894  -6.533  36.875  1.00  0.00     0.124 C 
BRANCH  16  17
HETATM   17  C1  UNK     1      19.022  -7.370  35.606  1.00  0.00     0.040 C 
BRANCH  17  18
HETATM   18  C2  UNK     1      20.479  -7.666  35.247  1.00  0.00     0.131 C 
BRANCH  18  19
HETATM   19  N1  UNK     1      20.878  -9.012  35.647  1.00  0.00    -0.350 N 
HETATM   20  C10 UNK     1      21.702  -9.833  34.947  1.00  0.00     0.209 A 
HETATM   21  N3  UNK     1      21.869 -10.980  35.568  1.00  0.00    -0.255 NA
HETATM   22  C16 UNK     1      21.114 -10.872  36.710  1.00  0.00     0.135 A 
HETATM   23  C9  UNK     1      20.488  -9.650  36.778  1.00  0.00     0.111 A 
ENDBRANCH  18  19
ENDBRANCH  17  18
ENDBRANCH  16  17
ENDBRANCH  14  16
ENDBRANCH   3  12
BRANCH   7  24
HETATM   24  O2  UNK     1      18.784   1.678  34.339  1.00  0.00    -0.353 OA
HETATM   25  C17 UNK     1      18.336   3.013  34.108  1.00  0.00     0.210 C 
ENDBRANCH   7  24
TORSDOF 6
ENDMDL
MODEL 5
REMARK VINA RESULT:      -8.1      6.741     11.262
REMARK  6 active torsions:
REMARK  status: ('A' for Active; 'I' for Inactive)
REMARK    1  A    between atoms: C11_18  and  O2_2 
REMARK    2  A    between atoms: C2_9  and  N1_5 
REMARK    3  A    between atoms: C3_10  and  N2_6 
REMARK       I    between atoms: C6_13  and  N2_6 
REMARK    4  A    between atoms: C1_8  and  C2_9 
REMARK    5  A    between atoms: C1_8  and  C3_10 
REMARK    6  A    between atoms: C4_11  and  C6_13 
ROOT
HETATM    1  O1  UNK     1      19.733  -0.931  34.884  1.00  0.00    -0.271 OA
HETATM    2  O4  UNK     1      20.825  -2.736  34.011  1.00  0.00    -0.259 OA
HETATM    3  C4  UNK     1      19.779  -3.043  36.115  1.00  0.00     0.108 A 
HETATM    4  C5  UNK     1      18.623  -1.126  37.038  1.00  0.00     0.002 A 
HETATM    5  C7  UNK     1      18.972  -0.366  35.926  1.00  0.00     0.123 A 
HETATM    6  C8  UNK     1      19.055  -2.513  37.107  1.00  0.00     0.037 A 
HETATM    7  C11 UNK     1      18.587   0.967  35.799  1.00  0.00     0.102 A 
HETATM    8  C12 UNK     1      20.162  -2.254  34.922  1.00  0.00     0.304 A 
HETATM    9  C13 UNK     1      17.867  -0.530  38.051  1.00  0.00     0.014 A 
HETATM   10  C14 UNK     1      17.835   1.553  36.814  1.00  0.00     0.040 A 
HETATM   11  C15 UNK     1      17.475   0.806  37.938  1.00  0.00     0.004 A 
ENDROOT
BRANCH   3  12
HETATM   12  C6  UNK     1      20.168  -4.450  36.276  1.00  0.00     0.257 C 
HETATM   13  O3  UNK     1      20.946  -4.791  37.164  1.00  0.00    -0.267 OA
HETATM   14  N2  UNK     1      19.577  -5.282  35.343  1.00  0.00    -0.357 N 
HETATM   15  H7  UNK     1      18.927  -4.905  34.660  1.00  0.00     0.162 HD
BRANCH  14  16
HETATM   16  C3  UNK     1      19.809  -6.708  35.299  1.00  0.00     0.124 C 
BRANCH  16  17
HETATM   17  C1  UNK     1      18.589  -7.508  35.742  1.00  0.00     0.040 C 
BRANCH  17  18
HETATM   18  C2  UNK     1      18.323  -7.383  37.244  1.00  0.00     0.131 C 
BRANCH  18  19
HETATM   19  N1  UNK     1      19.065  -8.376  38.014  1.00  0.00    -0.350 N 
HETATM   20  C10 UNK     1      18.994  -9.721  37.848  1.00  0.00     0.209 A 
HETATM   21  N3  UNK     1      19.780 -10.348  38.694  1.00  0.00    -0.255 NA
HETATM   22  C16 UNK     1      20.373  -9.348  39.426  1.00  0.00     0.135 A 
HETATM   23  C9  UNK     1      19.939  -8.109  39.016  1.00  0.00     0.111 A 
ENDBRANCH  18  19
ENDBRANCH  17  18
ENDBRANCH  16  17
ENDBRANCH  14  16
ENDBRANCH   3  12
BRANCH   7  24
HETATM   24  O2  UNK     1      18.935   1.699  34.706  1.00  0.00    -0.353 OA
HETATM   25  C17 UNK     1      17.961   1.825  33.670  1.00  0.00     0.210 C 
ENDBRANCH   7  24
TORSDOF 6
ENDMDL
MODEL 6
REMARK VINA RESULT:      -8.1      1.637      2.135
REMARK  6 active torsions:
REMARK  status: ('A' for Active; 'I' for Inactive)
REMARK    1  A    between atoms: C11_18  and  O2_2 
REMARK    2  A    between atoms: C2_9  and  N1_5 
REMARK    3  A    between atoms: C3_10  and  N2_6 
REMARK       I    between atoms: C6_13  and  N2_6 
REMARK    4  A    between atoms: C1_8  and  C2_9 
REMARK    5  A    between atoms: C1_8  and  C3_10 
REMARK    6  A    between atoms: C4_11  and  C6_13 
ROOT
HETATM    1  O1  UNK     1      18.732   0.848  32.640  1.00  0.00    -0.271 OA
HETATM    2  O4  UNK     1      17.948   2.783  33.566  1.00  0.00    -0.259 OA
HETATM    3  C4  UNK     1      18.645   2.894  31.304  1.00  0.00     0.108 A 
HETATM    4  C5  UNK     1      19.477   0.841  30.326  1.00  0.00     0.002 A 
HETATM    5  C7  UNK     1      19.261   0.170  31.524  1.00  0.00     0.123 A 
HETATM    6  C8  UNK     1      19.146   2.255  30.241  1.00  0.00     0.037 A 
HETATM    7  C11 UNK     1      19.556  -1.185  31.670  1.00  0.00     0.102 A 
HETATM    8  C12 UNK     1      18.407   2.201  32.590  1.00  0.00     0.304 A 
HETATM    9  C13 UNK     1      20.004   0.134  29.242  1.00  0.00     0.014 A 
HETATM   10  C14 UNK     1      20.081  -1.882  30.585  1.00  0.00     0.040 A 
HETATM   11  C15 UNK     1      20.305  -1.225  29.373  1.00  0.00     0.004 A 
ENDROOT
BRANCH   3  12
HETATM   12  C6  UNK     1      18.343   4.320  31.121  1.00  0.00     0.257 C 
HETATM   13  O3  UNK     1      18.783   4.939  30.155  1.00  0.00    -0.267 OA
HETATM   14  N2  UNK     1      17.548   4.835  32.127  1.00  0.00    -0.357 N 
HETATM   15  H7  UNK     1      17.214   4.234  32.875  1.00  0.00     0.162 HD
BRANCH  14  16
HETATM   16  C3  UNK     1      17.120   6.216  32.166  1.00  0.00     0.124 C 
BRANCH  16  17
HETATM   17  C1  UNK     1      16.436   6.573  33.481  1.00  0.00     0.040 C 
BRANCH  17  18
HETATM   18  C2  UNK     1      17.375   7.291  34.452  1.00  0.00     0.131 C 
BRANCH  18  19
HETATM   19  N1  UNK     1      17.364   8.737  34.256  1.00  0.00    -0.350 N 
HETATM   20  C10 UNK     1      18.405   9.481  33.803  1.00  0.00     0.209 A 
HETATM   21  N3  UNK     1      18.086  10.755  33.736  1.00  0.00    -0.255 NA
HETATM   22  C16 UNK     1      16.783  10.811  34.168  1.00  0.00     0.135 A 
HETATM   23  C9  UNK     1      16.315   9.561  34.497  1.00  0.00     0.111 A 
ENDBRANCH  18  19
ENDBRANCH  17  18
ENDBRANCH  16  17
ENDBRANCH  14  16
ENDBRANCH   3  12
BRANCH   7  24
HETATM   24  O2  UNK     1      19.340  -1.829  32.848  1.00  0.00    -0.353 OA
HETATM   25  C17 UNK     1      20.450  -2.512  33.430  1.00  0.00     0.210 C 
ENDBRANCH   7  24
TORSDOF 6
ENDMDL
MODEL 7
REMARK VINA RESULT:      -7.8     12.787     16.375
REMARK  6 active torsions:
REMARK  status: ('A' for Active; 'I' for Inactive)
REMARK    1  A    between atoms: C11_18  and  O2_2 
REMARK    2  A    between atoms: C2_9  and  N1_5 
REMARK    3  A    between atoms: C3_10  and  N2_6 
REMARK       I    between atoms: C6_13  and  N2_6 
REMARK    4  A    between atoms: C1_8  and  C2_9 
REMARK    5  A    between atoms: C1_8  and  C3_10 
REMARK    6  A    between atoms: C4_11  and  C6_13 
ROOT
HETATM    1  O1  UNK     1      19.365   1.824  17.203  1.00  0.00    -0.271 OA
HETATM    2  O4  UNK     1      19.164   1.050  15.063  1.00  0.00    -0.259 OA
HETATM    3  C4  UNK     1      18.972  -0.554  16.796  1.00  0.00     0.108 A 
HETATM    4  C5  UNK     1      19.186   0.270  19.063  1.00  0.00     0.002 A 
HETATM    5  C7  UNK     1      19.374   1.563  18.587  1.00  0.00     0.123 A 
HETATM    6  C8  UNK     1      18.978  -0.809  18.110  1.00  0.00     0.037 A 
HETATM    7  C11 UNK     1      19.577   2.640  19.448  1.00  0.00     0.102 A 
HETATM    8  C12 UNK     1      19.170   0.813  16.266  1.00  0.00     0.304 A 
HETATM    9  C13 UNK     1      19.202   0.051  20.443  1.00  0.00     0.014 A 
HETATM   10  C14 UNK     1      19.592   2.413  20.822  1.00  0.00     0.040 A 
HETATM   11  C15 UNK     1      19.405   1.121  21.319  1.00  0.00     0.004 A 
ENDROOT
BRANCH   3  12
HETATM   12  C6  UNK     1      18.755  -1.708  15.914  1.00  0.00     0.257 C 
HETATM   13  O3  UNK     1      17.749  -2.405  16.023  1.00  0.00    -0.267 OA
HETATM   14  N2  UNK     1      19.779  -1.889  15.003  1.00  0.00    -0.357 N 
HETATM   15  H7  UNK     1      20.561  -1.241  14.976  1.00  0.00     0.162 HD
BRANCH  14  16
HETATM   16  C3  UNK     1      19.791  -2.959  14.032  1.00  0.00     0.124 C 
BRANCH  16  17
HETATM   17  C1  UNK     1      20.836  -4.022  14.354  1.00  0.00     0.040 C 
BRANCH  17  18
HETATM   18  C2  UNK     1      20.695  -4.567  15.776  1.00  0.00     0.131 C 
BRANCH  18  19
HETATM   19  N1  UNK     1      21.855  -4.249  16.602  1.00  0.00    -0.350 N 
HETATM   20  C10 UNK     1      21.924  -3.247  17.515  1.00  0.00     0.209 A 
HETATM   21  N3  UNK     1      23.102  -3.214  18.097  1.00  0.00    -0.255 NA
HETATM   22  C16 UNK     1      23.805  -4.244  17.522  1.00  0.00     0.135 A 
HETATM   23  C9  UNK     1      23.042  -4.903  16.585  1.00  0.00     0.111 A 
ENDBRANCH  18  19
ENDBRANCH  17  18
ENDBRANCH  16  17
ENDBRANCH  14  16
ENDBRANCH   3  12
BRANCH   7  24
HETATM   24  O2  UNK     1      19.759   3.900  18.968  1.00  0.00    -0.353 OA
HETATM   25  C17 UNK     1      21.077   4.251  18.545  1.00  0.00     0.210 C 
ENDBRANCH   7  24
TORSDOF 6
ENDMDL
MODEL 8
REMARK VINA RESULT:      -7.8      6.019     10.598
REMARK  6 active torsions:
REMARK  status: ('A' for Active; 'I' for Inactive)
REMARK    1  A    between atoms: C11_18  and  O2_2 
REMARK    2  A    between atoms: C2_9  and  N1_5 
REMARK    3  A    between atoms: C3_10  and  N2_6 
REMARK       I    between atoms: C6_13  and  N2_6 
REMARK    4  A    between atoms: C1_8  and  C2_9 
REMARK    5  A    between atoms: C1_8  and  C3_10 
REMARK    6  A    between atoms: C4_11  and  C6_13 
ROOT
HETATM    1  O1  UNK     1      19.835  -0.771  34.969  1.00  0.00    -0.271 OA
HETATM    2  O4  UNK     1      21.102  -2.508  34.198  1.00  0.00    -0.259 OA
HETATM    3  C4  UNK     1      19.892  -2.882  36.201  1.00  0.00     0.108 A 
HETATM    4  C5  UNK     1      18.551  -1.037  37.016  1.00  0.00     0.002 A 
HETATM    5  C7  UNK     1      18.954  -0.255  35.939  1.00  0.00     0.123 A 
HETATM    6  C8  UNK     1      19.054  -2.398  37.125  1.00  0.00     0.037 A 
HETATM    7  C11 UNK     1      18.507   1.055  35.776  1.00  0.00     0.102 A 
HETATM    8  C12 UNK     1      20.334  -2.068  35.046  1.00  0.00     0.304 A 
HETATM    9  C13 UNK     1      17.676  -0.490  37.957  1.00  0.00     0.014 A 
HETATM   10  C14 UNK     1      17.636   1.594  36.719  1.00  0.00     0.040 A 
HETATM   11  C15 UNK     1      17.221   0.823  37.808  1.00  0.00     0.004 A 
ENDROOT
BRANCH   3  12
HETATM   12  C6  UNK     1      20.345  -4.265  36.397  1.00  0.00     0.257 C 
HETATM   13  O3  UNK     1      20.279  -5.086  35.485  1.00  0.00    -0.267 OA
HETATM   14  N2  UNK     1      20.821  -4.499  37.674  1.00  0.00    -0.357 N 
HETATM   15  H7  UNK     1      20.857  -3.746  38.354  1.00  0.00     0.162 HD
BRANCH  14  16
HETATM   16  C3  UNK     1      21.320  -5.786  38.106  1.00  0.00     0.124 C 
BRANCH  16  17
HETATM   17  C1  UNK     1      20.252  -6.611  38.816  1.00  0.00     0.040 C 
BRANCH  17  18
HETATM   18  C2  UNK     1      19.808  -7.822  37.993  1.00  0.00     0.131 C 
BRANCH  18  19
HETATM   19  N1  UNK     1      18.705  -7.498  37.094  1.00  0.00    -0.350 N 
HETATM   20  C10 UNK     1      17.785  -6.519  37.292  1.00  0.00     0.209 A 
HETATM   21  N3  UNK     1      16.918  -6.475  36.305  1.00  0.00    -0.255 NA
HETATM   22  C16 UNK     1      17.312  -7.474  35.449  1.00  0.00     0.135 A 
HETATM   23  C9  UNK     1      18.427  -8.124  35.924  1.00  0.00     0.111 A 
ENDBRANCH  18  19
ENDBRANCH  17  18
ENDBRANCH  16  17
ENDBRANCH  14  16
ENDBRANCH   3  12
BRANCH   7  24
HETATM   24  O2  UNK     1      18.909   1.810  34.718  1.00  0.00    -0.353 OA
HETATM   25  C17 UNK     1      17.997   1.938  33.627  1.00  0.00     0.210 C 
ENDBRANCH   7  24
TORSDOF 6
ENDMDL
MODEL 9
REMARK VINA RESULT:      -7.8     13.965     17.551
REMARK  6 active torsions:
REMARK  status: ('A' for Active; 'I' for Inactive)
REMARK    1  A    between atoms: C11_18  and  O2_2 
REMARK    2  A    between atoms: C2_9  and  N1_5 
REMARK    3  A    between atoms: C3_10  and  N2_6 
REMARK       I    between atoms: C6_13  and  N2_6 
REMARK    4  A    between atoms: C1_8  and  C2_9 
REMARK    5  A    between atoms: C1_8  and  C3_10 
REMARK    6  A    between atoms: C4_11  and  C6_13 
ROOT
HETATM    1  O1  UNK     1      19.295   1.382  16.580  1.00  0.00    -0.271 OA
HETATM    2  O4  UNK     1      19.440   0.416  14.516  1.00  0.00    -0.259 OA
HETATM    3  C4  UNK     1      19.107  -1.045  16.352  1.00  0.00     0.108 A 
HETATM    4  C5  UNK     1      18.955  -0.016  18.539  1.00  0.00     0.002 A 
HETATM    5  C7  UNK     1      19.129   1.241  17.972  1.00  0.00     0.123 A 
HETATM    6  C8  UNK     1      18.947  -1.185  17.673  1.00  0.00     0.037 A 
HETATM    7  C11 UNK     1      19.144   2.400  18.746  1.00  0.00     0.102 A 
HETATM    8  C12 UNK     1      19.293   0.283  15.726  1.00  0.00     0.304 A 
HETATM    9  C13 UNK     1      18.794  -0.115  19.924  1.00  0.00     0.014 A 
HETATM   10  C14 UNK     1      18.983   2.293  20.125  1.00  0.00     0.040 A 
HETATM   11  C15 UNK     1      18.808   1.038  20.714  1.00  0.00     0.004 A 
ENDROOT
BRANCH   3  12
HETATM   12  C6  UNK     1      19.085  -2.282  15.562  1.00  0.00     0.257 C 
HETATM   13  O3  UNK     1      18.036  -2.896  15.380  1.00  0.00    -0.267 OA
HETATM   14  N2  UNK     1      20.333  -2.639  15.084  1.00  0.00    -0.357 N 
HETATM   15  H7  UNK     1      21.139  -2.050  15.270  1.00  0.00     0.162 HD
BRANCH  14  16
HETATM   16  C3  UNK     1      20.563  -3.820  14.283  1.00  0.00     0.124 C 
BRANCH  16  17
HETATM   17  C1  UNK     1      20.852  -5.051  15.135  1.00  0.00     0.040 C 
BRANCH  17  18
HETATM   18  C2  UNK     1      20.288  -6.332  14.519  1.00  0.00     0.131 C 
BRANCH  18  19
HETATM   19  N1  UNK     1      18.830  -6.362  14.556  1.00  0.00    -0.350 N 
HETATM   20  C10 UNK     1      18.011  -6.387  13.473  1.00  0.00     0.209 A 
HETATM   21  N3  UNK     1      16.747  -6.410  13.833  1.00  0.00    -0.255 NA
HETATM   22  C16 UNK     1      16.774  -6.399  15.206  1.00  0.00     0.135 A 
HETATM   23  C9  UNK     1      18.066  -6.369  15.677  1.00  0.00     0.111 A 
ENDBRANCH  18  19
ENDBRANCH  17  18
ENDBRANCH  16  17
ENDBRANCH  14  16
ENDBRANCH   3  12
BRANCH   7  24
HETATM   24  O2  UNK     1      19.315   3.624  18.178  1.00  0.00    -0.353 OA
HETATM   25  C17 UNK     1      20.576   4.264  18.376  1.00  0.00     0.210 C 
ENDBRANCH   7  24
TORSDOF 6
ENDMDL
MODEL 10
REMARK VINA RESULT:      -7.7      6.223      9.414
REMARK  6 active torsions:
REMARK  status: ('A' for Active; 'I' for Inactive)
REMARK    1  A    between atoms: C11_18  and  O2_2 
REMARK    2  A    between atoms: C2_9  and  N1_5 
REMARK    3  A    between atoms: C3_10  and  N2_6 
REMARK       I    between atoms: C6_13  and  N2_6 
REMARK    4  A    between atoms: C1_8  and  C2_9 
REMARK    5  A    between atoms: C1_8  and  C3_10 
REMARK    6  A    between atoms: C4_11  and  C6_13 
ROOT
HETATM    1  O1  UNK     1      19.057  -7.567  37.550  1.00  0.00    -0.271 OA
HETATM    2  O4  UNK     1      17.799  -6.258  36.165  1.00  0.00    -0.259 OA
HETATM    3  C4  UNK     1      19.768  -5.282  37.050  1.00  0.00     0.108 A 
HETATM    4  C5  UNK     1      21.099  -6.673  38.520  1.00  0.00     0.002 A 
HETATM    5  C7  UNK     1      20.195  -7.718  38.367  1.00  0.00     0.123 A 
HETATM    6  C8  UNK     1      20.851  -5.420  37.824  1.00  0.00     0.037 A 
HETATM    7  C11 UNK     1      20.376  -8.944  39.006  1.00  0.00     0.102 A 
HETATM    8  C12 UNK     1      18.792  -6.381  36.872  1.00  0.00     0.304 A 
HETATM    9  C13 UNK     1      22.216  -6.860  39.339  1.00  0.00     0.014 A 
HETATM   10  C14 UNK     1      21.491  -9.123  39.820  1.00  0.00     0.040 A 
HETATM   11  C15 UNK     1      22.410  -8.084  39.986  1.00  0.00     0.004 A 
ENDROOT
BRANCH   3  12
HETATM   12  C6  UNK     1      19.605  -3.981  36.389  1.00  0.00     0.257 C 
HETATM   13  O3  UNK     1      20.344  -3.645  35.467  1.00  0.00    -0.267 OA
HETATM   14  N2  UNK     1      18.570  -3.233  36.920  1.00  0.00    -0.357 N 
HETATM   15  H7  UNK     1      17.998  -3.610  37.670  1.00  0.00     0.162 HD
BRANCH  14  16
HETATM   16  C3  UNK     1      18.218  -1.917  36.436  1.00  0.00     0.124 C 
BRANCH  16  17
HETATM   17  C1  UNK     1      17.709  -1.007  37.549  1.00  0.00     0.040 C 
BRANCH  17  18
HETATM   18  C2  UNK     1      16.844   0.137  37.017  1.00  0.00     0.131 C 
BRANCH  18  19
HETATM   19  N1  UNK     1      17.543   0.928  36.009  1.00  0.00    -0.350 N 
HETATM   20  C10 UNK     1      18.619   1.724  36.234  1.00  0.00     0.209 A 
HETATM   21  N3  UNK     1      19.021   2.306  35.126  1.00  0.00    -0.255 NA
HETATM   22  C16 UNK     1      18.155   1.854  34.161  1.00  0.00     0.135 A 
HETATM   23  C9  UNK     1      17.225   0.992  34.692  1.00  0.00     0.111 A 
ENDBRANCH  18  19
ENDBRANCH  17  18
ENDBRANCH  16  17
ENDBRANCH  14  16
ENDBRANCH   3  12
BRANCH   7  24
HETATM   24  O2  UNK     1      19.484  -9.958  38.847  1.00  0.00    -0.353 OA
HETATM   25  C17 UNK     1      19.802 -10.960  37.881  1.00  0.00     0.210 C 
ENDBRANCH   7  24
TORSDOF 6
ENDMDL
