MODEL 1
REMARK VINA RESULT:      -7.4      0.000      0.000
REMARK  5 active torsions:
REMARK  status: ('A' for Active; 'I' for Inactive)
REMARK    1  A    between atoms: C12_15  and  O1_1 
REMARK    2  A    between atoms: C9_12  and  N1_3 
REMARK    3  A    between atoms: C1_4  and  C2_5 
REMARK    4  A    between atoms: C1_4  and  C12_15 
REMARK    5  A    between atoms: C3_6  and  C4_7 
ROOT
HETATM    1  C1  UNK     1      18.355   7.986  33.267  1.00  0.00     0.050 C 
HETATM    2  C4  UNK     1      19.260   7.061  32.856  1.00  0.00     0.030 C 
ENDROOT
BRANCH   1   3
HETATM    3  C2  UNK     1      16.904   7.781  33.100  1.00  0.00    -0.020 A 
HETATM    4  C7  UNK     1      16.115   7.579  34.220  1.00  0.00     0.012 A 
HETATM    5  C13 UNK     1      14.743   7.385  34.062  1.00  0.00     0.001 A 
HETATM    6  C15 UNK     1      14.180   7.397  32.786  1.00  0.00     0.000 A 
HETATM    7  C14 UNK     1      14.989   7.604  31.668  1.00  0.00     0.001 A 
HETATM    8  C8  UNK     1      16.360   7.797  31.827  1.00  0.00     0.012 A 
ENDBRANCH   1   3
BRANCH   1   9
HETATM    9  C12 UNK     1      18.901   9.229  33.896  1.00  0.00     0.293 C 
HETATM   10  O2  UNK     1      19.881   9.267  34.626  1.00  0.00    -0.259 OA
BRANCH   9  11
HETATM   11  O1  UNK     1      18.144  10.299  33.523  1.00  0.00    -0.322 OA
HETATM   12  C16 UNK     1      18.543  11.561  34.066  1.00  0.00     0.213 C 
ENDBRANCH   9  11
ENDBRANCH   1   9
BRANCH   2  13
HETATM   13  C3  UNK     1      18.956   5.782  32.234  1.00  0.00    -0.035 A 
HETATM   14  C5  UNK     1      19.257   5.572  30.888  1.00  0.00     0.013 A 
HETATM   15  C10 UNK     1      18.965   4.346  30.291  1.00  0.00     0.030 A 
HETATM   16  C9  UNK     1      18.375   3.329  31.041  1.00  0.00     0.025 A 
HETATM   17  C11 UNK     1      18.075   3.538  32.387  1.00  0.00     0.030 A 
HETATM   18  C6  UNK     1      18.366   4.765  32.983  1.00  0.00     0.013 A 
BRANCH  16  19
HETATM   19  N1  UNK     1      18.080   2.088  30.437  1.00  0.00    -0.399 N 
HETATM   20  H11 UNK     1      18.645   1.277  30.646  1.00  0.00     0.156 HD
HETATM   21  H12 UNK     1      17.301   2.009  29.797  1.00  0.00     0.156 HD
ENDBRANCH  16  19
ENDBRANCH   2  13
TORSDOF 5
ENDMDL
MODEL 2
REMARK VINA RESULT:      -6.5     22.995     24.628
REMARK  5 active torsions:
REMARK  status: ('A' for Active; 'I' for Inactive)
REMARK    1  A    between atoms: C12_15  and  O1_1 
REMARK    2  A    between atoms: C9_12  and  N1_3 
REMARK    3  A    between atoms: C1_4  and  C2_5 
REMARK    4  A    between atoms: C1_4  and  C12_15 
REMARK    5  A    between atoms: C3_6  and  C4_7 
ROOT
HETATM    1  C1  UNK     1      14.502   6.267   9.228  1.00  0.00     0.050 C 
HETATM    2  C4  UNK     1      13.717   5.426   8.508  1.00  0.00     0.030 C 
ENDROOT
BRANCH   1   3
HETATM    3  C2  UNK     1      14.100   7.660   9.505  1.00  0.00    -0.020 A 
HETATM    4  C7  UNK     1      14.558   8.673   8.679  1.00  0.00     0.012 A 
HETATM    5  C13 UNK     1      14.178   9.989   8.940  1.00  0.00     0.001 A 
HETATM    6  C15 UNK     1      13.345  10.273  10.022  1.00  0.00     0.000 A 
HETATM    7  C14 UNK     1      12.892   9.240  10.844  1.00  0.00     0.001 A 
HETATM    8  C8  UNK     1      13.273   7.924  10.583  1.00  0.00     0.012 A 
ENDBRANCH   1   3
BRANCH   1   9
HETATM    9  C12 UNK     1      15.801   5.716   9.727  1.00  0.00     0.293 C 
HETATM   10  O2  UNK     1      16.266   4.632   9.406  1.00  0.00    -0.259 OA
BRANCH   9  11
HETATM   11  O1  UNK     1      16.379   6.608  10.579  1.00  0.00    -0.322 OA
HETATM   12  C16 UNK     1      17.607   7.190  10.130  1.00  0.00     0.213 C 
ENDBRANCH   9  11
ENDBRANCH   1   9
BRANCH   2  13
HETATM   13  C3  UNK     1      12.417   5.743   7.939  1.00  0.00    -0.035 A 
HETATM   14  C5  UNK     1      11.257   5.501   8.674  1.00  0.00     0.013 A 
HETATM   15  C10 UNK     1      10.010   5.805   8.129  1.00  0.00     0.030 A 
HETATM   16  C9  UNK     1       9.923   6.353   6.849  1.00  0.00     0.025 A 
HETATM   17  C11 UNK     1      11.084   6.596   6.115  1.00  0.00     0.030 A 
HETATM   18  C6  UNK     1      12.331   6.291   6.659  1.00  0.00     0.013 A 
BRANCH  16  19
HETATM   19  N1  UNK     1       8.662   6.661   6.298  1.00  0.00    -0.399 N 
HETATM   20  H11 UNK     1       7.870   6.825   6.904  1.00  0.00     0.156 HD
HETATM   21  H12 UNK     1       8.549   6.721   5.294  1.00  0.00     0.156 HD
ENDBRANCH  16  19
ENDBRANCH   2  13
TORSDOF 5
ENDMDL
MODEL 3
REMARK VINA RESULT:      -6.5      1.983      3.699
REMARK  5 active torsions:
REMARK  status: ('A' for Active; 'I' for Inactive)
REMARK    1  A    between atoms: C12_15  and  O1_1 
REMARK    2  A    between atoms: C9_12  and  N1_3 
REMARK    3  A    between atoms: C1_4  and  C2_5 
REMARK    4  A    between atoms: C1_4  and  C12_15 
REMARK    5  A    between atoms: C3_6  and  C4_7 
ROOT
HETATM    1  C1  UNK     1      16.352   8.646  33.870  1.00  0.00     0.050 C 
HETATM    2  C4  UNK     1      16.028   7.594  33.075  1.00  0.00     0.030 C 
ENDROOT
BRANCH   1   3
HETATM    3  C2  UNK     1      17.754   9.040  34.104  1.00  0.00    -0.020 A 
HETATM    4  C7  UNK     1      18.655   8.094  34.565  1.00  0.00     0.012 A 
HETATM    5  C13 UNK     1      19.980   8.466  34.786  1.00  0.00     0.001 A 
HETATM    6  C15 UNK     1      20.386   9.778  34.543  1.00  0.00     0.000 A 
HETATM    7  C14 UNK     1      19.465  10.719  34.078  1.00  0.00     0.001 A 
HETATM    8  C8  UNK     1      18.140  10.346  33.857  1.00  0.00     0.012 A 
ENDBRANCH   1   3
BRANCH   1   9
HETATM    9  C12 UNK     1      15.216   9.386  34.504  1.00  0.00     0.293 C 
HETATM   10  O2  UNK     1      15.260   9.919  35.604  1.00  0.00    -0.259 OA
BRANCH   9  11
HETATM   11  O1  UNK     1      14.141   9.376  33.667  1.00  0.00    -0.322 OA
HETATM   12  C16 UNK     1      13.561  10.654  33.386  1.00  0.00     0.213 C 
ENDBRANCH   9  11
ENDBRANCH   1   9
BRANCH   2  13
HETATM   13  C3  UNK     1      16.962   6.745  32.353  1.00  0.00    -0.035 A 
HETATM   14  C5  UNK     1      17.509   7.180  31.146  1.00  0.00     0.013 A 
HETATM   15  C10 UNK     1      18.405   6.366  30.453  1.00  0.00     0.030 A 
HETATM   16  C9  UNK     1      18.757   5.119  30.969  1.00  0.00     0.025 A 
HETATM   17  C11 UNK     1      18.211   4.685  32.178  1.00  0.00     0.030 A 
HETATM   18  C6  UNK     1      17.314   5.498  32.869  1.00  0.00     0.013 A 
BRANCH  16  19
HETATM   19  N1  UNK     1      19.663   4.296  30.269  1.00  0.00    -0.399 N 
HETATM   20  H11 UNK     1      19.493   3.303  30.196  1.00  0.00     0.156 HD
HETATM   21  H12 UNK     1      20.484   4.700  29.836  1.00  0.00     0.156 HD
ENDBRANCH  16  19
ENDBRANCH   2  13
TORSDOF 5
ENDMDL
MODEL 4
REMARK VINA RESULT:      -6.5     13.881     16.903
REMARK  5 active torsions:
REMARK  status: ('A' for Active; 'I' for Inactive)
REMARK    1  A    between atoms: C12_15  and  O1_1 
REMARK    2  A    between atoms: C9_12  and  N1_3 
REMARK    3  A    between atoms: C1_4  and  C2_5 
REMARK    4  A    between atoms: C1_4  and  C12_15 
REMARK    5  A    between atoms: C3_6  and  C4_7 
ROOT
HETATM    1  C1  UNK     1      21.405  -9.299  35.983  1.00  0.00     0.050 C 
HETATM    2  C4  UNK     1      20.562  -8.550  35.226  1.00  0.00     0.030 C 
ENDROOT
BRANCH   1   3
HETATM    3  C2  UNK     1      21.732  -8.932  37.374  1.00  0.00    -0.020 A 
HETATM    4  C7  UNK     1      22.880  -8.199  37.629  1.00  0.00     0.012 A 
HETATM    5  C13 UNK     1      23.190  -7.853  38.943  1.00  0.00     0.001 A 
HETATM    6  C15 UNK     1      22.348  -8.244  39.984  1.00  0.00     0.000 A 
HETATM    7  C14 UNK     1      21.196  -8.981  39.710  1.00  0.00     0.001 A 
HETATM    8  C8  UNK     1      20.886  -9.328  38.396  1.00  0.00     0.012 A 
ENDBRANCH   1   3
BRANCH   1   9
HETATM    9  C12 UNK     1      21.991 -10.514  35.337  1.00  0.00     0.293 C 
HETATM   10  O2  UNK     1      21.866 -10.802  34.155  1.00  0.00    -0.259 OA
BRANCH   9  11
HETATM   11  O1  UNK     1      22.684 -11.234  36.262  1.00  0.00    -0.322 OA
HETATM   12  C16 UNK     1      23.871 -11.878  35.788  1.00  0.00     0.213 C 
ENDBRANCH   9  11
ENDBRANCH   1   9
BRANCH   2  13
HETATM   13  C3  UNK     1      19.872  -7.342  35.651  1.00  0.00    -0.035 A 
HETATM   14  C5  UNK     1      18.571  -7.420  36.148  1.00  0.00     0.013 A 
HETATM   15  C10 UNK     1      17.910  -6.262  36.556  1.00  0.00     0.030 A 
HETATM   16  C9  UNK     1      18.551  -5.026  36.468  1.00  0.00     0.025 A 
HETATM   17  C11 UNK     1      19.852  -4.948  35.972  1.00  0.00     0.030 A 
HETATM   18  C6  UNK     1      20.513  -6.106  35.564  1.00  0.00     0.013 A 
BRANCH  16  19
HETATM   19  N1  UNK     1      17.882  -3.855  36.881  1.00  0.00    -0.399 N 
HETATM   20  H11 UNK     1      17.027  -3.571  36.421  1.00  0.00     0.156 HD
HETATM   21  H12 UNK     1      18.255  -3.298  37.639  1.00  0.00     0.156 HD
ENDBRANCH  16  19
ENDBRANCH   2  13
TORSDOF 5
ENDMDL
MODEL 5
REMARK VINA RESULT:      -6.5     19.955     21.483
REMARK  5 active torsions:
REMARK  status: ('A' for Active; 'I' for Inactive)
REMARK    1  A    between atoms: C12_15  and  O1_1 
REMARK    2  A    between atoms: C9_12  and  N1_3 
REMARK    3  A    between atoms: C1_4  and  C2_5 
REMARK    4  A    between atoms: C1_4  and  C12_15 
REMARK    5  A    between atoms: C3_6  and  C4_7 
ROOT
HETATM    1  C1  UNK     1      21.268  -4.223  15.740  1.00  0.00     0.050 C 
HETATM    2  C4  UNK     1      20.898  -5.529  15.739  1.00  0.00     0.030 C 
ENDROOT
BRANCH   1   3
HETATM    3  C2  UNK     1      20.513  -3.200  14.991  1.00  0.00    -0.020 A 
HETATM    4  C7  UNK     1      20.944  -2.830  13.728  1.00  0.00     0.012 A 
HETATM    5  C13 UNK     1      20.230  -1.863  13.020  1.00  0.00     0.001 A 
HETATM    6  C15 UNK     1      19.095  -1.282  13.586  1.00  0.00     0.000 A 
HETATM    7  C14 UNK     1      18.674  -1.667  14.859  1.00  0.00     0.001 A 
HETATM    8  C8  UNK     1      19.389  -2.633  15.566  1.00  0.00     0.012 A 
ENDBRANCH   1   3
BRANCH   1   9
HETATM    9  C12 UNK     1      22.486  -3.868  16.534  1.00  0.00     0.293 C 
HETATM   10  O2  UNK     1      22.555  -2.938  17.324  1.00  0.00    -0.259 OA
BRANCH   9  11
HETATM   11  O1  UNK     1      23.490  -4.743  16.244  1.00  0.00    -0.322 OA
HETATM   12  C16 UNK     1      24.678  -4.607  17.031  1.00  0.00     0.213 C 
ENDBRANCH   9  11
ENDBRANCH   1   9
BRANCH   2  13
HETATM   13  C3  UNK     1      19.748  -6.093  15.050  1.00  0.00    -0.035 A 
HETATM   14  C5  UNK     1      18.518  -6.178  15.701  1.00  0.00     0.013 A 
HETATM   15  C10 UNK     1      17.415  -6.719  15.041  1.00  0.00     0.030 A 
HETATM   16  C9  UNK     1      17.542  -7.173  13.728  1.00  0.00     0.025 A 
HETATM   17  C11 UNK     1      18.773  -7.087  13.077  1.00  0.00     0.030 A 
HETATM   18  C6  UNK     1      19.875  -6.547  13.738  1.00  0.00     0.013 A 
BRANCH  16  19
HETATM   19  N1  UNK     1      16.427  -7.720  13.060  1.00  0.00    -0.399 N 
HETATM   20  H11 UNK     1      15.875  -7.144  12.440  1.00  0.00     0.156 HD
HETATM   21  H12 UNK     1      16.180  -8.692  13.198  1.00  0.00     0.156 HD
ENDBRANCH  16  19
ENDBRANCH   2  13
TORSDOF 5
ENDMDL
MODEL 6
REMARK VINA RESULT:      -6.4      3.588      6.058
REMARK  5 active torsions:
REMARK  status: ('A' for Active; 'I' for Inactive)
REMARK    1  A    between atoms: C12_15  and  O1_1 
REMARK    2  A    between atoms: C9_12  and  N1_3 
REMARK    3  A    between atoms: C1_4  and  C2_5 
REMARK    4  A    between atoms: C1_4  and  C12_15 
REMARK    5  A    between atoms: C3_6  and  C4_7 
ROOT
HETATM    1  C1  UNK     1      18.487   5.016  33.431  1.00  0.00     0.050 C 
HETATM    2  C4  UNK     1      18.147   5.946  34.360  1.00  0.00     0.030 C 
ENDROOT
BRANCH   1   3
HETATM    3  C2  UNK     1      19.101   5.392  32.143  1.00  0.00    -0.020 A 
HETATM    4  C7  UNK     1      18.287   5.609  31.043  1.00  0.00     0.012 A 
HETATM    5  C13 UNK     1      18.867   5.964  29.826  1.00  0.00     0.001 A 
HETATM    6  C15 UNK     1      20.252   6.099  29.727  1.00  0.00     0.000 A 
HETATM    7  C14 UNK     1      21.057   5.878  30.845  1.00  0.00     0.001 A 
HETATM    8  C8  UNK     1      20.476   5.522  32.062  1.00  0.00     0.012 A 
ENDBRANCH   1   3
BRANCH   1   9
HETATM    9  C12 UNK     1      18.203   3.587  33.773  1.00  0.00     0.293 C 
HETATM   10  O2  UNK     1      17.751   2.761  32.994  1.00  0.00    -0.259 OA
BRANCH   9  11
HETATM   11  O1  UNK     1      18.533   3.356  35.075  1.00  0.00    -0.322 OA
HETATM   12  C16 UNK     1      18.637   1.980  35.454  1.00  0.00     0.213 C 
ENDBRANCH   9  11
ENDBRANCH   1   9
BRANCH   2  13
HETATM   13  C3  UNK     1      18.341   7.383  34.245  1.00  0.00    -0.035 A 
HETATM   14  C5  UNK     1      17.291   8.196  33.818  1.00  0.00     0.013 A 
HETATM   15  C10 UNK     1      17.477   9.574  33.708  1.00  0.00     0.030 A 
HETATM   16  C9  UNK     1      18.712  10.139  34.027  1.00  0.00     0.025 A 
HETATM   17  C11 UNK     1      19.761   9.325  34.454  1.00  0.00     0.030 A 
HETATM   18  C6  UNK     1      19.576   7.947  34.564  1.00  0.00     0.013 A 
BRANCH  16  19
HETATM   19  N1  UNK     1      18.900  11.532  33.915  1.00  0.00    -0.399 N 
HETATM   20  H11 UNK     1      19.261  11.928  33.058  1.00  0.00     0.156 HD
HETATM   21  H12 UNK     1      18.670  12.138  34.692  1.00  0.00     0.156 HD
ENDBRANCH  16  19
ENDBRANCH   2  13
TORSDOF 5
ENDMDL
MODEL 7
REMARK VINA RESULT:      -6.4     18.362     21.204
REMARK  5 active torsions:
REMARK  status: ('A' for Active; 'I' for Inactive)
REMARK    1  A    between atoms: C12_15  and  O1_1 
REMARK    2  A    between atoms: C9_12  and  N1_3 
REMARK    3  A    between atoms: C1_4  and  C2_5 
REMARK    4  A    between atoms: C1_4  and  C12_15 
REMARK    5  A    between atoms: C3_6  and  C4_7 
ROOT
HETATM    1  C1  UNK     1      19.147  -2.230  15.444  1.00  0.00     0.050 C 
HETATM    2  C4  UNK     1      19.061  -1.513  14.294  1.00  0.00     0.030 C 
ENDROOT
BRANCH   1   3
HETATM    3  C2  UNK     1      19.814  -3.546  15.491  1.00  0.00    -0.020 A 
HETATM    4  C7  UNK     1      19.053  -4.695  15.355  1.00  0.00     0.012 A 
HETATM    5  C13 UNK     1      19.682  -5.939  15.400  1.00  0.00     0.001 A 
HETATM    6  C15 UNK     1      21.063  -6.014  15.579  1.00  0.00     0.000 A 
HETATM    7  C14 UNK     1      21.815  -4.846  15.713  1.00  0.00     0.001 A 
HETATM    8  C8  UNK     1      21.185  -3.604  15.669  1.00  0.00     0.012 A 
ENDBRANCH   1   3
BRANCH   1   9
HETATM    9  C12 UNK     1      18.528  -1.624  16.664  1.00  0.00     0.293 C 
HETATM   10  O2  UNK     1      17.352  -1.741  16.978  1.00  0.00    -0.259 OA
BRANCH   9  11
HETATM   11  O1  UNK     1      19.474  -0.936  17.362  1.00  0.00    -0.322 OA
HETATM   12  C16 UNK     1      18.990   0.148  18.161  1.00  0.00     0.213 C 
ENDBRANCH   9  11
ENDBRANCH   1   9
BRANCH   2  13
HETATM   13  C3  UNK     1      19.599  -1.901  13.000  1.00  0.00    -0.035 A 
HETATM   14  C5  UNK     1      19.008  -2.940  12.282  1.00  0.00     0.013 A 
HETATM   15  C10 UNK     1      19.524  -3.312  11.040  1.00  0.00     0.030 A 
HETATM   16  C9  UNK     1      20.630  -2.643  10.517  1.00  0.00     0.025 A 
HETATM   17  C11 UNK     1      21.221  -1.603  11.234  1.00  0.00     0.030 A 
HETATM   18  C6  UNK     1      20.705  -1.232  12.476  1.00  0.00     0.013 A 
BRANCH  16  19
HETATM   19  N1  UNK     1      21.152  -3.019   9.261  1.00  0.00    -0.399 N 
HETATM   20  H11 UNK     1      21.032  -3.965   8.926  1.00  0.00     0.156 HD
HETATM   21  H12 UNK     1      21.644  -2.341   8.693  1.00  0.00     0.156 HD
ENDBRANCH  16  19
ENDBRANCH   2  13
TORSDOF 5
ENDMDL
MODEL 8
REMARK VINA RESULT:      -6.3      1.884      4.126
REMARK  5 active torsions:
REMARK  status: ('A' for Active; 'I' for Inactive)
REMARK    1  A    between atoms: C12_15  and  O1_1 
REMARK    2  A    between atoms: C9_12  and  N1_3 
REMARK    3  A    between atoms: C1_4  and  C2_5 
REMARK    4  A    between atoms: C1_4  and  C12_15 
REMARK    5  A    between atoms: C3_6  and  C4_7 
ROOT
HETATM    1  C1  UNK     1      18.418   6.659  32.932  1.00  0.00     0.050 C 
HETATM    2  C4  UNK     1      17.639   5.655  33.410  1.00  0.00     0.030 C 
ENDROOT
BRANCH   1   3
HETATM    3  C2  UNK     1      19.700   6.392  32.252  1.00  0.00    -0.020 A 
HETATM    4  C7  UNK     1      20.870   6.377  32.994  1.00  0.00     0.012 A 
HETATM    5  C13 UNK     1      22.081   6.125  32.351  1.00  0.00     0.001 A 
HETATM    6  C15 UNK     1      22.105   5.890  30.976  1.00  0.00     0.000 A 
HETATM    7  C14 UNK     1      20.917   5.908  30.244  1.00  0.00     0.001 A 
HETATM    8  C8  UNK     1      19.706   6.161  30.887  1.00  0.00     0.012 A 
ENDBRANCH   1   3
BRANCH   1   9
HETATM    9  C12 UNK     1      17.917   8.054  33.134  1.00  0.00     0.293 C 
HETATM   10  O2  UNK     1      18.235   8.780  34.065  1.00  0.00    -0.259 OA
BRANCH   9  11
HETATM   11  O1  UNK     1      17.066   8.384  32.123  1.00  0.00    -0.322 OA
HETATM   12  C16 UNK     1      15.748   8.771  32.521  1.00  0.00     0.213 C 
ENDBRANCH   9  11
ENDBRANCH   1   9
BRANCH   2  13
HETATM   13  C3  UNK     1      17.922   4.231  33.315  1.00  0.00    -0.035 A 
HETATM   14  C5  UNK     1      18.146   3.486  34.473  1.00  0.00     0.013 A 
HETATM   15  C10 UNK     1      18.417   2.121  34.382  1.00  0.00     0.030 A 
HETATM   16  C9  UNK     1      18.463   1.501  33.133  1.00  0.00     0.025 A 
HETATM   17  C11 UNK     1      18.239   2.246  31.976  1.00  0.00     0.030 A 
HETATM   18  C6  UNK     1      17.969   3.611  32.067  1.00  0.00     0.013 A 
BRANCH  16  19
HETATM   19  N1  UNK     1      18.738   0.121  33.042  1.00  0.00    -0.399 N 
HETATM   20  H11 UNK     1      19.612  -0.197  32.646  1.00  0.00     0.156 HD
HETATM   21  H12 UNK     1      18.061  -0.554  33.374  1.00  0.00     0.156 HD
ENDBRANCH  16  19
ENDBRANCH   2  13
TORSDOF 5
ENDMDL
MODEL 9
REMARK VINA RESULT:      -6.3     17.369     19.571
REMARK  5 active torsions:
REMARK  status: ('A' for Active; 'I' for Inactive)
REMARK    1  A    between atoms: C12_15  and  O1_1 
REMARK    2  A    between atoms: C9_12  and  N1_3 
REMARK    3  A    between atoms: C1_4  and  C2_5 
REMARK    4  A    between atoms: C1_4  and  C12_15 
REMARK    5  A    between atoms: C3_6  and  C4_7 
ROOT
HETATM    1  C1  UNK     1      30.275  -5.372  38.305  1.00  0.00     0.050 C 
HETATM    2  C4  UNK     1      31.432  -4.682  38.139  1.00  0.00     0.030 C 
ENDROOT
BRANCH   1   3
HETATM    3  C2  UNK     1      30.007  -6.627  37.577  1.00  0.00    -0.020 A 
HETATM    4  C7  UNK     1      29.423  -6.571  36.322  1.00  0.00     0.012 A 
HETATM    5  C13 UNK     1      29.169  -7.757  35.635  1.00  0.00     0.001 A 
HETATM    6  C15 UNK     1      29.506  -8.982  36.211  1.00  0.00     0.000 A 
HETATM    7  C14 UNK     1      30.095  -9.021  37.475  1.00  0.00     0.001 A 
HETATM    8  C8  UNK     1      30.347  -7.834  38.162  1.00  0.00     0.012 A 
ENDBRANCH   1   3
BRANCH   1   9
HETATM    9  C12 UNK     1      29.277  -4.794  39.258  1.00  0.00     0.293 C 
HETATM   10  O2  UNK     1      29.436  -3.759  39.889  1.00  0.00    -0.259 OA
BRANCH   9  11
HETATM   11  O1  UNK     1      28.174  -5.592  39.304  1.00  0.00    -0.322 OA
HETATM   12  C16 UNK     1      26.991  -5.053  38.704  1.00  0.00     0.213 C 
ENDBRANCH   9  11
ENDBRANCH   1   9
BRANCH   2  13
HETATM   13  C3  UNK     1      32.541  -5.062  37.278  1.00  0.00    -0.035 A 
HETATM   14  C5  UNK     1      32.603  -4.582  35.969  1.00  0.00     0.013 A 
HETATM   15  C10 UNK     1      33.666  -4.946  35.143  1.00  0.00     0.030 A 
HETATM   16  C9  UNK     1      34.667  -5.788  35.625  1.00  0.00     0.025 A 
HETATM   17  C11 UNK     1      34.605  -6.267  36.934  1.00  0.00     0.030 A 
HETATM   18  C6  UNK     1      33.542  -5.904  37.760  1.00  0.00     0.013 A 
BRANCH  16  19
HETATM   19  N1  UNK     1      35.742  -6.156  34.790  1.00  0.00    -0.399 N 
HETATM   20  H11 UNK     1      36.492  -6.729  35.151  1.00  0.00     0.156 HD
HETATM   21  H12 UNK     1      35.762  -5.849  33.826  1.00  0.00     0.156 HD
ENDBRANCH  16  19
ENDBRANCH   2  13
TORSDOF 5
ENDMDL
MODEL 10
REMARK VINA RESULT:      -6.2     14.463     17.032
REMARK  5 active torsions:
REMARK  status: ('A' for Active; 'I' for Inactive)
REMARK    1  A    between atoms: C12_15  and  O1_1 
REMARK    2  A    between atoms: C9_12  and  N1_3 
REMARK    3  A    between atoms: C1_4  and  C2_5 
REMARK    4  A    between atoms: C1_4  and  C12_15 
REMARK    5  A    between atoms: C3_6  and  C4_7 
ROOT
HETATM    1  C1  UNK     1      20.172  -8.112  35.922  1.00  0.00     0.050 C 
HETATM    2  C4  UNK     1      21.202  -8.533  35.144  1.00  0.00     0.030 C 
ENDROOT
BRANCH   1   3
HETATM    3  C2  UNK     1      19.934  -8.672  37.266  1.00  0.00    -0.020 A 
HETATM    4  C7  UNK     1      20.217  -7.900  38.381  1.00  0.00     0.012 A 
HETATM    5  C13 UNK     1      19.993  -8.429  39.651  1.00  0.00     0.001 A 
HETATM    6  C15 UNK     1      19.487  -9.722  39.788  1.00  0.00     0.000 A 
HETATM    7  C14 UNK     1      19.207 -10.486  38.655  1.00  0.00     0.001 A 
HETATM    8  C8  UNK     1      19.433  -9.957  37.385  1.00  0.00     0.012 A 
ENDBRANCH   1   3
BRANCH   1   9
HETATM    9  C12 UNK     1      19.284  -7.053  35.348  1.00  0.00     0.293 C 
HETATM   10  O2  UNK     1      18.092  -7.195  35.117  1.00  0.00    -0.259 OA
BRANCH   9  11
HETATM   11  O1  UNK     1      20.006  -5.918  35.136  1.00  0.00    -0.322 OA
HETATM   12  C16 UNK     1      19.864  -4.896  36.128  1.00  0.00     0.213 C 
ENDBRANCH   9  11
ENDBRANCH   1   9
BRANCH   2  13
HETATM   13  C3  UNK     1      22.191  -9.537  35.501  1.00  0.00    -0.035 A 
HETATM   14  C5  UNK     1      23.263  -9.198  36.327  1.00  0.00     0.013 A 
HETATM   15  C10 UNK     1      24.212 -10.162  36.669  1.00  0.00     0.030 A 
HETATM   16  C9  UNK     1      24.087 -11.465  36.188  1.00  0.00     0.025 A 
HETATM   17  C11 UNK     1      23.015 -11.804  35.363  1.00  0.00     0.030 A 
HETATM   18  C6  UNK     1      22.067 -10.841  35.020  1.00  0.00     0.013 A 
BRANCH  16  19
HETATM   19  N1  UNK     1      25.046 -12.439  36.534  1.00  0.00    -0.399 N 
HETATM   20  H11 UNK     1      25.266 -13.186  35.889  1.00  0.00     0.156 HD
HETATM   21  H12 UNK     1      25.519 -12.390  37.428  1.00  0.00     0.156 HD
ENDBRANCH  16  19
ENDBRANCH   2  13
TORSDOF 5
ENDMDL
