MODEL 1
REMARK VINA RESULT:      -9.0      0.000      0.000
REMARK  4 active torsions:
REMARK  status: ('A' for Active; 'I' for Inactive)
REMARK    1  A    between atoms: C12_16  and  O1_1 
REMARK    2  A    between atoms: C15_19  and  O1_1 
REMARK    3  A    between atoms: C1_5  and  C2_6 
REMARK    4  A    between atoms: C10_14  and  C12_16 
ROOT
HETATM    1  O1  UNK     1      19.501  -4.989  35.721  1.00  0.00    -0.275 OA
ENDROOT
BRANCH   1   2
HETATM    2  C12 UNK     1      20.237  -4.049  36.446  1.00  0.00     0.298 C 
HETATM    3  O3  UNK     1      21.343  -4.233  36.932  1.00  0.00    -0.259 OA
BRANCH   2   4
HETATM    4  C10 UNK     1      19.506  -2.760  36.554  1.00  0.00     0.040 A 
HETATM    5  C8  UNK     1      19.518  -1.894  35.480  1.00  0.00     0.018 A 
HETATM    6  C6  UNK     1      18.830  -0.686  35.581  1.00  0.00     0.009 A 
HETATM    7  C2  UNK     1      18.144  -0.369  36.754  1.00  0.00    -0.051 A 
HETATM    8  C7  UNK     1      18.147  -1.262  37.826  1.00  0.00     0.009 A 
HETATM    9  C9  UNK     1      18.835  -2.470  37.725  1.00  0.00     0.018 A 
BRANCH   7  10
HETATM   10  C1  UNK     1      17.409   0.924  36.862  1.00  0.00    -0.024 C 
HETATM   11  C3  UNK     1      17.973   1.981  35.862  1.00  0.00     0.019 C 
HETATM   12  C4  UNK     1      17.527   1.525  38.297  1.00  0.00     0.019 C 
HETATM   13  C5  UNK     1      15.873   0.850  36.567  1.00  0.00     0.019 C 
ENDBRANCH   7  10
ENDBRANCH   2   4
ENDBRANCH   1   2
BRANCH   1  14
HETATM   14  C15 UNK     1      19.659  -6.272  36.145  1.00  0.00     0.082 A 
HETATM   15  C16 UNK     1      20.561  -7.114  35.502  1.00  0.00     0.075 A 
HETATM   16  C13 UNK     1      20.708  -8.427  35.952  1.00  0.00     0.092 A 
HETATM   17  C11 UNK     1      19.978  -8.931  37.029  1.00  0.00     0.004 A 
HETATM   18  O2  UNK     1      21.638  -9.229  35.262  1.00  0.00    -0.275 OA
HETATM   19  C14 UNK     1      20.197 -10.326  37.436  1.00  0.00    -0.043 A 
HETATM   20  C17 UNK     1      19.073  -8.069  37.663  1.00  0.00     0.017 A 
HETATM   21  C19 UNK     1      21.087 -11.067  36.761  1.00  0.00     0.090 A 
HETATM   22  C20 UNK     1      19.427 -10.899  38.590  1.00  0.00     0.049 C 
HETATM   23  C21 UNK     1      21.865 -10.549  35.623  1.00  0.00     0.288 A 
HETATM   24  O4  UNK     1      22.671 -11.256  35.030  1.00  0.00    -0.260 OA
HETATM   25  C18 UNK     1      18.916  -6.749  37.223  1.00  0.00     0.038 A 
ENDBRANCH   1  14
TORSDOF 4
ENDMDL
MODEL 2
REMARK VINA RESULT:      -9.0      5.786      8.783
REMARK  4 active torsions:
REMARK  status: ('A' for Active; 'I' for Inactive)
REMARK    1  A    between atoms: C12_16  and  O1_1 
REMARK    2  A    between atoms: C15_19  and  O1_1 
REMARK    3  A    between atoms: C1_5  and  C2_6 
REMARK    4  A    between atoms: C10_14  and  C12_16 
ROOT
HETATM    1  O1  UNK     1      19.551   1.380  28.978  1.00  0.00    -0.275 OA
ENDROOT
BRANCH   1   2
HETATM    2  C12 UNK     1      18.301   1.917  29.295  1.00  0.00     0.298 C 
HETATM    3  O3  UNK     1      17.225   1.493  28.899  1.00  0.00    -0.259 OA
BRANCH   2   4
HETATM    4  C10 UNK     1      18.430   3.088  30.199  1.00  0.00     0.040 A 
HETATM    5  C8  UNK     1      17.951   2.990  31.489  1.00  0.00     0.018 A 
HETATM    6  C6  UNK     1      18.075   4.088  32.339  1.00  0.00     0.009 A 
HETATM    7  C2  UNK     1      18.676   5.262  31.880  1.00  0.00    -0.051 A 
HETATM    8  C7  UNK     1      19.152   5.334  30.571  1.00  0.00     0.009 A 
HETATM    9  C9  UNK     1      19.028   4.236  29.721  1.00  0.00     0.018 A 
BRANCH   7  10
HETATM   10  C1  UNK     1      18.808   6.436  32.789  1.00  0.00    -0.024 C 
HETATM   11  C3  UNK     1      20.304   6.836  32.983  1.00  0.00     0.019 C 
HETATM   12  C4  UNK     1      18.217   6.130  34.200  1.00  0.00     0.019 C 
HETATM   13  C5  UNK     1      18.087   7.740  32.310  1.00  0.00     0.019 C 
ENDBRANCH   7  10
ENDBRANCH   2   4
ENDBRANCH   1   2
BRANCH   1  14
HETATM   14  C15 UNK     1      19.888   0.279  29.704  1.00  0.00     0.082 A 
HETATM   15  C16 UNK     1      19.580   0.215  31.059  1.00  0.00     0.075 A 
HETATM   16  C13 UNK     1      19.936  -0.923  31.785  1.00  0.00     0.092 A 
HETATM   17  C11 UNK     1      20.593  -2.006  31.199  1.00  0.00     0.004 A 
HETATM   18  O2  UNK     1      19.596  -0.930  33.152  1.00  0.00    -0.275 OA
HETATM   19  C14 UNK     1      20.928  -3.164  32.039  1.00  0.00    -0.043 A 
HETATM   20  C17 UNK     1      20.895  -1.922  29.833  1.00  0.00     0.017 A 
HETATM   21  C19 UNK     1      20.594  -3.142  33.337  1.00  0.00     0.090 A 
HETATM   22  C20 UNK     1      21.635  -4.344  31.439  1.00  0.00     0.049 C 
HETATM   23  C21 UNK     1      19.900  -2.008  33.970  1.00  0.00     0.288 A 
HETATM   24  O4  UNK     1      19.610  -2.024  35.161  1.00  0.00    -0.260 OA
HETATM   25  C18 UNK     1      20.545  -0.787  29.092  1.00  0.00     0.038 A 
ENDBRANCH   1  14
TORSDOF 4
ENDMDL
MODEL 3
REMARK VINA RESULT:      -8.9      4.022      9.089
REMARK  4 active torsions:
REMARK  status: ('A' for Active; 'I' for Inactive)
REMARK    1  A    between atoms: C12_16  and  O1_1 
REMARK    2  A    between atoms: C15_19  and  O1_1 
REMARK    3  A    between atoms: C1_5  and  C2_6 
REMARK    4  A    between atoms: C10_14  and  C12_16 
ROOT
HETATM    1  O1  UNK     1      19.235  -2.149  35.005  1.00  0.00    -0.275 OA
ENDROOT
BRANCH   1   2
HETATM    2  C12 UNK     1      20.408  -2.445  35.704  1.00  0.00     0.298 C 
HETATM    3  O3  UNK     1      21.364  -1.696  35.838  1.00  0.00    -0.259 OA
BRANCH   2   4
HETATM    4  C10 UNK     1      20.355  -3.809  36.290  1.00  0.00     0.040 A 
HETATM    5  C8  UNK     1      19.799  -4.832  35.550  1.00  0.00     0.018 A 
HETATM    6  C6  UNK     1      19.752  -6.113  36.099  1.00  0.00     0.009 A 
HETATM    7  C2  UNK     1      20.263  -6.343  37.377  1.00  0.00    -0.051 A 
HETATM    8  C7  UNK     1      20.820  -5.292  38.104  1.00  0.00     0.009 A 
HETATM    9  C9  UNK     1      20.867  -4.011  37.556  1.00  0.00     0.018 A 
BRANCH   7  10
HETATM   10  C1  UNK     1      20.212  -7.713  37.964  1.00  0.00    -0.024 C 
HETATM   11  C3  UNK     1      20.061  -7.658  39.516  1.00  0.00     0.019 C 
HETATM   12  C4  UNK     1      21.513  -8.514  37.646  1.00  0.00     0.019 C 
HETATM   13  C5  UNK     1      19.036  -8.615  37.462  1.00  0.00     0.019 C 
ENDBRANCH   7  10
ENDBRANCH   2   4
ENDBRANCH   1   2
BRANCH   1  14
HETATM   14  C15 UNK     1      19.437  -1.659  33.752  1.00  0.00     0.082 A 
HETATM   15  C16 UNK     1      18.850  -0.457  33.369  1.00  0.00     0.075 A 
HETATM   16  C13 UNK     1      19.070   0.027  32.079  1.00  0.00     0.092 A 
HETATM   17  C11 UNK     1      19.861  -0.654  31.152  1.00  0.00     0.004 A 
HETATM   18  O2  UNK     1      18.451   1.249  31.750  1.00  0.00    -0.275 OA
HETATM   19  C14 UNK     1      20.039  -0.070  29.815  1.00  0.00    -0.043 A 
HETATM   20  C17 UNK     1      20.443  -1.863  31.556  1.00  0.00     0.017 A 
HETATM   21  C19 UNK     1      19.437   1.094  29.530  1.00  0.00     0.090 A 
HETATM   22  C20 UNK     1      20.883  -0.777  28.795  1.00  0.00     0.049 C 
HETATM   23  C21 UNK     1      18.600   1.824  30.497  1.00  0.00     0.288 A 
HETATM   24  O4  UNK     1      18.066   2.886  30.200  1.00  0.00    -0.260 OA
HETATM   25  C18 UNK     1      20.231  -2.361  32.847  1.00  0.00     0.038 A 
ENDBRANCH   1  14
TORSDOF 4
ENDMDL
MODEL 4
REMARK VINA RESULT:      -8.8      7.046     10.776
REMARK  4 active torsions:
REMARK  status: ('A' for Active; 'I' for Inactive)
REMARK    1  A    between atoms: C12_16  and  O1_1 
REMARK    2  A    between atoms: C15_19  and  O1_1 
REMARK    3  A    between atoms: C1_5  and  C2_6 
REMARK    4  A    between atoms: C10_14  and  C12_16 
ROOT
HETATM    1  O1  UNK     1      17.490   4.334  31.798  1.00  0.00    -0.275 OA
ENDROOT
BRANCH   1   2
HETATM    2  C12 UNK     1      18.376   5.393  32.014  1.00  0.00     0.298 C 
HETATM    3  O3  UNK     1      19.584   5.357  31.830  1.00  0.00    -0.259 OA
BRANCH   2   4
HETATM    4  C10 UNK     1      17.662   6.602  32.496  1.00  0.00     0.040 A 
HETATM    5  C8  UNK     1      16.288   6.654  32.385  1.00  0.00     0.018 A 
HETATM    6  C6  UNK     1      15.617   7.788  32.840  1.00  0.00     0.009 A 
HETATM    7  C2  UNK     1      16.336   8.848  33.395  1.00  0.00    -0.051 A 
HETATM    8  C7  UNK     1      17.725   8.771  33.495  1.00  0.00     0.009 A 
HETATM    9  C9  UNK     1      18.395   7.637  33.040  1.00  0.00     0.018 A 
BRANCH   7  10
HETATM   10  C1  UNK     1      15.618  10.062  33.881  1.00  0.00    -0.024 C 
HETATM   11  C3  UNK     1      14.521  10.514  32.867  1.00  0.00     0.019 C 
HETATM   12  C4  UNK     1      16.600  11.260  34.075  1.00  0.00     0.019 C 
HETATM   13  C5  UNK     1      14.880   9.903  35.251  1.00  0.00     0.019 C 
ENDBRANCH   7  10
ENDBRANCH   2   4
ENDBRANCH   1   2
BRANCH   1  14
HETATM   14  C15 UNK     1      18.084   3.181  31.386  1.00  0.00     0.082 A 
HETATM   15  C16 UNK     1      18.328   2.158  32.297  1.00  0.00     0.075 A 
HETATM   16  C13 UNK     1      18.938   0.983  31.854  1.00  0.00     0.092 A 
HETATM   17  C11 UNK     1      19.316   0.795  30.524  1.00  0.00     0.004 A 
HETATM   18  O2  UNK     1      19.158  -0.016  32.822  1.00  0.00    -0.275 OA
HETATM   19  C14 UNK     1      19.952  -0.475  30.146  1.00  0.00    -0.043 A 
HETATM   20  C17 UNK     1      19.062   1.837  29.622  1.00  0.00     0.017 A 
HETATM   21  C19 UNK     1      20.149  -1.407  31.088  1.00  0.00     0.090 A 
HETATM   22  C20 UNK     1      20.370  -0.707  28.723  1.00  0.00     0.049 C 
HETATM   23  C21 UNK     1      19.756  -1.224  32.495  1.00  0.00     0.288 A 
HETATM   24  O4  UNK     1      19.953  -2.100  33.329  1.00  0.00    -0.260 OA
HETATM   25  C18 UNK     1      18.450   3.021  30.051  1.00  0.00     0.038 A 
ENDBRANCH   1  14
TORSDOF 4
ENDMDL
MODEL 5
REMARK VINA RESULT:      -8.7      7.006     10.555
REMARK  4 active torsions:
REMARK  status: ('A' for Active; 'I' for Inactive)
REMARK    1  A    between atoms: C12_16  and  O1_1 
REMARK    2  A    between atoms: C15_19  and  O1_1 
REMARK    3  A    between atoms: C1_5  and  C2_6 
REMARK    4  A    between atoms: C10_14  and  C12_16 
ROOT
HETATM    1  O1  UNK     1      18.626   4.510  30.062  1.00  0.00    -0.275 OA
ENDROOT
BRANCH   1   2
HETATM    2  C12 UNK     1      19.465   5.481  30.613  1.00  0.00     0.298 C 
HETATM    3  O3  UNK     1      20.677   5.541  30.466  1.00  0.00    -0.259 OA
BRANCH   2   4
HETATM    4  C10 UNK     1      18.694   6.467  31.413  1.00  0.00     0.040 A 
HETATM    5  C8  UNK     1      19.216   6.906  32.613  1.00  0.00     0.018 A 
HETATM    6  C6  UNK     1      18.493   7.832  33.363  1.00  0.00     0.009 A 
HETATM    7  C2  UNK     1      17.264   8.301  32.897  1.00  0.00    -0.051 A 
HETATM    8  C7  UNK     1      16.758   7.841  31.681  1.00  0.00     0.009 A 
HETATM    9  C9  UNK     1      17.481   6.914  30.931  1.00  0.00     0.018 A 
BRANCH   7  10
HETATM   10  C1  UNK     1      16.490   9.292  33.700  1.00  0.00    -0.024 C 
HETATM   11  C3  UNK     1      16.053   8.690  35.072  1.00  0.00     0.019 C 
HETATM   12  C4  UNK     1      15.198   9.742  32.951  1.00  0.00     0.019 C 
HETATM   13  C5  UNK     1      17.251  10.614  34.049  1.00  0.00     0.019 C 
ENDBRANCH   7  10
ENDBRANCH   2   4
ENDBRANCH   1   2
BRANCH   1  14
HETATM   14  C15 UNK     1      18.708   3.292  30.663  1.00  0.00     0.082 A 
HETATM   15  C16 UNK     1      19.271   2.215  29.986  1.00  0.00     0.075 A 
HETATM   16  C13 UNK     1      19.345   0.974  30.620  1.00  0.00     0.092 A 
HETATM   17  C11 UNK     1      18.871   0.771  31.917  1.00  0.00     0.004 A 
HETATM   18  O2  UNK     1      19.926  -0.077  29.884  1.00  0.00    -0.275 OA
HETATM   19  C14 UNK     1      18.990  -0.569  32.508  1.00  0.00    -0.043 A 
HETATM   20  C17 UNK     1      18.307   1.868  32.583  1.00  0.00     0.017 A 
HETATM   21  C19 UNK     1      19.547  -1.550  31.784  1.00  0.00     0.090 A 
HETATM   22  C20 UNK     1      18.490  -0.820  33.901  1.00  0.00     0.049 C 
HETATM   23  C21 UNK     1      20.052  -1.352  30.415  1.00  0.00     0.288 A 
HETATM   24  O4  UNK     1      20.555  -2.274  29.784  1.00  0.00    -0.260 OA
HETATM   25  C18 UNK     1      18.226   3.118  31.959  1.00  0.00     0.038 A 
ENDBRANCH   1  14
TORSDOF 4
ENDMDL
MODEL 6
REMARK VINA RESULT:      -8.6      1.365      2.413
REMARK  4 active torsions:
REMARK  status: ('A' for Active; 'I' for Inactive)
REMARK    1  A    between atoms: C12_16  and  O1_1 
REMARK    2  A    between atoms: C15_19  and  O1_1 
REMARK    3  A    between atoms: C1_5  and  C2_6 
REMARK    4  A    between atoms: C10_14  and  C12_16 
ROOT
HETATM    1  O1  UNK     1      19.139  -5.103  35.895  1.00  0.00    -0.275 OA
ENDROOT
BRANCH   1   2
HETATM    2  C12 UNK     1      20.009  -4.157  36.444  1.00  0.00     0.298 C 
HETATM    3  O3  UNK     1      21.165  -4.368  36.783  1.00  0.00    -0.259 OA
BRANCH   2   4
HETATM    4  C10 UNK     1      19.356  -2.829  36.562  1.00  0.00     0.040 A 
HETATM    5  C8  UNK     1      18.713  -2.505  37.739  1.00  0.00     0.018 A 
HETATM    6  C6  UNK     1      18.102  -1.257  37.851  1.00  0.00     0.009 A 
HETATM    7  C2  UNK     1      18.147  -0.359  36.784  1.00  0.00    -0.051 A 
HETATM    8  C7  UNK     1      18.803  -0.711  35.605  1.00  0.00     0.009 A 
HETATM    9  C9  UNK     1      19.414  -1.959  35.492  1.00  0.00     0.018 A 
BRANCH   7  10
HETATM   10  C1  UNK     1      17.492   0.975  36.904  1.00  0.00    -0.024 C 
HETATM   11  C3  UNK     1      15.965   0.886  36.597  1.00  0.00     0.019 C 
HETATM   12  C4  UNK     1      18.113   2.002  35.906  1.00  0.00     0.019 C 
HETATM   13  C5  UNK     1      17.595   1.650  38.312  1.00  0.00     0.019 C 
ENDBRANCH   7  10
ENDBRANCH   2   4
ENDBRANCH   1   2
BRANCH   1  14
HETATM   14  C15 UNK     1      19.572  -6.389  35.994  1.00  0.00     0.082 A 
HETATM   15  C16 UNK     1      19.149  -7.187  37.052  1.00  0.00     0.075 A 
HETATM   16  C13 UNK     1      19.606  -8.504  37.136  1.00  0.00     0.092 A 
HETATM   17  C11 UNK     1      20.476  -9.052  36.193  1.00  0.00     0.004 A 
HETATM   18  O2  UNK     1      19.142  -9.263  38.228  1.00  0.00    -0.275 OA
HETATM   19  C14 UNK     1      20.905 -10.448  36.360  1.00  0.00    -0.043 A 
HETATM   20  C17 UNK     1      20.891  -8.232  35.136  1.00  0.00     0.017 A 
HETATM   21  C19 UNK     1      20.449 -11.146  37.409  1.00  0.00     0.090 A 
HETATM   22  C20 UNK     1      21.842 -11.067  35.363  1.00  0.00     0.049 C 
HETATM   23  C21 UNK     1      19.530 -10.582  38.412  1.00  0.00     0.288 A 
HETATM   24  O4  UNK     1      19.133 -11.252  39.358  1.00  0.00    -0.260 OA
HETATM   25  C18 UNK     1      20.442  -6.910  35.038  1.00  0.00     0.038 A 
ENDBRANCH   1  14
TORSDOF 4
ENDMDL
MODEL 7
REMARK VINA RESULT:      -8.6      6.726     10.099
REMARK  4 active torsions:
REMARK  status: ('A' for Active; 'I' for Inactive)
REMARK    1  A    between atoms: C12_16  and  O1_1 
REMARK    2  A    between atoms: C15_19  and  O1_1 
REMARK    3  A    between atoms: C1_5  and  C2_6 
REMARK    4  A    between atoms: C10_14  and  C12_16 
ROOT
HETATM    1  O1  UNK     1      18.225   3.768  29.942  1.00  0.00    -0.275 OA
ENDROOT
BRANCH   1   2
HETATM    2  C12 UNK     1      19.008   4.769  30.523  1.00  0.00     0.298 C 
HETATM    3  O3  UNK     1      20.212   4.910  30.367  1.00  0.00    -0.259 OA
BRANCH   2   4
HETATM    4  C10 UNK     1      18.187   5.672  31.368  1.00  0.00     0.040 A 
HETATM    5  C8  UNK     1      17.676   6.826  30.810  1.00  0.00     0.018 A 
HETATM    6  C6  UNK     1      16.903   7.674  31.602  1.00  0.00     0.009 A 
HETATM    7  C2  UNK     1      16.657   7.348  32.937  1.00  0.00    -0.051 A 
HETATM    8  C7  UNK     1      17.185   6.176  33.477  1.00  0.00     0.009 A 
HETATM    9  C9  UNK     1      17.958   5.329  32.685  1.00  0.00     0.018 A 
BRANCH   7  10
HETATM   10  C1  UNK     1      15.830   8.255  33.785  1.00  0.00    -0.024 C 
HETATM   11  C3  UNK     1      16.373   8.314  35.247  1.00  0.00     0.019 C 
HETATM   12  C4  UNK     1      14.348   7.772  33.853  1.00  0.00     0.019 C 
HETATM   13  C5  UNK     1      15.760   9.744  33.306  1.00  0.00     0.019 C 
ENDBRANCH   7  10
ENDBRANCH   2   4
ENDBRANCH   1   2
BRANCH   1  14
HETATM   14  C15 UNK     1      18.663   2.502  30.182  1.00  0.00     0.082 A 
HETATM   15  C16 UNK     1      18.602   1.975  31.468  1.00  0.00     0.075 A 
HETATM   16  C13 UNK     1      19.057   0.675  31.693  1.00  0.00     0.092 A 
HETATM   17  C11 UNK     1      19.575  -0.121  30.671  1.00  0.00     0.004 A 
HETATM   18  O2  UNK     1      18.967   0.196  33.015  1.00  0.00    -0.275 OA
HETATM   19  C14 UNK     1      20.031  -1.480  30.998  1.00  0.00    -0.043 A 
HETATM   20  C17 UNK     1      19.630   0.428  29.383  1.00  0.00     0.017 A 
HETATM   21  C19 UNK     1      19.934  -1.908  32.264  1.00  0.00     0.090 A 
HETATM   22  C20 UNK     1      20.594  -2.360  29.921  1.00  0.00     0.049 C 
HETATM   23  C21 UNK     1      19.389  -1.081  33.354  1.00  0.00     0.288 A 
HETATM   24  O4  UNK     1      19.317  -1.508  34.501  1.00  0.00    -0.260 OA
HETATM   25  C18 UNK     1      19.177   1.731  29.142  1.00  0.00     0.038 A 
ENDBRANCH   1  14
TORSDOF 4
ENDMDL
MODEL 8
REMARK VINA RESULT:      -8.4     29.734     31.956
REMARK  4 active torsions:
REMARK  status: ('A' for Active; 'I' for Inactive)
REMARK    1  A    between atoms: C12_16  and  O1_1 
REMARK    2  A    between atoms: C15_19  and  O1_1 
REMARK    3  A    between atoms: C1_5  and  C2_6 
REMARK    4  A    between atoms: C10_14  and  C12_16 
ROOT
HETATM    1  O1  UNK     1      14.885   6.293   9.065  1.00  0.00    -0.275 OA
ENDROOT
BRANCH   1   2
HETATM    2  C12 UNK     1      15.069   7.210  10.103  1.00  0.00     0.298 C 
HETATM    3  O3  UNK     1      14.859   6.995  11.288  1.00  0.00    -0.259 OA
BRANCH   2   4
HETATM    4  C10 UNK     1      15.572   8.510   9.590  1.00  0.00     0.040 A 
HETATM    5  C8  UNK     1      14.679   9.388   9.011  1.00  0.00     0.018 A 
HETATM    6  C6  UNK     1      15.151  10.609   8.531  1.00  0.00     0.009 A 
HETATM    7  C2  UNK     1      16.505  10.927   8.642  1.00  0.00    -0.051 A 
HETATM    8  C7  UNK     1      17.387  10.021   9.232  1.00  0.00     0.009 A 
HETATM    9  C9  UNK     1      16.915   8.800   9.712  1.00  0.00     0.018 A 
BRANCH   7  10
HETATM   10  C1  UNK     1      17.010  12.233   8.128  1.00  0.00    -0.024 C 
HETATM   11  C3  UNK     1      15.924  12.963   7.277  1.00  0.00     0.019 C 
HETATM   12  C4  UNK     1      18.265  12.038   7.222  1.00  0.00     0.019 C 
HETATM   13  C5  UNK     1      17.444  13.263   9.223  1.00  0.00     0.019 C 
ENDBRANCH   7  10
ENDBRANCH   2   4
ENDBRANCH   1   2
BRANCH   1  14
HETATM   14  C15 UNK     1      13.625   6.271   8.553  1.00  0.00     0.082 A 
HETATM   15  C16 UNK     1      12.543   5.963   9.372  1.00  0.00     0.075 A 
HETATM   16  C13 UNK     1      11.259   5.945   8.826  1.00  0.00     0.092 A 
HETATM   17  C11 UNK     1      11.017   6.227   7.481  1.00  0.00     0.004 A 
HETATM   18  O2  UNK     1      10.205   5.627   9.705  1.00  0.00    -0.275 OA
HETATM   19  C14 UNK     1       9.632   6.187   6.991  1.00  0.00    -0.043 A 
HETATM   20  C17 UNK     1      12.119   6.535   6.672  1.00  0.00     0.017 A 
HETATM   21  C19 UNK     1       8.649   5.881   7.850  1.00  0.00     0.090 A 
HETATM   22  C20 UNK     1       9.338   6.485   5.550  1.00  0.00     0.049 C 
HETATM   23  C21 UNK     1       8.888   5.581   9.272  1.00  0.00     0.288 A 
HETATM   24  O4  UNK     1       7.963   5.305  10.027  1.00  0.00    -0.260 OA
HETATM   25  C18 UNK     1      13.413   6.557   7.205  1.00  0.00     0.038 A 
ENDBRANCH   1  14
TORSDOF 4
ENDMDL
MODEL 9
REMARK VINA RESULT:      -8.3     11.176     13.945
REMARK  4 active torsions:
REMARK  status: ('A' for Active; 'I' for Inactive)
REMARK    1  A    between atoms: C12_16  and  O1_1 
REMARK    2  A    between atoms: C15_19  and  O1_1 
REMARK    3  A    between atoms: C1_5  and  C2_6 
REMARK    4  A    between atoms: C10_14  and  C12_16 
ROOT
HETATM    1  O1  UNK     1      32.345  -4.663  38.131  1.00  0.00    -0.275 OA
ENDROOT
BRANCH   1   2
HETATM    2  C12 UNK     1      32.518  -4.126  36.853  1.00  0.00     0.298 C 
HETATM    3  O3  UNK     1      32.055  -3.066  36.458  1.00  0.00    -0.259 OA
BRANCH   2   4
HETATM    4  C10 UNK     1      33.361  -5.009  36.007  1.00  0.00     0.040 A 
HETATM    5  C8  UNK     1      32.851  -5.474  34.813  1.00  0.00     0.018 A 
HETATM    6  C6  UNK     1      33.643  -6.301  34.018  1.00  0.00     0.009 A 
HETATM    7  C2  UNK     1      34.930  -6.646  34.435  1.00  0.00    -0.051 A 
HETATM    8  C7  UNK     1      35.422  -6.164  35.648  1.00  0.00     0.009 A 
HETATM    9  C9  UNK     1      34.629  -5.336  36.442  1.00  0.00     0.018 A 
BRANCH   7  10
HETATM   10  C1  UNK     1      35.777  -7.532  33.585  1.00  0.00    -0.024 C 
HETATM   11  C3  UNK     1      37.225  -7.645  34.154  1.00  0.00     0.019 C 
HETATM   12  C4  UNK     1      35.885  -6.983  32.128  1.00  0.00     0.019 C 
HETATM   13  C5  UNK     1      35.270  -9.005  33.437  1.00  0.00     0.019 C 
ENDBRANCH   7  10
ENDBRANCH   2   4
ENDBRANCH   1   2
BRANCH   1  14
HETATM   14  C15 UNK     1      31.246  -5.455  38.262  1.00  0.00     0.082 A 
HETATM   15  C16 UNK     1      29.983  -4.882  38.376  1.00  0.00     0.075 A 
HETATM   16  C13 UNK     1      28.869  -5.712  38.511  1.00  0.00     0.092 A 
HETATM   17  C11 UNK     1      28.975  -7.104  38.536  1.00  0.00     0.004 A 
HETATM   18  O2  UNK     1      27.618  -5.075  38.621  1.00  0.00    -0.275 OA
HETATM   19  C14 UNK     1      27.748  -7.900  38.680  1.00  0.00    -0.043 A 
HETATM   20  C17 UNK     1      30.255  -7.661  38.420  1.00  0.00     0.017 A 
HETATM   21  C19 UNK     1      26.572  -7.266  38.784  1.00  0.00     0.090 A 
HETATM   22  C20 UNK     1      27.828  -9.399  38.711  1.00  0.00     0.049 C 
HETATM   23  C21 UNK     1      26.444  -5.800  38.758  1.00  0.00     0.288 A 
HETATM   24  O4  UNK     1      25.350  -5.255  38.855  1.00  0.00    -0.260 OA
HETATM   25  C18 UNK     1      31.382  -6.842  38.285  1.00  0.00     0.038 A 
ENDBRANCH   1  14
TORSDOF 4
ENDMDL
MODEL 10
REMARK VINA RESULT:      -8.3      7.385     10.779
REMARK  4 active torsions:
REMARK  status: ('A' for Active; 'I' for Inactive)
REMARK    1  A    between atoms: C12_16  and  O1_1 
REMARK    2  A    between atoms: C15_19  and  O1_1 
REMARK    3  A    between atoms: C1_5  and  C2_6 
REMARK    4  A    between atoms: C10_14  and  C12_16 
ROOT
HETATM    1  O1  UNK     1      17.474   4.477  31.994  1.00  0.00    -0.275 OA
ENDROOT
BRANCH   1   2
HETATM    2  C12 UNK     1      18.292   5.395  32.656  1.00  0.00     0.298 C 
HETATM    3  O3  UNK     1      19.473   5.232  32.922  1.00  0.00    -0.259 OA
BRANCH   2   4
HETATM    4  C10 UNK     1      17.544   6.631  33.002  1.00  0.00     0.040 A 
HETATM    5  C8  UNK     1      17.391   6.969  34.331  1.00  0.00     0.018 A 
HETATM    6  C6  UNK     1      16.691   8.130  34.655  1.00  0.00     0.009 A 
HETATM    7  C2  UNK     1      16.158   8.929  33.642  1.00  0.00    -0.051 A 
HETATM    8  C7  UNK     1      16.326   8.565  32.306  1.00  0.00     0.009 A 
HETATM    9  C9  UNK     1      17.026   7.404  31.982  1.00  0.00     0.018 A 
BRANCH   7  10
HETATM   10  C1  UNK     1      15.408  10.171  33.989  1.00  0.00    -0.024 C 
HETATM   11  C3  UNK     1      14.699  10.035  35.372  1.00  0.00     0.019 C 
HETATM   12  C4  UNK     1      14.310  10.484  32.926  1.00  0.00     0.019 C 
HETATM   13  C5  UNK     1      16.273  11.472  34.090  1.00  0.00     0.019 C 
ENDBRANCH   7  10
ENDBRANCH   2   4
ENDBRANCH   1   2
BRANCH   1  14
HETATM   14  C15 UNK     1      17.986   3.218  31.925  1.00  0.00     0.082 A 
HETATM   15  C16 UNK     1      18.505   2.741  30.726  1.00  0.00     0.075 A 
HETATM   16  C13 UNK     1      19.025   1.446  30.676  1.00  0.00     0.092 A 
HETATM   17  C11 UNK     1      19.043   0.607  31.791  1.00  0.00     0.004 A 
HETATM   18  O2  UNK     1      19.538   1.020  29.435  1.00  0.00    -0.275 OA
HETATM   19  C14 UNK     1      19.611  -0.741  31.648  1.00  0.00    -0.043 A 
HETATM   20  C17 UNK     1      18.514   1.106  32.989  1.00  0.00     0.017 A 
HETATM   21  C19 UNK     1      20.090  -1.120  30.455  1.00  0.00     0.090 A 
HETATM   22  C20 UNK     1      19.644  -1.668  32.828  1.00  0.00     0.049 C 
HETATM   23  C21 UNK     1      20.079  -0.246  29.270  1.00  0.00     0.288 A 
HETATM   24  O4  UNK     1      20.528  -0.627  28.195  1.00  0.00    -0.260 OA
HETATM   25  C18 UNK     1      17.990   2.402  33.054  1.00  0.00     0.038 A 
ENDBRANCH   1  14
TORSDOF 4
ENDMDL
