MODEL 1
REMARK VINA RESULT:      -7.2      0.000      0.000
REMARK  1 active torsions:
REMARK  status: ('A' for Active; 'I' for Inactive)
REMARK    1  A    between atoms: C5_9  and  O3_3 
ROOT
HETATM    1  O1  UNK     1      18.824  -1.237  35.146  1.00  0.00    -0.319 OA
HETATM    2  O2  UNK     1      18.719   0.699  30.715  1.00  0.00    -0.272 OA
HETATM    3  O4  UNK     1      18.741   1.543  28.585  1.00  0.00    -0.260 OA
HETATM    4  C1  UNK     1      20.121  -2.094  33.507  1.00  0.00     0.003 A 
HETATM    5  C2  UNK     1      19.181  -1.122  33.836  1.00  0.00     0.121 A 
HETATM    6  C3  UNK     1      20.143  -1.201  31.256  1.00  0.00     0.002 A 
HETATM    7  C4  UNK     1      19.200  -0.250  31.645  1.00  0.00     0.126 A 
HETATM    8  C5  UNK     1      18.686  -0.174  32.944  1.00  0.00     0.138 A 
HETATM    9  C6  UNK     1      20.615  -2.139  32.188  1.00  0.00     0.028 A 
HETATM   10  C7  UNK     1      20.339  -2.838  34.696  1.00  0.00     0.039 A 
HETATM   11  C8  UNK     1      20.616  -1.195  29.880  1.00  0.00     0.020 A 
HETATM   12  C9  UNK     1      19.530  -2.279  35.658  1.00  0.00     0.143 A 
HETATM   13  C10 UNK     1      20.153  -0.294  29.010  1.00  0.00     0.083 A 
HETATM   14  C11 UNK     1      19.157   0.722  29.395  1.00  0.00     0.288 A 
ENDROOT
BRANCH   8  15
HETATM   15  O3  UNK     1      17.766   0.761  33.308  1.00  0.00    -0.351 OA
HETATM   16  C12 UNK     1      18.251   1.916  33.990  1.00  0.00     0.210 C 
ENDBRANCH   8  15
TORSDOF 1
ENDMDL
MODEL 2
REMARK VINA RESULT:      -7.0      2.785      6.136
REMARK  1 active torsions:
REMARK  status: ('A' for Active; 'I' for Inactive)
REMARK    1  A    between atoms: C5_9  and  O3_3 
ROOT
HETATM    1  O1  UNK     1      18.899   4.935  29.664  1.00  0.00    -0.319 OA
HETATM    2  O2  UNK     1      18.647   0.642  31.879  1.00  0.00    -0.272 OA
HETATM    3  O4  UNK     1      18.507  -1.339  33.019  1.00  0.00    -0.260 OA
HETATM    4  C1  UNK     1      18.456   4.828  31.877  1.00  0.00     0.003 A 
HETATM    5  C2  UNK     1      18.723   4.096  30.723  1.00  0.00     0.121 A 
HETATM    6  C3  UNK     1      18.307   2.733  33.081  1.00  0.00     0.002 A 
HETATM    7  C4  UNK     1      18.579   2.054  31.893  1.00  0.00     0.126 A 
HETATM    8  C5  UNK     1      18.796   2.707  30.675  1.00  0.00     0.138 A 
HETATM    9  C6  UNK     1      18.242   4.135  33.085  1.00  0.00     0.028 A 
HETATM   10  C7  UNK     1      18.473   6.192  31.480  1.00  0.00     0.039 A 
HETATM   11  C8  UNK     1      18.097   1.961  34.296  1.00  0.00     0.020 A 
HETATM   12  C9  UNK     1      18.746   6.201  30.133  1.00  0.00     0.143 A 
HETATM   13  C10 UNK     1      18.163   0.627  34.269  1.00  0.00     0.083 A 
HETATM   14  C11 UNK     1      18.449  -0.115  33.028  1.00  0.00     0.288 A 
ENDROOT
BRANCH   8  15
HETATM   15  O3  UNK     1      19.061   2.029  29.525  1.00  0.00    -0.351 OA
HETATM   16  C12 UNK     1      17.957   1.764  28.660  1.00  0.00     0.210 C 
ENDBRANCH   8  15
TORSDOF 1
ENDMDL
MODEL 3
REMARK VINA RESULT:      -6.8      5.835      9.329
REMARK  1 active torsions:
REMARK  status: ('A' for Active; 'I' for Inactive)
REMARK    1  A    between atoms: C5_9  and  O3_3 
ROOT
HETATM    1  O1  UNK     1      20.060  -4.344  35.530  1.00  0.00    -0.319 OA
HETATM    2  O2  UNK     1      19.523  -9.025  36.627  1.00  0.00    -0.272 OA
HETATM    3  O4  UNK     1      19.289 -11.217  37.250  1.00  0.00    -0.260 OA
HETATM    4  C1  UNK     1      20.289  -5.039  37.668  1.00  0.00     0.003 A 
HETATM    5  C2  UNK     1      20.025  -5.427  36.357  1.00  0.00     0.121 A 
HETATM    6  C3  UNK     1      20.041  -7.356  38.324  1.00  0.00     0.002 A 
HETATM    7  C4  UNK     1      19.783  -7.684  36.994  1.00  0.00     0.126 A 
HETATM    8  C5  UNK     1      19.766  -6.737  35.964  1.00  0.00     0.138 A 
HETATM    9  C6  UNK     1      20.297  -6.022  38.677  1.00  0.00     0.028 A 
HETATM   10  C7  UNK     1      20.494  -3.634  37.620  1.00  0.00     0.039 A 
HETATM   11  C8  UNK     1      20.036  -8.416  39.320  1.00  0.00     0.020 A 
HETATM   12  C9  UNK     1      20.344  -3.265  36.304  1.00  0.00     0.143 A 
HETATM   13  C10 UNK     1      19.789  -9.679  38.962  1.00  0.00     0.083 A 
HETATM   14  C11 UNK     1      19.514 -10.054  37.563  1.00  0.00     0.288 A 
ENDROOT
BRANCH   8  15
HETATM   15  O3  UNK     1      19.512  -7.074  34.670  1.00  0.00    -0.351 OA
HETATM   16  C12 UNK     1      20.637  -7.212  33.804  1.00  0.00     0.210 C 
ENDBRANCH   8  15
TORSDOF 1
ENDMDL
MODEL 4
REMARK VINA RESULT:      -6.7      1.912      3.219
REMARK  1 active torsions:
REMARK  status: ('A' for Active; 'I' for Inactive)
REMARK    1  A    between atoms: C5_9  and  O3_3 
ROOT
HETATM    1  O1  UNK     1      20.349  -2.380  32.238  1.00  0.00    -0.319 OA
HETATM    2  O2  UNK     1      18.392   2.038  32.004  1.00  0.00    -0.272 OA
HETATM    3  O4  UNK     1      17.484   4.129  31.786  1.00  0.00    -0.260 OA
HETATM    4  C1  UNK     1      20.215  -1.306  30.255  1.00  0.00     0.003 A 
HETATM    5  C2  UNK     1      19.942  -1.237  31.618  1.00  0.00     0.121 A 
HETATM    6  C3  UNK     1      19.255   0.904  30.027  1.00  0.00     0.002 A 
HETATM    7  C4  UNK     1      19.006   0.916  31.399  1.00  0.00     0.126 A 
HETATM    8  C5  UNK     1      19.338  -0.149  32.243  1.00  0.00     0.138 A 
HETATM    9  C6  UNK     1      19.865  -0.213  29.438  1.00  0.00     0.028 A 
HETATM   10  C7  UNK     1      20.825  -2.572  30.048  1.00  0.00     0.039 A 
HETATM   11  C8  UNK     1      18.871   2.064  29.237  1.00  0.00     0.020 A 
HETATM   12  C9  UNK     1      20.882  -3.181  31.280  1.00  0.00     0.143 A 
HETATM   13  C10 UNK     1      18.291   3.117  29.818  1.00  0.00     0.083 A 
HETATM   14  C11 UNK     1      18.017   3.156  31.266  1.00  0.00     0.288 A 
ENDROOT
BRANCH   8  15
HETATM   15  O3  UNK     1      19.089  -0.122  33.581  1.00  0.00    -0.351 OA
HETATM   16  C12 UNK     1      17.866  -0.709  34.024  1.00  0.00     0.210 C 
ENDBRANCH   8  15
TORSDOF 1
ENDMDL
MODEL 5
REMARK VINA RESULT:      -6.7      2.218      4.248
REMARK  1 active torsions:
REMARK  status: ('A' for Active; 'I' for Inactive)
REMARK    1  A    between atoms: C5_9  and  O3_3 
ROOT
HETATM    1  O1  UNK     1      17.978   3.160  32.894  1.00  0.00    -0.319 OA
HETATM    2  O2  UNK     1      19.883  -1.137  31.748  1.00  0.00    -0.272 OA
HETATM    3  O4  UNK     1      20.792  -3.138  31.103  1.00  0.00    -0.260 OA
HETATM    4  C1  UNK     1      18.561   2.715  30.757  1.00  0.00     0.003 A 
HETATM    5  C2  UNK     1      18.506   2.222  32.058  1.00  0.00     0.121 A 
HETATM    6  C3  UNK     1      19.522   0.599  30.077  1.00  0.00     0.002 A 
HETATM    7  C4  UNK     1      19.442   0.161  31.398  1.00  0.00     0.126 A 
HETATM    8  C5  UNK     1      18.933   0.951  32.434  1.00  0.00     0.138 A 
HETATM    9  C6  UNK     1      19.080   1.888  29.741  1.00  0.00     0.028 A 
HETATM   10  C7  UNK     1      18.032   4.031  30.821  1.00  0.00     0.039 A 
HETATM   11  C8  UNK     1      20.067  -0.301  29.073  1.00  0.00     0.020 A 
HETATM   12  C9  UNK     1      17.695   4.251  32.136  1.00  0.00     0.143 A 
HETATM   13  C10 UNK     1      20.482  -1.524  29.415  1.00  0.00     0.083 A 
HETATM   14  C11 UNK     1      20.408  -2.013  30.803  1.00  0.00     0.288 A 
ENDROOT
BRANCH   8  15
HETATM   15  O3  UNK     1      18.861   0.508  33.719  1.00  0.00    -0.351 OA
HETATM   16  C12 UNK     1      17.599   0.015  34.166  1.00  0.00     0.210 C 
ENDBRANCH   8  15
TORSDOF 1
ENDMDL
MODEL 6
REMARK VINA RESULT:      -6.7      2.173      3.968
REMARK  1 active torsions:
REMARK  status: ('A' for Active; 'I' for Inactive)
REMARK    1  A    between atoms: C5_9  and  O3_3 
ROOT
HETATM    1  O1  UNK     1      17.959  -1.540  35.694  1.00  0.00    -0.319 OA
HETATM    2  O2  UNK     1      18.230   1.788  32.193  1.00  0.00    -0.272 OA
HETATM    3  O4  UNK     1      18.359   3.439  30.611  1.00  0.00    -0.260 OA
HETATM    4  C1  UNK     1      18.044   0.655  36.223  1.00  0.00     0.003 A 
HETATM    5  C2  UNK     1      18.035  -0.277  35.189  1.00  0.00     0.121 A 
HETATM    6  C3  UNK     1      18.181   2.400  34.550  1.00  0.00     0.002 A 
HETATM    7  C4  UNK     1      18.168   1.421  33.557  1.00  0.00     0.126 A 
HETATM    8  C5  UNK     1      18.094   0.052  33.837  1.00  0.00     0.138 A 
HETATM    9  C6  UNK     1      18.119   2.025  35.901  1.00  0.00     0.028 A 
HETATM   10  C7  UNK     1      17.969  -0.102  37.423  1.00  0.00     0.039 A 
HETATM   11  C8  UNK     1      18.259   3.797  34.154  1.00  0.00     0.020 A 
HETATM   12  C9  UNK     1      17.920  -1.423  37.046  1.00  0.00     0.143 A 
HETATM   13  C10 UNK     1      18.317   4.132  32.862  1.00  0.00     0.083 A 
HETATM   14  C11 UNK     1      18.305   3.118  31.793  1.00  0.00     0.288 A 
ENDROOT
BRANCH   8  15
HETATM   15  O3  UNK     1      18.083  -0.891  32.855  1.00  0.00    -0.351 OA
HETATM   16  C12 UNK     1      19.333  -1.489  32.516  1.00  0.00     0.210 C 
ENDBRANCH   8  15
TORSDOF 1
ENDMDL
MODEL 7
REMARK VINA RESULT:      -6.6     23.610     26.285
REMARK  1 active torsions:
REMARK  status: ('A' for Active; 'I' for Inactive)
REMARK    1  A    between atoms: C5_9  and  O3_3 
ROOT
HETATM    1  O1  UNK     1       8.922   7.193   7.547  1.00  0.00    -0.319 OA
HETATM    2  O2  UNK     1      12.982   7.299  10.176  1.00  0.00    -0.272 OA
HETATM    3  O4  UNK     1      14.951   7.288  11.345  1.00  0.00    -0.260 OA
HETATM    4  C1  UNK     1      10.766   6.105   6.825  1.00  0.00     0.003 A 
HETATM    5  C2  UNK     1      10.221   6.897   7.832  1.00  0.00     0.121 A 
HETATM    6  C3  UNK     1      12.847   6.095   8.062  1.00  0.00     0.002 A 
HETATM    7  C4  UNK     1      12.247   6.889   9.039  1.00  0.00     0.126 A 
HETATM    8  C5  UNK     1      10.918   7.318   8.962  1.00  0.00     0.138 A 
HETATM    9  C6  UNK     1      12.109   5.693   6.938  1.00  0.00     0.028 A 
HETATM   10  C7  UNK     1       9.725   5.916   5.877  1.00  0.00     0.039 A 
HETATM   11  C8  UNK     1      14.237   5.701   8.237  1.00  0.00     0.020 A 
HETATM   12  C9  UNK     1       8.632   6.595   6.362  1.00  0.00     0.143 A 
HETATM   13  C10 UNK     1      14.921   6.096   9.314  1.00  0.00     0.083 A 
HETATM   14  C11 UNK     1      14.311   6.934  10.362  1.00  0.00     0.288 A 
ENDROOT
BRANCH   8  15
HETATM   15  O3  UNK     1      10.347   8.093   9.924  1.00  0.00    -0.351 OA
HETATM   16  C12 UNK     1      10.409   9.506   9.741  1.00  0.00     0.210 C 
ENDBRANCH   8  15
TORSDOF 1
ENDMDL
MODEL 8
REMARK VINA RESULT:      -6.6      7.207      9.679
REMARK  1 active torsions:
REMARK  status: ('A' for Active; 'I' for Inactive)
REMARK    1  A    between atoms: C5_9  and  O3_3 
ROOT
HETATM    1  O1  UNK     1      20.210   6.478  32.337  1.00  0.00    -0.319 OA
HETATM    2  O2  UNK     1      16.857   9.067  34.673  1.00  0.00    -0.272 OA
HETATM    3  O4  UNK     1      15.202  10.274  35.697  1.00  0.00    -0.260 OA
HETATM    4  C1  UNK     1      18.167   6.773  31.419  1.00  0.00     0.003 A 
HETATM    5  C2  UNK     1      18.986   7.050  32.510  1.00  0.00     0.121 A 
HETATM    6  C3  UNK     1      16.418   8.049  32.503  1.00  0.00     0.002 A 
HETATM    7  C4  UNK     1      17.285   8.294  33.568  1.00  0.00     0.126 A 
HETATM    8  C5  UNK     1      18.595   7.807  33.612  1.00  0.00     0.138 A 
HETATM    9  C6  UNK     1      16.852   7.281  31.412  1.00  0.00     0.028 A 
HETATM   10  C7  UNK     1      18.952   5.983  30.538  1.00  0.00     0.039 A 
HETATM   11  C8  UNK     1      15.073   8.602  32.554  1.00  0.00     0.020 A 
HETATM   12  C9  UNK     1      20.179   5.834  31.141  1.00  0.00     0.143 A 
HETATM   13  C10 UNK     1      14.680   9.330  33.603  1.00  0.00     0.083 A 
HETATM   14  C11 UNK     1      15.576   9.605  34.741  1.00  0.00     0.288 A 
ENDROOT
BRANCH   8  15
HETATM   15  O3  UNK     1      19.429   8.055  34.659  1.00  0.00    -0.351 OA
HETATM   16  C12 UNK     1      20.295   9.183  34.545  1.00  0.00     0.210 C 
ENDBRANCH   8  15
TORSDOF 1
ENDMDL
MODEL 9
REMARK VINA RESULT:      -6.6      3.357      5.767
REMARK  1 active torsions:
REMARK  status: ('A' for Active; 'I' for Inactive)
REMARK    1  A    between atoms: C5_9  and  O3_3 
ROOT
HETATM    1  O1  UNK     1      18.580   0.611  31.302  1.00  0.00    -0.319 OA
HETATM    2  O2  UNK     1      17.610   4.846  33.429  1.00  0.00    -0.272 OA
HETATM    3  O4  UNK     1      17.186   6.900  34.348  1.00  0.00    -0.260 OA
HETATM    4  C1  UNK     1      18.987   2.545  30.208  1.00  0.00     0.003 A 
HETATM    5  C2  UNK     1      18.516   1.969  31.384  1.00  0.00     0.121 A 
HETATM    6  C3  UNK     1      18.538   4.717  31.180  1.00  0.00     0.002 A 
HETATM    7  C4  UNK     1      18.077   4.083  32.334  1.00  0.00     0.126 A 
HETATM    8  C5  UNK     1      18.049   2.692  32.479  1.00  0.00     0.138 A 
HETATM    9  C6  UNK     1      19.000   3.950  30.099  1.00  0.00     0.028 A 
HETATM   10  C7  UNK     1      19.356   1.461  29.369  1.00  0.00     0.039 A 
HETATM   11  C8  UNK     1      18.527   6.170  31.129  1.00  0.00     0.020 A 
HETATM   12  C9  UNK     1      19.090   0.313  30.078  1.00  0.00     0.143 A 
HETATM   13  C10 UNK     1      18.082   6.881  32.169  1.00  0.00     0.083 A 
HETATM   14  C11 UNK     1      17.591   6.236  33.401  1.00  0.00     0.288 A 
ENDROOT
BRANCH   8  15
HETATM   15  O3  UNK     1      17.596   2.089  33.612  1.00  0.00    -0.351 OA
HETATM   16  C12 UNK     1      18.548   1.861  34.650  1.00  0.00     0.210 C 
ENDBRANCH   8  15
TORSDOF 1
ENDMDL
MODEL 10
REMARK VINA RESULT:      -6.5      8.052      9.436
REMARK  1 active torsions:
REMARK  status: ('A' for Active; 'I' for Inactive)
REMARK    1  A    between atoms: C5_9  and  O3_3 
ROOT
HETATM    1  O1  UNK     1      23.662  -8.476  37.370  1.00  0.00    -0.319 OA
HETATM    2  O2  UNK     1      19.277  -7.854  35.423  1.00  0.00    -0.272 OA
HETATM    3  O4  UNK     1      17.171  -7.509  34.592  1.00  0.00    -0.260 OA
HETATM    4  C1  UNK     1      22.052  -7.397  38.531  1.00  0.00     0.003 A 
HETATM    5  C2  UNK     1      22.370  -8.045  37.341  1.00  0.00     0.121 A 
HETATM    6  C3  UNK     1      19.826  -7.033  37.650  1.00  0.00     0.002 A 
HETATM    7  C4  UNK     1      20.203  -7.692  36.480  1.00  0.00     0.126 A 
HETATM    8  C5  UNK     1      21.483  -8.221  36.282  1.00  0.00     0.138 A 
HETATM    9  C6  UNK     1      20.752  -6.877  38.693  1.00  0.00     0.028 A 
HETATM   10  C7  UNK     1      23.231  -7.443  39.321  1.00  0.00     0.039 A 
HETATM   11  C8  UNK     1      18.469  -6.519  37.758  1.00  0.00     0.020 A 
HETATM   12  C9  UNK     1      24.174  -8.106  38.572  1.00  0.00     0.143 A 
HETATM   13  C10 UNK     1      17.604  -6.677  36.752  1.00  0.00     0.083 A 
HETATM   14  C11 UNK     1      17.976  -7.371  35.506  1.00  0.00     0.288 A 
ENDROOT
BRANCH   8  15
HETATM   15  O3  UNK     1      21.834  -8.862  35.134  1.00  0.00    -0.351 OA
HETATM   16  C12 UNK     1      21.815 -10.289  35.156  1.00  0.00     0.210 C 
ENDBRANCH   8  15
TORSDOF 1
ENDMDL
