MODEL 1
REMARK VINA RESULT:      -7.5      0.000      0.000
REMARK  3 active torsions:
REMARK  status: ('A' for Active; 'I' for Inactive)
REMARK    1  A    between atoms: C7_10  and  O1_2 
REMARK    2  A    between atoms: C1_4  and  C3_6 
REMARK    3  A    between atoms: C2_5  and  C4_7 
ROOT
HETATM    1  N1  UNK     1      20.188   5.491  30.072  1.00  0.00    -0.191 NA
HETATM    2  C3  UNK     1      17.692   3.727  31.606  1.00  0.00     0.034 C 
HETATM    3  C4  UNK     1      18.142   4.983  31.579  1.00  0.00     0.055 C 
HETATM    4  C15 UNK     1      19.272   5.262  30.747  1.00  0.00     0.100 C 
ENDROOT
BRANCH   3   5
HETATM    5  C2  UNK     1      17.569   6.100  32.356  1.00  0.00    -0.015 A 
HETATM    6  C10 UNK     1      17.062   7.199  31.685  1.00  0.00     0.014 A 
HETATM    7  C12 UNK     1      16.521   8.254  32.419  1.00  0.00     0.020 A 
HETATM    8  C14 UNK     1      16.495   8.195  33.812  1.00  0.00     0.011 A 
HETATM    9 Br1  UNK     1      15.761   9.625  34.806  1.00  0.00    -0.051 Br
HETATM   10  C13 UNK     1      17.011   7.079  34.472  1.00  0.00     0.020 A 
HETATM   11  C11 UNK     1      17.553   6.023  33.738  1.00  0.00     0.014 A 
ENDBRANCH   3   5
BRANCH   2  12
HETATM   12  C1  UNK     1      18.287   2.642  30.841  1.00  0.00    -0.035 A 
HETATM   13  C5  UNK     1      18.022   2.523  29.477  1.00  0.00     0.014 A 
HETATM   14  C8  UNK     1      18.592   1.483  28.743  1.00  0.00     0.037 A 
HETATM   15  C7  UNK     1      19.427   0.562  29.374  1.00  0.00     0.068 A 
HETATM   16  C9  UNK     1      19.693   0.679  30.738  1.00  0.00     0.037 A 
HETATM   17  C6  UNK     1      19.123   1.721  31.471  1.00  0.00     0.014 A 
BRANCH  15  18
HETATM   18  O1  UNK     1      19.983  -0.454  28.658  1.00  0.00    -0.356 OA
HETATM   19  C16 UNK     1      20.488  -1.567  29.394  1.00  0.00     0.210 C 
ENDBRANCH  15  18
ENDBRANCH   2  12
TORSDOF 3
ENDMDL
MODEL 2
REMARK VINA RESULT:      -7.3      2.410      3.797
REMARK  3 active torsions:
REMARK  status: ('A' for Active; 'I' for Inactive)
REMARK    1  A    between atoms: C7_10  and  O1_2 
REMARK    2  A    between atoms: C1_4  and  C3_6 
REMARK    3  A    between atoms: C2_5  and  C4_7 
ROOT
HETATM    1  N1  UNK     1      15.041   6.898  31.490  1.00  0.00    -0.191 NA
HETATM    2  C3  UNK     1      18.253   7.287  32.593  1.00  0.00     0.034 C 
HETATM    3  C4  UNK     1      17.097   7.949  32.664  1.00  0.00     0.055 C 
HETATM    4  C15 UNK     1      15.962   7.368  32.015  1.00  0.00     0.100 C 
ENDROOT
BRANCH   3   5
HETATM    5  C2  UNK     1      16.908   9.244  33.349  1.00  0.00    -0.015 A 
HETATM    6  C10 UNK     1      15.623   9.692  33.601  1.00  0.00     0.014 A 
HETATM    7  C12 UNK     1      15.444  10.914  34.248  1.00  0.00     0.020 A 
HETATM    8  C14 UNK     1      16.552  11.670  34.632  1.00  0.00     0.011 A 
HETATM    9 Br1  UNK     1      16.309  13.326  35.509  1.00  0.00    -0.051 Br
HETATM   10  C13 UNK     1      17.840  11.202  34.369  1.00  0.00     0.020 A 
HETATM   11  C11 UNK     1      18.019   9.979  33.722  1.00  0.00     0.014 A 
ENDBRANCH   3   5
BRANCH   2  12
HETATM   12  C1  UNK     1      18.414   6.020  31.897  1.00  0.00    -0.035 A 
HETATM   13  C5  UNK     1      18.939   5.996  30.604  1.00  0.00     0.014 A 
HETATM   14  C8  UNK     1      19.094   4.782  29.936  1.00  0.00     0.037 A 
HETATM   15  C7  UNK     1      18.723   3.591  30.561  1.00  0.00     0.068 A 
HETATM   16  C9  UNK     1      18.198   3.614  31.853  1.00  0.00     0.037 A 
HETATM   17  C6  UNK     1      18.044   4.829  32.520  1.00  0.00     0.014 A 
BRANCH  15  18
HETATM   18  O1  UNK     1      18.873   2.406  29.908  1.00  0.00    -0.356 OA
HETATM   19  C16 UNK     1      17.990   2.149  28.817  1.00  0.00     0.210 C 
ENDBRANCH  15  18
ENDBRANCH   2  12
TORSDOF 3
ENDMDL
MODEL 3
REMARK VINA RESULT:      -7.1      4.779      8.446
REMARK  3 active torsions:
REMARK  status: ('A' for Active; 'I' for Inactive)
REMARK    1  A    between atoms: C7_10  and  O1_2 
REMARK    2  A    between atoms: C1_4  and  C3_6 
REMARK    3  A    between atoms: C2_5  and  C4_7 
ROOT
HETATM    1  N1  UNK     1      16.133   8.420  30.831  1.00  0.00    -0.191 NA
HETATM    2  C3  UNK     1      18.270   7.650  33.387  1.00  0.00     0.034 C 
HETATM    3  C4  UNK     1      17.789   7.062  32.290  1.00  0.00     0.055 C 
HETATM    4  C15 UNK     1      16.874   7.813  31.485  1.00  0.00     0.100 C 
ENDROOT
BRANCH   3   5
HETATM    5  C2  UNK     1      18.119   5.690  31.855  1.00  0.00    -0.015 A 
HETATM    6  C10 UNK     1      18.697   5.495  30.614  1.00  0.00     0.014 A 
HETATM    7  C12 UNK     1      19.009   4.200  30.203  1.00  0.00     0.020 A 
HETATM    8  C14 UNK     1      18.736   3.118  31.040  1.00  0.00     0.011 A 
HETATM    9 Br1  UNK     1      19.158   1.362  30.483  1.00  0.00    -0.051 Br
HETATM   10  C13 UNK     1      18.152   3.333  32.289  1.00  0.00     0.020 A 
HETATM   11  C11 UNK     1      17.840   4.629  32.700  1.00  0.00     0.014 A 
ENDBRANCH   3   5
BRANCH   2  12
HETATM   12  C1  UNK     1      17.915   8.999  33.799  1.00  0.00    -0.035 A 
HETATM   13  C5  UNK     1      16.619   9.278  34.232  1.00  0.00     0.014 A 
HETATM   14  C8  UNK     1      16.278  10.571  34.627  1.00  0.00     0.037 A 
HETATM   15  C7  UNK     1      17.233  11.585  34.590  1.00  0.00     0.068 A 
HETATM   16  C9  UNK     1      18.530  11.308  34.157  1.00  0.00     0.037 A 
HETATM   17  C6  UNK     1      18.871  10.014  33.762  1.00  0.00     0.014 A 
BRANCH  15  18
HETATM   18  O1  UNK     1      16.900  12.848  34.975  1.00  0.00    -0.356 OA
HETATM   19  C16 UNK     1      15.887  12.977  35.971  1.00  0.00     0.210 C 
ENDBRANCH  15  18
ENDBRANCH   2  12
TORSDOF 3
ENDMDL
MODEL 4
REMARK VINA RESULT:      -6.9      1.493      2.270
REMARK  3 active torsions:
REMARK  status: ('A' for Active; 'I' for Inactive)
REMARK    1  A    between atoms: C7_10  and  O1_2 
REMARK    2  A    between atoms: C1_4  and  C3_6 
REMARK    3  A    between atoms: C2_5  and  C4_7 
ROOT
HETATM    1  N1  UNK     1      17.733   2.071  33.391  1.00  0.00    -0.191 NA
HETATM    2  C3  UNK     1      18.618   3.876  30.625  1.00  0.00     0.034 C 
HETATM    3  C4  UNK     1      18.152   4.113  31.852  1.00  0.00     0.055 C 
HETATM    4  C15 UNK     1      17.921   2.984  32.701  1.00  0.00     0.100 C 
ENDROOT
BRANCH   3   5
HETATM    5  C2  UNK     1      17.843   5.453  32.393  1.00  0.00    -0.015 A 
HETATM    6  C10 UNK     1      17.911   5.662  33.759  1.00  0.00     0.014 A 
HETATM    7  C12 UNK     1      17.619   6.926  34.269  1.00  0.00     0.020 A 
HETATM    8  C14 UNK     1      17.264   7.962  33.406  1.00  0.00     0.011 A 
HETATM    9 Br1  UNK     1      16.869   9.676  34.097  1.00  0.00    -0.051 Br
HETATM   10  C13 UNK     1      17.201   7.733  32.031  1.00  0.00     0.020 A 
HETATM   11  C11 UNK     1      17.493   6.468  31.520  1.00  0.00     0.014 A 
ENDBRANCH   3   5
BRANCH   2  12
HETATM   12  C1  UNK     1      18.899   2.544  30.114  1.00  0.00    -0.035 A 
HETATM   13  C5  UNK     1      19.810   1.720  30.776  1.00  0.00     0.014 A 
HETATM   14  C8  UNK     1      20.079   0.442  30.286  1.00  0.00     0.037 A 
HETATM   15  C7  UNK     1      19.438  -0.012  29.134  1.00  0.00     0.068 A 
HETATM   16  C9  UNK     1      18.527   0.811  28.471  1.00  0.00     0.037 A 
HETATM   17  C6  UNK     1      18.257   2.089  28.962  1.00  0.00     0.014 A 
BRANCH  15  18
HETATM   18  O1  UNK     1      19.702  -1.258  28.655  1.00  0.00    -0.356 OA
HETATM   19  C16 UNK     1      20.402  -2.152  29.521  1.00  0.00     0.210 C 
ENDBRANCH  15  18
ENDBRANCH   2  12
TORSDOF 3
ENDMDL
MODEL 5
REMARK VINA RESULT:      -6.9     22.575     24.092
REMARK  3 active torsions:
REMARK  status: ('A' for Active; 'I' for Inactive)
REMARK    1  A    between atoms: C7_10  and  O1_2 
REMARK    2  A    between atoms: C1_4  and  C3_6 
REMARK    3  A    between atoms: C2_5  and  C4_7 
ROOT
HETATM    1  N1  UNK     1      13.494   5.881  10.185  1.00  0.00    -0.191 NA
HETATM    2  C3  UNK     1      12.535   8.487   8.191  1.00  0.00     0.034 C 
HETATM    3  C4  UNK     1      13.601   8.134   8.911  1.00  0.00     0.055 C 
HETATM    4  C15 UNK     1      13.541   6.889   9.614  1.00  0.00     0.100 C 
ENDROOT
BRANCH   3   5
HETATM    5  C2  UNK     1      14.831   8.941   9.047  1.00  0.00    -0.015 A 
HETATM    6  C10 UNK     1      14.945  10.124   8.339  1.00  0.00     0.014 A 
HETATM    7  C12 UNK     1      16.106  10.885   8.468  1.00  0.00     0.020 A 
HETATM    8  C14 UNK     1      17.136  10.452   9.302  1.00  0.00     0.011 A 
HETATM    9 Br1  UNK     1      18.709  11.484   9.477  1.00  0.00    -0.051 Br
HETATM   10  C13 UNK     1      17.003   9.256  10.009  1.00  0.00     0.020 A 
HETATM   11  C11 UNK     1      15.842   8.494   9.880  1.00  0.00     0.014 A 
ENDBRANCH   3   5
BRANCH   2  12
HETATM   12  C1  UNK     1      11.330   7.679   8.087  1.00  0.00    -0.035 A 
HETATM   13  C5  UNK     1      10.316   7.815   9.036  1.00  0.00     0.014 A 
HETATM   14  C8  UNK     1       9.160   7.040   8.937  1.00  0.00     0.037 A 
HETATM   15  C7  UNK     1       9.019   6.130   7.890  1.00  0.00     0.068 A 
HETATM   16  C9  UNK     1      10.032   5.993   6.942  1.00  0.00     0.037 A 
HETATM   17  C6  UNK     1      11.188   6.769   7.041  1.00  0.00     0.014 A 
BRANCH  15  18
HETATM   18  O1  UNK     1       7.891   5.373   7.795  1.00  0.00    -0.356 OA
HETATM   19  C16 UNK     1       7.431   4.740   8.988  1.00  0.00     0.210 C 
ENDBRANCH  15  18
ENDBRANCH   2  12
TORSDOF 3
ENDMDL
MODEL 6
REMARK VINA RESULT:      -6.9     22.588     24.109
REMARK  3 active torsions:
REMARK  status: ('A' for Active; 'I' for Inactive)
REMARK    1  A    between atoms: C7_10  and  O1_2 
REMARK    2  A    between atoms: C1_4  and  C3_6 
REMARK    3  A    between atoms: C2_5  and  C4_7 
ROOT
HETATM    1  N1  UNK     1      13.484   5.877  10.180  1.00  0.00    -0.191 NA
HETATM    2  C3  UNK     1      12.517   8.489   8.197  1.00  0.00     0.034 C 
HETATM    3  C4  UNK     1      13.587   8.133   8.911  1.00  0.00     0.055 C 
HETATM    4  C15 UNK     1      13.529   6.887   9.611  1.00  0.00     0.100 C 
ENDROOT
BRANCH   3   5
HETATM    5  C2  UNK     1      14.819   8.938   9.043  1.00  0.00    -0.015 A 
HETATM    6  C10 UNK     1      15.834   8.488   9.868  1.00  0.00     0.014 A 
HETATM    7  C12 UNK     1      16.997   9.247   9.993  1.00  0.00     0.020 A 
HETATM    8  C14 UNK     1      17.126  10.446   9.291  1.00  0.00     0.011 A 
HETATM    9 Br1  UNK     1      18.702  11.475   9.460  1.00  0.00    -0.051 Br
HETATM   10  C13 UNK     1      16.092  10.884   8.464  1.00  0.00     0.020 A 
HETATM   11  C11 UNK     1      14.928  10.124   8.339  1.00  0.00     0.014 A 
ENDBRANCH   3   5
BRANCH   2  12
HETATM   12  C1  UNK     1      11.311   7.683   8.098  1.00  0.00    -0.035 A 
HETATM   13  C5  UNK     1      11.166   6.770   7.054  1.00  0.00     0.014 A 
HETATM   14  C8  UNK     1      10.009   5.997   6.958  1.00  0.00     0.037 A 
HETATM   15  C7  UNK     1       8.997   6.138   7.906  1.00  0.00     0.068 A 
HETATM   16  C9  UNK     1       9.140   7.051   8.951  1.00  0.00     0.037 A 
HETATM   17  C6  UNK     1      10.298   7.823   9.046  1.00  0.00     0.014 A 
BRANCH  15  18
HETATM   18  O1  UNK     1       7.868   5.384   7.812  1.00  0.00    -0.356 OA
HETATM   19  C16 UNK     1       7.452   4.687   8.987  1.00  0.00     0.210 C 
ENDBRANCH  15  18
ENDBRANCH   2  12
TORSDOF 3
ENDMDL
MODEL 7
REMARK VINA RESULT:      -6.8      2.550      4.002
REMARK  3 active torsions:
REMARK  status: ('A' for Active; 'I' for Inactive)
REMARK    1  A    between atoms: C7_10  and  O1_2 
REMARK    2  A    between atoms: C1_4  and  C3_6 
REMARK    3  A    between atoms: C2_5  and  C4_7 
ROOT
HETATM    1  N1  UNK     1      19.801   6.915  34.573  1.00  0.00    -0.191 NA
HETATM    2  C3  UNK     1      17.557   7.679  32.109  1.00  0.00     0.034 C 
HETATM    3  C4  UNK     1      18.044   8.248  33.213  1.00  0.00     0.055 C 
HETATM    4  C15 UNK     1      19.014   7.511  33.964  1.00  0.00     0.100 C 
ENDROOT
BRANCH   3   5
HETATM    5  C2  UNK     1      17.644   9.574  33.725  1.00  0.00    -0.015 A 
HETATM    6  C10 UNK     1      16.315   9.807  34.033  1.00  0.00     0.014 A 
HETATM    7  C12 UNK     1      15.937  11.059  34.517  1.00  0.00     0.020 A 
HETATM    8  C14 UNK     1      16.894  12.060  34.684  1.00  0.00     0.011 A 
HETATM    9 Br1  UNK     1      16.381  13.757  35.339  1.00  0.00    -0.051 Br
HETATM   10  C13 UNK     1      18.229  11.808  34.368  1.00  0.00     0.020 A 
HETATM   11  C11 UNK     1      18.607  10.555  33.884  1.00  0.00     0.014 A 
ENDBRANCH   3   5
BRANCH   2  12
HETATM   12  C1  UNK     1      17.959   6.364  31.637  1.00  0.00    -0.035 A 
HETATM   13  C5  UNK     1      18.776   6.245  30.513  1.00  0.00     0.014 A 
HETATM   14  C8  UNK     1      19.161   4.984  30.060  1.00  0.00     0.037 A 
HETATM   15  C7  UNK     1      18.728   3.840  30.730  1.00  0.00     0.068 A 
HETATM   16  C9  UNK     1      17.911   3.957  31.854  1.00  0.00     0.037 A 
HETATM   17  C6  UNK     1      17.527   5.220  32.308  1.00  0.00     0.014 A 
BRANCH  15  18
HETATM   18  O1  UNK     1      19.104   2.609  30.287  1.00  0.00    -0.356 OA
HETATM   19  C16 UNK     1      18.342   2.042  29.222  1.00  0.00     0.210 C 
ENDBRANCH  15  18
ENDBRANCH   2  12
TORSDOF 3
ENDMDL
MODEL 8
REMARK VINA RESULT:      -6.8      7.984     10.523
REMARK  3 active torsions:
REMARK  status: ('A' for Active; 'I' for Inactive)
REMARK    1  A    between atoms: C7_10  and  O1_2 
REMARK    2  A    between atoms: C1_4  and  C3_6 
REMARK    3  A    between atoms: C2_5  and  C4_7 
ROOT
HETATM    1  N1  UNK     1      21.871  -1.776  35.357  1.00  0.00    -0.191 NA
HETATM    2  C3  UNK     1      18.607  -2.192  36.287  1.00  0.00     0.034 C 
HETATM    3  C4  UNK     1      19.746  -2.884  36.343  1.00  0.00     0.055 C 
HETATM    4  C15 UNK     1      20.919  -2.271  35.798  1.00  0.00     0.100 C 
ENDROOT
BRANCH   3   5
HETATM    5  C2  UNK     1      19.882  -4.241  36.911  1.00  0.00    -0.015 A 
HETATM    6  C10 UNK     1      20.967  -4.529  37.719  1.00  0.00     0.014 A 
HETATM    7  C12 UNK     1      21.096  -5.809  38.256  1.00  0.00     0.020 A 
HETATM    8  C14 UNK     1      20.137  -6.783  37.976  1.00  0.00     0.011 A 
HETATM    9 Br1  UNK     1      20.311  -8.519  38.704  1.00  0.00    -0.051 Br
HETATM   10  C13 UNK     1      19.049  -6.475  37.159  1.00  0.00     0.020 A 
HETATM   11  C11 UNK     1      18.921  -5.193  36.621  1.00  0.00     0.014 A 
ENDBRANCH   3   5
BRANCH   2  12
HETATM   12  C1  UNK     1      18.500  -0.864  35.706  1.00  0.00    -0.035 A 
HETATM   13  C5  UNK     1      18.356  -0.714  34.327  1.00  0.00     0.014 A 
HETATM   14  C8  UNK     1      18.253   0.560  33.769  1.00  0.00     0.037 A 
HETATM   15  C7  UNK     1      18.295   1.685  34.592  1.00  0.00     0.068 A 
HETATM   16  C9  UNK     1      18.440   1.538  35.971  1.00  0.00     0.037 A 
HETATM   17  C6  UNK     1      18.542   0.262  36.528  1.00  0.00     0.014 A 
BRANCH  15  18
HETATM   18  O1  UNK     1      18.196   2.929  34.047  1.00  0.00    -0.356 OA
HETATM   19  C16 UNK     1      18.178   3.015  32.623  1.00  0.00     0.210 C 
ENDBRANCH  15  18
ENDBRANCH   2  12
TORSDOF 3
ENDMDL
MODEL 9
REMARK VINA RESULT:      -6.7      8.998     11.091
REMARK  3 active torsions:
REMARK  status: ('A' for Active; 'I' for Inactive)
REMARK    1  A    between atoms: C7_10  and  O1_2 
REMARK    2  A    between atoms: C1_4  and  C3_6 
REMARK    3  A    between atoms: C2_5  and  C4_7 
ROOT
HETATM    1  N1  UNK     1      22.048  -4.934  37.926  1.00  0.00    -0.191 NA
HETATM    2  C3  UNK     1      19.207  -5.476  36.101  1.00  0.00     0.034 C 
HETATM    3  C4  UNK     1      19.839  -4.444  36.663  1.00  0.00     0.055 C 
HETATM    4  C15 UNK     1      21.058  -4.716  37.360  1.00  0.00     0.100 C 
ENDROOT
BRANCH   3   5
HETATM    5  C2  UNK     1      19.363  -3.046  36.632  1.00  0.00    -0.015 A 
HETATM    6  C10 UNK     1      18.649  -2.551  37.708  1.00  0.00     0.014 A 
HETATM    7  C12 UNK     1      18.200  -1.231  37.679  1.00  0.00     0.020 A 
HETATM    8  C14 UNK     1      18.472  -0.426  36.572  1.00  0.00     0.011 A 
HETATM    9 Br1  UNK     1      17.864   1.363  36.532  1.00  0.00    -0.051 Br
HETATM   10  C13 UNK     1      19.194  -0.943  35.495  1.00  0.00     0.020 A 
HETATM   11  C11 UNK     1      19.643  -2.263  35.525  1.00  0.00     0.014 A 
ENDBRANCH   3   5
BRANCH   2  12
HETATM   12  C1  UNK     1      19.691  -6.846  36.162  1.00  0.00    -0.035 A 
HETATM   13  C5  UNK     1      19.280  -7.686  37.198  1.00  0.00     0.014 A 
HETATM   14  C8  UNK     1      19.744  -9.000  37.256  1.00  0.00     0.037 A 
HETATM   15  C7  UNK     1      20.619  -9.474  36.280  1.00  0.00     0.068 A 
HETATM   16  C9  UNK     1      21.031  -8.635  35.245  1.00  0.00     0.037 A 
HETATM   17  C6  UNK     1      20.566  -7.321  35.186  1.00  0.00     0.014 A 
BRANCH  15  18
HETATM   18  O1  UNK     1      21.073 -10.756  36.338  1.00  0.00    -0.356 OA
HETATM   19  C16 UNK     1      22.301 -11.042  35.670  1.00  0.00     0.210 C 
ENDBRANCH  15  18
ENDBRANCH   2  12
TORSDOF 3
ENDMDL
MODEL 10
REMARK VINA RESULT:      -6.5      1.918      2.923
REMARK  3 active torsions:
REMARK  status: ('A' for Active; 'I' for Inactive)
REMARK    1  A    between atoms: C7_10  and  O1_2 
REMARK    2  A    between atoms: C1_4  and  C3_6 
REMARK    3  A    between atoms: C2_5  and  C4_7 
ROOT
HETATM    1  N1  UNK     1      20.895   6.443  32.920  1.00  0.00    -0.191 NA
HETATM    2  C3  UNK     1      17.549   6.062  32.333  1.00  0.00     0.034 C 
HETATM    3  C4  UNK     1      18.369   7.004  32.801  1.00  0.00     0.055 C 
HETATM    4  C15 UNK     1      19.764   6.693  32.866  1.00  0.00     0.100 C 
ENDROOT
BRANCH   3   5
HETATM    5  C2  UNK     1      17.940   8.338  33.270  1.00  0.00    -0.015 A 
HETATM    6  C10 UNK     1      18.889   9.218  33.759  1.00  0.00     0.014 A 
HETATM    7  C12 UNK     1      18.485  10.477  34.202  1.00  0.00     0.020 A 
HETATM    8  C14 UNK     1      17.138  10.836  34.151  1.00  0.00     0.011 A 
HETATM    9 Br1  UNK     1      16.590  12.542  34.751  1.00  0.00    -0.051 Br
HETATM   10  C13 UNK     1      16.195   9.935  33.655  1.00  0.00     0.020 A 
HETATM   11  C11 UNK     1      16.600   8.675  33.212  1.00  0.00     0.014 A 
ENDBRANCH   3   5
BRANCH   2  12
HETATM   12  C1  UNK     1      17.997   4.751  31.892  1.00  0.00    -0.035 A 
HETATM   13  C5  UNK     1      17.974   3.672  32.776  1.00  0.00     0.014 A 
HETATM   14  C8  UNK     1      18.404   2.414  32.353  1.00  0.00     0.037 A 
HETATM   15  C7  UNK     1      18.858   2.236  31.047  1.00  0.00     0.068 A 
HETATM   16  C9  UNK     1      18.883   3.314  30.163  1.00  0.00     0.037 A 
HETATM   17  C6  UNK     1      18.451   4.572  30.586  1.00  0.00     0.014 A 
BRANCH  15  18
HETATM   18  O1  UNK     1      19.279   1.009  30.636  1.00  0.00    -0.356 OA
HETATM   19  C16 UNK     1      19.240  -0.047  31.595  1.00  0.00     0.210 C 
ENDBRANCH  15  18
ENDBRANCH   2  12
TORSDOF 3
ENDMDL
