MODEL 1
REMARK VINA RESULT:      -8.7      0.000      0.000
REMARK  3 active torsions:
REMARK  status: ('A' for Active; 'I' for Inactive)
REMARK    1  A    between atoms: C4_8  and  O1_2 
REMARK    2  A    between atoms: C8_12  and  O1_2 
REMARK    3  A    between atoms: C10_14  and  C8_12 
ROOT
HETATM    1  I1  UNK     1      18.143   1.802  34.581  1.00  0.00    -0.039 I 
HETATM    2  O2  UNK     1      19.426  -0.486  32.814  1.00  0.00    -0.273 OA
HETATM    3  O3  UNK     1      20.281  -2.586  33.105  1.00  0.00    -0.260 OA
HETATM    4  C1  UNK     1      19.386   0.488  30.574  1.00  0.00     0.005 A 
HETATM    5  C2  UNK     1      19.116   0.576  31.940  1.00  0.00     0.109 A 
HETATM    6  C3  UNK     1      20.003  -0.740  30.055  1.00  0.00    -0.043 A 
HETATM    7  C4  UNK     1      18.203   2.787  31.702  1.00  0.00     0.088 A 
HETATM    8  C5  UNK     1      19.048   1.588  29.772  1.00  0.00     0.017 A 
HETATM    9  C6  UNK     1      18.531   1.706  32.513  1.00  0.00     0.074 A 
HETATM   10  C7  UNK     1      18.462   2.727  30.333  1.00  0.00     0.039 A 
HETATM   11  C9  UNK     1      20.286  -1.734  30.909  1.00  0.00     0.090 A 
HETATM   12  C11 UNK     1      20.305  -0.866  28.591  1.00  0.00     0.049 C 
HETATM   13  C12 UNK     1      20.008  -1.657  32.353  1.00  0.00     0.288 A 
ENDROOT
BRANCH   7  14
HETATM   14  O1  UNK     1      17.631   3.921  32.196  1.00  0.00    -0.345 OA
BRANCH  14  15
HETATM   15  C8  UNK     1      18.037   5.157  31.612  1.00  0.00     0.214 C 
BRANCH  15  16
HETATM   16  C10 UNK     1      18.358   6.133  32.706  1.00  0.00    -0.034 A 
HETATM   17  C14 UNK     1      17.378   6.476  33.632  1.00  0.00     0.009 A 
HETATM   18  C16 UNK     1      17.677   7.383  34.648  1.00  0.00     0.001 A 
HETATM   19  C17 UNK     1      18.951   7.943  34.733  1.00  0.00     0.000 A 
HETATM   20  C15 UNK     1      19.928   7.595  33.800  1.00  0.00     0.001 A 
HETATM   21  C13 UNK     1      19.630   6.688  32.784  1.00  0.00     0.009 A 
ENDBRANCH  15  16
ENDBRANCH  14  15
ENDBRANCH   7  14
TORSDOF 3
ENDMDL
MODEL 2
REMARK VINA RESULT:      -7.9      2.907      8.359
REMARK  3 active torsions:
REMARK  status: ('A' for Active; 'I' for Inactive)
REMARK    1  A    between atoms: C4_8  and  O1_2 
REMARK    2  A    between atoms: C8_12  and  O1_2 
REMARK    3  A    between atoms: C10_14  and  C8_12 
ROOT
HETATM    1  I1  UNK     1      15.091   7.009  32.150  1.00  0.00    -0.039 I 
HETATM    2  O2  UNK     1      16.817   9.366  33.364  1.00  0.00    -0.273 OA
HETATM    3  O3  UNK     1      16.528  11.552  33.967  1.00  0.00    -0.260 OA
HETATM    4  C1  UNK     1      19.010   8.328  33.645  1.00  0.00     0.005 A 
HETATM    5  C2  UNK     1      17.673   8.252  33.252  1.00  0.00     0.109 A 
HETATM    6  C3  UNK     1      19.516   9.599  34.181  1.00  0.00    -0.043 A 
HETATM    7  C4  UNK     1      17.909   5.950  32.600  1.00  0.00     0.088 A 
HETATM    8  C5  UNK     1      19.796   7.176  33.502  1.00  0.00     0.017 A 
HETATM    9  C6  UNK     1      17.113   7.083  32.734  1.00  0.00     0.074 A 
HETATM   10  C7  UNK     1      19.249   5.997  32.983  1.00  0.00     0.039 A 
HETATM   11  C9  UNK     1      18.679  10.642  34.275  1.00  0.00     0.090 A 
HETATM   12  C11 UNK     1      20.949   9.713  34.611  1.00  0.00     0.049 C 
HETATM   13  C12 UNK     1      17.265  10.578  33.866  1.00  0.00     0.288 A 
ENDROOT
BRANCH   7  14
HETATM   14  O1  UNK     1      17.427   4.777  32.100  1.00  0.00    -0.345 OA
BRANCH  14  15
HETATM   15  C8  UNK     1      18.077   3.579  32.522  1.00  0.00     0.214 C 
BRANCH  15  16
HETATM   16  C10 UNK     1      18.343   2.719  31.322  1.00  0.00    -0.034 A 
HETATM   17  C14 UNK     1      17.944   3.152  30.062  1.00  0.00     0.009 A 
HETATM   18  C16 UNK     1      18.192   2.352  28.946  1.00  0.00     0.001 A 
HETATM   19  C17 UNK     1      18.837   1.124  29.097  1.00  0.00     0.000 A 
HETATM   20  C15 UNK     1      19.233   0.696  30.364  1.00  0.00     0.001 A 
HETATM   21  C13 UNK     1      18.985   1.496  31.480  1.00  0.00     0.009 A 
ENDBRANCH  15  16
ENDBRANCH  14  15
ENDBRANCH   7  14
TORSDOF 3
ENDMDL
MODEL 3
REMARK VINA RESULT:      -7.9      5.447      9.855
REMARK  3 active torsions:
REMARK  status: ('A' for Active; 'I' for Inactive)
REMARK    1  A    between atoms: C4_8  and  O1_2 
REMARK    2  A    between atoms: C8_12  and  O1_2 
REMARK    3  A    between atoms: C10_14  and  C8_12 
ROOT
HETATM    1  I1  UNK     1      20.582  -2.504  33.156  1.00  0.00    -0.039 I 
HETATM    2  O2  UNK     1      18.823  -0.015  34.006  1.00  0.00    -0.273 OA
HETATM    3  O3  UNK     1      17.994   1.890  33.052  1.00  0.00    -0.260 OA
HETATM    4  C1  UNK     1      18.347  -0.480  36.357  1.00  0.00     0.005 A 
HETATM    5  C2  UNK     1      18.945  -0.834  35.147  1.00  0.00     0.109 A 
HETATM    6  C3  UNK     1      17.580   0.771  36.423  1.00  0.00    -0.043 A 
HETATM    7  C4  UNK     1      19.846  -2.854  36.089  1.00  0.00     0.088 A 
HETATM    8  C5  UNK     1      18.515  -1.348  37.444  1.00  0.00     0.017 A 
HETATM    9  C6  UNK     1      19.690  -2.005  34.998  1.00  0.00     0.074 A 
HETATM   10  C7  UNK     1      19.259  -2.525  37.310  1.00  0.00     0.039 A 
HETATM   11  C9  UNK     1      17.480   1.530  35.322  1.00  0.00     0.090 A 
HETATM   12  C11 UNK     1      16.924   1.180  37.709  1.00  0.00     0.049 C 
HETATM   13  C12 UNK     1      18.106   1.171  34.039  1.00  0.00     0.288 A 
ENDROOT
BRANCH   7  14
HETATM   14  O1  UNK     1      20.561  -4.013  36.014  1.00  0.00    -0.345 OA
BRANCH  14  15
HETATM   15  C8  UNK     1      19.824  -5.232  36.069  1.00  0.00     0.214 C 
BRANCH  15  16
HETATM   16  C10 UNK     1      20.252  -6.008  37.280  1.00  0.00    -0.034 A 
HETATM   17  C14 UNK     1      19.375  -6.917  37.861  1.00  0.00     0.009 A 
HETATM   18  C16 UNK     1      19.773  -7.638  38.987  1.00  0.00     0.001 A 
HETATM   19  C17 UNK     1      21.045  -7.445  39.526  1.00  0.00     0.000 A 
HETATM   20  C15 UNK     1      21.919  -6.530  38.938  1.00  0.00     0.001 A 
HETATM   21  C13 UNK     1      21.521  -5.810  37.812  1.00  0.00     0.009 A 
ENDBRANCH  15  16
ENDBRANCH  14  15
ENDBRANCH   7  14
TORSDOF 3
ENDMDL
MODEL 4
REMARK VINA RESULT:      -7.8      2.131      3.155
REMARK  3 active torsions:
REMARK  status: ('A' for Active; 'I' for Inactive)
REMARK    1  A    between atoms: C4_8  and  O1_2 
REMARK    2  A    between atoms: C8_12  and  O1_2 
REMARK    3  A    between atoms: C10_14  and  C8_12 
ROOT
HETATM    1  I1  UNK     1      18.529   2.409  29.651  1.00  0.00    -0.039 I 
HETATM    2  O2  UNK     1      18.643   0.264  31.973  1.00  0.00    -0.273 OA
HETATM    3  O3  UNK     1      18.895  -1.998  32.191  1.00  0.00    -0.260 OA
HETATM    4  C1  UNK     1      18.362   1.634  33.976  1.00  0.00     0.005 A 
HETATM    5  C2  UNK     1      18.459   1.518  32.589  1.00  0.00     0.109 A 
HETATM    6  C3  UNK     1      18.456   0.416  34.792  1.00  0.00    -0.043 A 
HETATM    7  C4  UNK     1      18.200   3.889  32.290  1.00  0.00     0.088 A 
HETATM    8  C5  UNK     1      18.180   2.917  34.510  1.00  0.00     0.017 A 
HETATM    9  C6  UNK     1      18.381   2.624  31.741  1.00  0.00     0.074 A 
HETATM   10  C7  UNK     1      18.100   4.035  33.673  1.00  0.00     0.039 A 
HETATM   11  C9  UNK     1      18.631  -0.764  34.180  1.00  0.00     0.090 A 
HETATM   12  C11 UNK     1      18.356   0.507  36.287  1.00  0.00     0.049 C 
HETATM   13  C12 UNK     1      18.735  -0.902  32.717  1.00  0.00     0.288 A 
ENDROOT
BRANCH   7  14
HETATM   14  O1  UNK     1      18.114   5.012  31.521  1.00  0.00    -0.345 OA
BRANCH  14  15
HETATM   15  C8  UNK     1      19.251   5.873  31.503  1.00  0.00     0.214 C 
BRANCH  15  16
HETATM   16  C10 UNK     1      19.034   6.989  32.482  1.00  0.00    -0.034 A 
HETATM   17  C14 UNK     1      17.831   7.686  32.475  1.00  0.00     0.009 A 
HETATM   18  C16 UNK     1      17.629   8.725  33.385  1.00  0.00     0.001 A 
HETATM   19  C17 UNK     1      18.631   9.060  34.295  1.00  0.00     0.000 A 
HETATM   20  C15 UNK     1      19.836   8.356  34.296  1.00  0.00     0.001 A 
HETATM   21  C13 UNK     1      20.037   7.318  33.386  1.00  0.00     0.009 A 
ENDBRANCH  15  16
ENDBRANCH  14  15
ENDBRANCH   7  14
TORSDOF 3
ENDMDL
MODEL 5
REMARK VINA RESULT:      -7.6      3.737      7.948
REMARK  3 active torsions:
REMARK  status: ('A' for Active; 'I' for Inactive)
REMARK    1  A    between atoms: C4_8  and  O1_2 
REMARK    2  A    between atoms: C8_12  and  O1_2 
REMARK    3  A    between atoms: C10_14  and  C8_12 
ROOT
HETATM    1  I1  UNK     1      17.574   0.466  34.968  1.00  0.00    -0.039 I 
HETATM    2  O2  UNK     1      18.392   1.014  31.962  1.00  0.00    -0.273 OA
HETATM    3  O3  UNK     1      17.956   2.557  30.333  1.00  0.00    -0.260 OA
HETATM    4  C1  UNK     1      19.898  -0.847  31.474  1.00  0.00     0.005 A 
HETATM    5  C2  UNK     1      19.063  -0.162  32.357  1.00  0.00     0.109 A 
HETATM    6  C3  UNK     1      20.070  -0.319  30.114  1.00  0.00    -0.043 A 
HETATM    7  C4  UNK     1      19.480  -1.748  34.114  1.00  0.00     0.088 A 
HETATM    8  C5  UNK     1      20.529  -2.008  31.944  1.00  0.00     0.017 A 
HETATM    9  C6  UNK     1      18.846  -0.594  33.666  1.00  0.00     0.074 A 
HETATM   10  C7  UNK     1      20.321  -2.454  33.253  1.00  0.00     0.039 A 
HETATM   11  C9  UNK     1      19.420   0.801  29.766  1.00  0.00     0.090 A 
HETATM   12  C11 UNK     1      20.962  -1.032  29.141  1.00  0.00     0.049 C 
HETATM   13  C12 UNK     1      18.535   1.535  30.686  1.00  0.00     0.288 A 
ENDROOT
BRANCH   7  14
HETATM   14  O1  UNK     1      19.312  -2.228  35.379  1.00  0.00    -0.345 OA
BRANCH  14  15
HETATM   15  C8  UNK     1      20.490  -2.602  36.091  1.00  0.00     0.214 C 
BRANCH  15  16
HETATM   16  C10 UNK     1      20.283  -3.958  36.700  1.00  0.00    -0.034 A 
HETATM   17  C14 UNK     1      21.198  -4.443  37.628  1.00  0.00     0.009 A 
HETATM   18  C16 UNK     1      21.006  -5.703  38.194  1.00  0.00     0.001 A 
HETATM   19  C17 UNK     1      19.900  -6.471  37.829  1.00  0.00     0.000 A 
HETATM   20  C15 UNK     1      18.986  -5.978  36.897  1.00  0.00     0.001 A 
HETATM   21  C13 UNK     1      19.179  -4.718  36.331  1.00  0.00     0.009 A 
ENDBRANCH  15  16
ENDBRANCH  14  15
ENDBRANCH   7  14
TORSDOF 3
ENDMDL
MODEL 6
REMARK VINA RESULT:      -7.4      2.945      4.527
REMARK  3 active torsions:
REMARK  status: ('A' for Active; 'I' for Inactive)
REMARK    1  A    between atoms: C4_8  and  O1_2 
REMARK    2  A    between atoms: C8_12  and  O1_2 
REMARK    3  A    between atoms: C10_14  and  C8_12 
ROOT
HETATM    1  I1  UNK     1      19.364  -0.158  31.584  1.00  0.00    -0.039 I 
HETATM    2  O2  UNK     1      19.574  -1.932  34.195  1.00  0.00    -0.273 OA
HETATM    3  O3  UNK     1      20.415  -3.967  34.808  1.00  0.00    -0.260 OA
HETATM    4  C1  UNK     1      18.468  -0.541  35.872  1.00  0.00     0.005 A 
HETATM    5  C2  UNK     1      18.902  -0.748  34.562  1.00  0.00     0.109 A 
HETATM    6  C3  UNK     1      18.726  -1.585  36.873  1.00  0.00    -0.043 A 
HETATM    7  C4  UNK     1      18.040   1.381  33.852  1.00  0.00     0.088 A 
HETATM    8  C5  UNK     1      17.808   0.663  36.156  1.00  0.00     0.017 A 
HETATM    9  C6  UNK     1      18.698   0.193  33.552  1.00  0.00     0.074 A 
HETATM   10  C7  UNK     1      17.596   1.615  35.153  1.00  0.00     0.039 A 
HETATM   11  C9  UNK     1      19.367  -2.701  36.496  1.00  0.00     0.090 A 
HETATM   12  C11 UNK     1      18.273  -1.393  38.290  1.00  0.00     0.049 C 
HETATM   13  C12 UNK     1      19.831  -2.934  35.118  1.00  0.00     0.288 A 
ENDROOT
BRANCH   7  14
HETATM   14  O1  UNK     1      17.807   2.342  32.914  1.00  0.00    -0.345 OA
BRANCH  14  15
HETATM   15  C8  UNK     1      18.049   3.694  33.299  1.00  0.00     0.214 C 
BRANCH  15  16
HETATM   16  C10 UNK     1      18.463   4.480  32.090  1.00  0.00    -0.034 A 
HETATM   17  C14 UNK     1      18.673   3.825  30.881  1.00  0.00     0.009 A 
HETATM   18  C16 UNK     1      19.058   4.556  29.758  1.00  0.00     0.001 A 
HETATM   19  C17 UNK     1      19.233   5.937  29.849  1.00  0.00     0.000 A 
HETATM   20  C15 UNK     1      19.022   6.587  31.065  1.00  0.00     0.001 A 
HETATM   21  C13 UNK     1      18.636   5.856  32.189  1.00  0.00     0.009 A 
ENDBRANCH  15  16
ENDBRANCH  14  15
ENDBRANCH   7  14
TORSDOF 3
ENDMDL
MODEL 7
REMARK VINA RESULT:      -7.4      2.033      2.701
REMARK  3 active torsions:
REMARK  status: ('A' for Active; 'I' for Inactive)
REMARK    1  A    between atoms: C4_8  and  O1_2 
REMARK    2  A    between atoms: C8_12  and  O1_2 
REMARK    3  A    between atoms: C10_14  and  C8_12 
ROOT
HETATM    1  I1  UNK     1      18.601   3.868  29.652  1.00  0.00    -0.039 I 
HETATM    2  O2  UNK     1      19.649   0.884  29.580  1.00  0.00    -0.273 OA
HETATM    3  O3  UNK     1      20.582  -0.557  28.071  1.00  0.00    -0.260 OA
HETATM    4  C1  UNK     1      19.246   0.125  31.867  1.00  0.00     0.005 A 
HETATM    5  C2  UNK     1      19.187   1.120  30.891  1.00  0.00     0.109 A 
HETATM    6  C3  UNK     1      19.801  -1.186  31.503  1.00  0.00    -0.043 A 
HETATM    7  C4  UNK     1      18.205   2.686  32.429  1.00  0.00     0.088 A 
HETATM    8  C5  UNK     1      18.766   0.440  33.146  1.00  0.00     0.017 A 
HETATM    9  C6  UNK     1      18.675   2.392  31.153  1.00  0.00     0.074 A 
HETATM   10  C7  UNK     1      18.250   1.710  33.424  1.00  0.00     0.039 A 
HETATM   11  C9  UNK     1      20.233  -1.382  30.249  1.00  0.00     0.090 A 
HETATM   12  C11 UNK     1      19.878  -2.277  32.530  1.00  0.00     0.049 C 
HETATM   13  C12 UNK     1      20.178  -0.342  29.209  1.00  0.00     0.288 A 
ENDROOT
BRANCH   7  14
HETATM   14  O1  UNK     1      17.691   3.906  32.752  1.00  0.00    -0.345 OA
BRANCH  14  15
HETATM   15  C8  UNK     1      18.330   4.616  33.811  1.00  0.00     0.214 C 
BRANCH  15  16
HETATM   16  C10 UNK     1      18.141   6.089  33.595  1.00  0.00    -0.034 A 
HETATM   17  C14 UNK     1      17.083   6.541  32.815  1.00  0.00     0.009 A 
HETATM   18  C16 UNK     1      16.908   7.911  32.615  1.00  0.00     0.001 A 
HETATM   19  C17 UNK     1      17.792   8.820  33.195  1.00  0.00     0.000 A 
HETATM   20  C15 UNK     1      18.853   8.359  33.976  1.00  0.00     0.001 A 
HETATM   21  C13 UNK     1      19.027   6.990  34.176  1.00  0.00     0.009 A 
ENDBRANCH  15  16
ENDBRANCH  14  15
ENDBRANCH   7  14
TORSDOF 3
ENDMDL
MODEL 8
REMARK VINA RESULT:      -7.3      6.930     10.113
REMARK  3 active torsions:
REMARK  status: ('A' for Active; 'I' for Inactive)
REMARK    1  A    between atoms: C4_8  and  O1_2 
REMARK    2  A    between atoms: C8_12  and  O1_2 
REMARK    3  A    between atoms: C10_14  and  C8_12 
ROOT
HETATM    1  I1  UNK     1      17.467  -6.584  36.215  1.00  0.00    -0.039 I 
HETATM    2  O2  UNK     1      19.239  -8.504  37.998  1.00  0.00    -0.273 OA
HETATM    3  O3  UNK     1      19.161 -10.648  38.789  1.00  0.00    -0.260 OA
HETATM    4  C1  UNK     1      21.150  -7.090  38.563  1.00  0.00     0.005 A 
HETATM    5  C2  UNK     1      19.926  -7.276  37.920  1.00  0.00     0.109 A 
HETATM    6  C3  UNK     1      21.718  -8.207  39.330  1.00  0.00    -0.043 A 
HETATM    7  C4  UNK     1      19.947  -5.032  37.055  1.00  0.00     0.088 A 
HETATM    8  C5  UNK     1      21.769  -5.839  38.436  1.00  0.00     0.017 A 
HETATM    9  C6  UNK     1      19.317  -6.267  37.170  1.00  0.00     0.074 A 
HETATM   10  C7  UNK     1      21.171  -4.819  37.688  1.00  0.00     0.039 A 
HETATM   11  C9  UNK     1      21.043  -9.364  39.388  1.00  0.00     0.090 A 
HETATM   12  C11 UNK     1      23.033  -8.040  40.033  1.00  0.00     0.049 C 
HETATM   13  C12 UNK     1      19.750  -9.575  38.714  1.00  0.00     0.288 A 
ENDROOT
BRANCH   7  14
HETATM   14  O1  UNK     1      19.409  -4.004  36.340  1.00  0.00    -0.345 OA
BRANCH  14  15
HETATM   15  C8  UNK     1      20.243  -2.871  36.108  1.00  0.00     0.214 C 
BRANCH  15  16
HETATM   16  C10 UNK     1      19.819  -2.204  34.833  1.00  0.00    -0.034 A 
HETATM   17  C14 UNK     1      20.423  -2.563  33.633  1.00  0.00     0.009 A 
HETATM   18  C16 UNK     1      20.028  -1.942  32.448  1.00  0.00     0.001 A 
HETATM   19  C17 UNK     1      19.032  -0.966  32.469  1.00  0.00     0.000 A 
HETATM   20  C15 UNK     1      18.431  -0.611  33.677  1.00  0.00     0.001 A 
HETATM   21  C13 UNK     1      18.826  -1.231  34.862  1.00  0.00     0.009 A 
ENDBRANCH  15  16
ENDBRANCH  14  15
ENDBRANCH   7  14
TORSDOF 3
ENDMDL
MODEL 9
REMARK VINA RESULT:      -7.3      7.250      9.983
REMARK  3 active torsions:
REMARK  status: ('A' for Active; 'I' for Inactive)
REMARK    1  A    between atoms: C4_8  and  O1_2 
REMARK    2  A    between atoms: C8_12  and  O1_2 
REMARK    3  A    between atoms: C10_14  and  C8_12 
ROOT
HETATM    1  I1  UNK     1      17.439  -6.645  36.176  1.00  0.00    -0.039 I 
HETATM    2  O2  UNK     1      19.202  -8.539  37.995  1.00  0.00    -0.273 OA
HETATM    3  O3  UNK     1      19.129 -10.677  38.803  1.00  0.00    -0.260 OA
HETATM    4  C1  UNK     1      21.097  -7.108  38.572  1.00  0.00     0.005 A 
HETATM    5  C2  UNK     1      19.882  -7.307  37.916  1.00  0.00     0.109 A 
HETATM    6  C3  UNK     1      21.663  -8.215  39.355  1.00  0.00    -0.043 A 
HETATM    7  C4  UNK     1      19.899  -5.070  37.033  1.00  0.00     0.088 A 
HETATM    8  C5  UNK     1      21.709  -5.853  38.442  1.00  0.00     0.017 A 
HETATM    9  C6  UNK     1      19.276  -6.308  37.150  1.00  0.00     0.074 A 
HETATM   10  C7  UNK     1      21.114  -4.844  37.679  1.00  0.00     0.039 A 
HETATM   11  C9  UNK     1      20.995  -9.376  39.414  1.00  0.00     0.090 A 
HETATM   12  C11 UNK     1      22.968  -8.034  40.072  1.00  0.00     0.049 C 
HETATM   13  C12 UNK     1      19.712  -9.601  38.727  1.00  0.00     0.288 A 
ENDROOT
BRANCH   7  14
HETATM   14  O1  UNK     1      19.362  -4.051  36.303  1.00  0.00    -0.345 OA
BRANCH  14  15
HETATM   15  C8  UNK     1      20.015  -2.785  36.383  1.00  0.00     0.214 C 
BRANCH  15  16
HETATM   16  C10 UNK     1      18.983  -1.698  36.314  1.00  0.00    -0.034 A 
HETATM   17  C14 UNK     1      18.763  -1.033  35.113  1.00  0.00     0.009 A 
HETATM   18  C16 UNK     1      17.803  -0.022  35.049  1.00  0.00     0.001 A 
HETATM   19  C17 UNK     1      17.070   0.318  36.186  1.00  0.00     0.000 A 
HETATM   20  C15 UNK     1      17.297  -0.354  37.387  1.00  0.00     0.001 A 
HETATM   21  C13 UNK     1      18.256  -1.364  37.451  1.00  0.00     0.009 A 
ENDBRANCH  15  16
ENDBRANCH  14  15
ENDBRANCH   7  14
TORSDOF 3
ENDMDL
MODEL 10
REMARK VINA RESULT:      -7.3     15.254     17.901
REMARK  3 active torsions:
REMARK  status: ('A' for Active; 'I' for Inactive)
REMARK    1  A    between atoms: C4_8  and  O1_2 
REMARK    2  A    between atoms: C8_12  and  O1_2 
REMARK    3  A    between atoms: C10_14  and  C8_12 
ROOT
HETATM    1  I1  UNK     1      20.310  -1.525  12.980  1.00  0.00    -0.039 I 
HETATM    2  O2  UNK     1      19.242  -4.462  12.490  1.00  0.00    -0.273 OA
HETATM    3  O3  UNK     1      19.422  -6.098  10.903  1.00  0.00    -0.260 OA
HETATM    4  C1  UNK     1      17.880  -4.870  14.477  1.00  0.00     0.005 A 
HETATM    5  C2  UNK     1      18.710  -4.038  13.724  1.00  0.00     0.109 A 
HETATM    6  C3  UNK     1      17.567  -6.208  13.958  1.00  0.00    -0.043 A 
HETATM    7  C4  UNK     1      18.563  -2.278  15.356  1.00  0.00     0.088 A 
HETATM    8  C5  UNK     1      17.392  -4.373  15.694  1.00  0.00     0.017 A 
HETATM    9  C6  UNK     1      19.057  -2.753  14.146  1.00  0.00     0.074 A 
HETATM   10  C7  UNK     1      17.731  -3.088  16.129  1.00  0.00     0.039 A 
HETATM   11  C9  UNK     1      18.087  -6.585  12.781  1.00  0.00     0.090 A 
HETATM   12  C11 UNK     1      16.678  -7.127  14.743  1.00  0.00     0.049 C 
HETATM   13  C12 UNK     1      18.964  -5.719  11.975  1.00  0.00     0.288 A 
ENDROOT
BRANCH   7  14
HETATM   14  O1  UNK     1      18.861  -1.034  15.826  1.00  0.00    -0.345 OA
BRANCH  14  15
HETATM   15  C8  UNK     1      18.789  -0.842  17.238  1.00  0.00     0.214 C 
BRANCH  15  16
HETATM   16  C10 UNK     1      18.990   0.614  17.543  1.00  0.00    -0.034 A 
HETATM   17  C14 UNK     1      18.931   1.055  18.861  1.00  0.00     0.009 A 
HETATM   18  C16 UNK     1      19.117   2.408  19.145  1.00  0.00     0.001 A 
HETATM   19  C17 UNK     1      19.360   3.312  18.110  1.00  0.00     0.000 A 
HETATM   20  C15 UNK     1      19.417   2.862  16.791  1.00  0.00     0.001 A 
HETATM   21  C13 UNK     1      19.231   1.509  16.507  1.00  0.00     0.009 A 
ENDBRANCH  15  16
ENDBRANCH  14  15
ENDBRANCH   7  14
TORSDOF 3
ENDMDL
