MODEL 1
REMARK VINA RESULT:     -10.0      0.000      0.000
REMARK  3 active torsions:
REMARK  status: ('A' for Active; 'I' for Inactive)
REMARK    1  A    between atoms: C3_11  and  N1_7 
REMARK       I    between atoms: C8_16  and  N1_7 
REMARK       I    between atoms: C12_20  and  N2_8 
REMARK    2  A    between atoms: C12_20  and  C2_10 
REMARK    3  A    between atoms: C5_13  and  C8_16 
ROOT
HETATM    1  O2  UNK     1      16.989  -1.716  17.011  1.00  0.00    -0.267 OA
HETATM    2  N1  UNK     1      19.176  -0.890  16.726  1.00  0.00    -0.316 N 
HETATM    3  C8  UNK     1      18.082  -1.698  16.446  1.00  0.00     0.262 C 
HETATM    4  H1  UNK     1      20.012  -0.976  16.153  1.00  0.00     0.169 HD
ENDROOT
BRANCH   2   5
HETATM    5  C3  UNK     1      19.283   0.105  17.729  1.00  0.00     0.093 A 
HETATM    6  C2  UNK     1      19.412   1.439  17.611  1.00  0.00     0.072 A 
HETATM    7  C1  UNK     1      19.484   2.051  18.896  1.00  0.00    -0.031 A 
HETATM    8  C4  UNK     1      19.405   1.126  19.913  1.00  0.00    -0.012 A 
HETATM    9  C6  UNK     1      19.628   3.511  19.115  1.00  0.00     0.050 C 
HETATM   10  C10 UNK     1      19.440   1.349  21.377  1.00  0.00     0.057 C 
HETATM   11  S1  UNK     1      19.243  -0.472  19.319  1.00  0.00    -0.076 SA
BRANCH   6  12
HETATM   12  C12 UNK     1      19.465   2.136  16.348  1.00  0.00     0.252 C 
HETATM   13  O3  UNK     1      19.950   1.636  15.316  1.00  0.00    -0.268 OA
HETATM   14  N2  UNK     1      18.922   3.417  16.300  1.00  0.00    -0.366 N 
HETATM   15  H12 UNK     1      18.509   3.859  17.116  1.00  0.00     0.159 HD
HETATM   16  H13 UNK     1      18.924   3.951  15.438  1.00  0.00     0.159 HD
ENDBRANCH   6  12
ENDBRANCH   2   5
BRANCH   3  17
HETATM   17  C5  UNK     1      18.340  -2.613  15.329  1.00  0.00     0.108 A 
HETATM   18  C13 UNK     1      19.169  -2.221  14.168  1.00  0.00     0.304 A 
HETATM   19  O1  UNK     1      19.342  -3.178  13.171  1.00  0.00    -0.274 OA
HETATM   20  O4  UNK     1      19.682  -1.110  14.083  1.00  0.00    -0.259 OA
HETATM   21  C11 UNK     1      18.760  -4.457  13.260  1.00  0.00     0.089 A 
HETATM   22  C7  UNK     1      17.983  -4.805  14.361  1.00  0.00     0.000 A 
HETATM   23  C15 UNK     1      18.989  -5.347  12.213  1.00  0.00     0.039 A 
HETATM   24  C14 UNK     1      17.422  -6.083  14.413  1.00  0.00     0.033 A 
HETATM   25  C9  UNK     1      17.784  -3.827  15.419  1.00  0.00     0.037 A 
HETATM   26  C16 UNK     1      17.643  -6.987  13.369  1.00  0.00     0.011 A 
HETATM   27 Br1  UNK     1      16.881  -8.716  13.445  1.00  0.00    -0.051 Br
HETATM   28  C17 UNK     1      18.425  -6.620  12.273  1.00  0.00     0.022 A 
ENDBRANCH   3  17
TORSDOF 3
ENDMDL
MODEL 2
REMARK VINA RESULT:      -9.7     18.736     20.784
REMARK  3 active torsions:
REMARK  status: ('A' for Active; 'I' for Inactive)
REMARK    1  A    between atoms: C3_11  and  N1_7 
REMARK       I    between atoms: C8_16  and  N1_7 
REMARK       I    between atoms: C12_20  and  N2_8 
REMARK    2  A    between atoms: C12_20  and  C2_10 
REMARK    3  A    between atoms: C5_13  and  C8_16 
ROOT
HETATM    1  O2  UNK     1      20.999  -3.656  36.738  1.00  0.00    -0.267 OA
HETATM    2  N1  UNK     1      18.674  -3.448  36.429  1.00  0.00    -0.316 N 
HETATM    3  C8  UNK     1      19.872  -4.128  36.601  1.00  0.00     0.262 C 
HETATM    4  H1  UNK     1      17.811  -3.981  36.350  1.00  0.00     0.169 HD
ENDROOT
BRANCH   2   5
HETATM    5  C3  UNK     1      18.475  -2.047  36.373  1.00  0.00     0.093 A 
HETATM    6  C2  UNK     1      18.642  -1.192  35.346  1.00  0.00     0.072 A 
HETATM    7  C1  UNK     1      18.321   0.138  35.745  1.00  0.00    -0.031 A 
HETATM    8  C4  UNK     1      17.930   0.202  37.064  1.00  0.00    -0.012 A 
HETATM    9  C6  UNK     1      18.400   1.317  34.848  1.00  0.00     0.050 C 
HETATM   10  C10 UNK     1      17.517   1.383  37.855  1.00  0.00     0.057 C 
HETATM   11  S1  UNK     1      17.948  -1.337  37.816  1.00  0.00    -0.076 SA
BRANCH   6  12
HETATM   12  C12 UNK     1      19.082  -1.588  34.031  1.00  0.00     0.252 C 
HETATM   13  O3  UNK     1      20.201  -2.089  33.811  1.00  0.00    -0.268 OA
HETATM   14  N2  UNK     1      18.190  -1.414  32.977  1.00  0.00    -0.366 N 
HETATM   15  H12 UNK     1      17.265  -1.017  33.113  1.00  0.00     0.159 HD
HETATM   16  H13 UNK     1      18.441  -1.681  32.031  1.00  0.00     0.159 HD
ENDBRANCH   6  12
ENDBRANCH   2   5
BRANCH   3  17
HETATM   17  C5  UNK     1      19.686  -5.584  36.611  1.00  0.00     0.108 A 
HETATM   18  C13 UNK     1      18.358  -6.205  36.814  1.00  0.00     0.304 A 
HETATM   19  O1  UNK     1      18.310  -7.596  36.802  1.00  0.00    -0.274 OA
HETATM   20  O4  UNK     1      17.347  -5.532  36.984  1.00  0.00    -0.259 OA
HETATM   21  C11 UNK     1      19.464  -8.378  36.605  1.00  0.00     0.089 A 
HETATM   22  C7  UNK     1      20.703  -7.773  36.416  1.00  0.00     0.000 A 
HETATM   23  C15 UNK     1      19.317  -9.763  36.609  1.00  0.00     0.039 A 
HETATM   24  C14 UNK     1      21.826  -8.582  36.224  1.00  0.00     0.033 A 
HETATM   25  C9  UNK     1      20.787  -6.321  36.424  1.00  0.00     0.037 A 
HETATM   26  C16 UNK     1      21.694  -9.974  36.226  1.00  0.00     0.011 A 
HETATM   27 Br1  UNK     1      23.216 -11.065  35.966  1.00  0.00    -0.051 Br
HETATM   28  C17 UNK     1      20.442 -10.563  36.417  1.00  0.00     0.022 A 
ENDBRANCH   3  17
TORSDOF 3
ENDMDL
MODEL 3
REMARK VINA RESULT:      -9.6      2.018      2.652
REMARK  3 active torsions:
REMARK  status: ('A' for Active; 'I' for Inactive)
REMARK    1  A    between atoms: C3_11  and  N1_7 
REMARK       I    between atoms: C8_16  and  N1_7 
REMARK       I    between atoms: C12_20  and  N2_8 
REMARK    2  A    between atoms: C12_20  and  C2_10 
REMARK    3  A    between atoms: C5_13  and  C8_16 
ROOT
HETATM    1  O2  UNK     1      16.959  -1.739  16.969  1.00  0.00    -0.267 OA
HETATM    2  N1  UNK     1      19.158  -0.938  16.708  1.00  0.00    -0.316 N 
HETATM    3  C8  UNK     1      18.060  -1.737  16.421  1.00  0.00     0.262 C 
HETATM    4  H1  UNK     1      20.001  -1.038  16.149  1.00  0.00     0.169 HD
ENDROOT
BRANCH   2   5
HETATM    5  C3  UNK     1      19.261   0.064  17.704  1.00  0.00     0.093 A 
HETATM    6  C2  UNK     1      19.385   1.399  17.575  1.00  0.00     0.072 A 
HETATM    7  C1  UNK     1      19.454   2.020  18.856  1.00  0.00    -0.031 A 
HETATM    8  C4  UNK     1      19.378   1.103  19.880  1.00  0.00    -0.012 A 
HETATM    9  C6  UNK     1      19.593   3.483  19.064  1.00  0.00     0.050 C 
HETATM   10  C10 UNK     1      19.411   1.337  21.342  1.00  0.00     0.057 C 
HETATM   11  S1  UNK     1      19.222  -0.500  19.298  1.00  0.00    -0.076 SA
BRANCH   6  12
HETATM   12  C12 UNK     1      19.437   2.085  16.308  1.00  0.00     0.252 C 
HETATM   13  O3  UNK     1      19.884   1.563  15.269  1.00  0.00    -0.268 OA
HETATM   14  N2  UNK     1      18.938   3.384  16.262  1.00  0.00    -0.366 N 
HETATM   15  H12 UNK     1      18.557   3.845  17.083  1.00  0.00     0.159 HD
HETATM   16  H13 UNK     1      18.940   3.913  15.397  1.00  0.00     0.159 HD
ENDBRANCH   6  12
ENDBRANCH   2   5
BRANCH   3  17
HETATM   17  C5  UNK     1      18.325  -2.666  15.316  1.00  0.00     0.108 A 
HETATM   18  C13 UNK     1      17.834  -4.062  15.329  1.00  0.00     0.304 A 
HETATM   19  O1  UNK     1      18.150  -4.846  14.223  1.00  0.00    -0.274 OA
HETATM   20  O4  UNK     1      17.181  -4.511  16.265  1.00  0.00    -0.259 OA
HETATM   21  C11 UNK     1      18.897  -4.340  13.142  1.00  0.00     0.089 A 
HETATM   22  C7  UNK     1      19.349  -3.024  13.150  1.00  0.00     0.000 A 
HETATM   23  C15 UNK     1      19.163  -5.200  12.079  1.00  0.00     0.039 A 
HETATM   24  C14 UNK     1      20.088  -2.557  12.060  1.00  0.00     0.033 A 
HETATM   25  C9  UNK     1      19.036  -2.179  14.292  1.00  0.00     0.037 A 
HETATM   26  C16 UNK     1      20.363  -3.409  10.986  1.00  0.00     0.011 A 
HETATM   27 Br1  UNK     1      21.363  -2.774   9.513  1.00  0.00    -0.051 Br
HETATM   28  C17 UNK     1      19.901  -4.727  10.995  1.00  0.00     0.022 A 
ENDBRANCH   3  17
TORSDOF 3
ENDMDL
MODEL 4
REMARK VINA RESULT:      -9.5     14.127     16.691
REMARK  3 active torsions:
REMARK  status: ('A' for Active; 'I' for Inactive)
REMARK    1  A    between atoms: C3_11  and  N1_7 
REMARK       I    between atoms: C8_16  and  N1_7 
REMARK       I    between atoms: C12_20  and  N2_8 
REMARK    2  A    between atoms: C12_20  and  C2_10 
REMARK    3  A    between atoms: C5_13  and  C8_16 
ROOT
HETATM    1  O2  UNK     1      17.523   3.884  32.883  1.00  0.00    -0.267 OA
HETATM    2  N1  UNK     1      19.022   5.258  31.696  1.00  0.00    -0.316 N 
HETATM    3  C8  UNK     1      18.333   4.087  31.981  1.00  0.00     0.262 C 
HETATM    4  H1  UNK     1      19.649   5.279  30.896  1.00  0.00     0.169 HD
ENDROOT
BRANCH   2   5
HETATM    5  C3  UNK     1      18.948   6.494  32.385  1.00  0.00     0.093 A 
HETATM    6  C2  UNK     1      17.961   7.409  32.412  1.00  0.00     0.072 A 
HETATM    7  C1  UNK     1      18.321   8.508  33.245  1.00  0.00    -0.031 A 
HETATM    8  C4  UNK     1      19.572   8.349  33.799  1.00  0.00    -0.012 A 
HETATM    9  C6  UNK     1      17.452   9.686  33.489  1.00  0.00     0.050 C 
HETATM   10  C10 UNK     1      20.305   9.254  34.713  1.00  0.00     0.057 C 
HETATM   11  S1  UNK     1      20.307   6.879  33.316  1.00  0.00    -0.076 SA
BRANCH   6  12
HETATM   12  C12 UNK     1      16.718   7.276  31.692  1.00  0.00     0.252 C 
HETATM   13  O3  UNK     1      16.464   7.910  30.651  1.00  0.00    -0.268 OA
HETATM   14  N2  UNK     1      15.782   6.373  32.190  1.00  0.00    -0.366 N 
HETATM   15  H12 UNK     1      15.952   5.830  33.031  1.00  0.00     0.159 HD
HETATM   16  H13 UNK     1      14.894   6.232  31.722  1.00  0.00     0.159 HD
ENDBRANCH   6  12
ENDBRANCH   2   5
BRANCH   3  17
HETATM   17  C5  UNK     1      18.665   3.007  31.044  1.00  0.00     0.108 A 
HETATM   18  C13 UNK     1      18.538   3.171  29.579  1.00  0.00     0.304 A 
HETATM   19  O1  UNK     1      18.884   2.074  28.795  1.00  0.00    -0.274 OA
HETATM   20  O4  UNK     1      18.148   4.219  29.075  1.00  0.00    -0.259 OA
HETATM   21  C11 UNK     1      19.335   0.867  29.363  1.00  0.00     0.089 A 
HETATM   22  C7  UNK     1      19.447   0.734  30.743  1.00  0.00     0.000 A 
HETATM   23  C15 UNK     1      19.659  -0.175  28.496  1.00  0.00     0.039 A 
HETATM   24  C14 UNK     1      19.898  -0.479  31.270  1.00  0.00     0.033 A 
HETATM   25  C9  UNK     1      19.093   1.862  31.590  1.00  0.00     0.037 A 
HETATM   26  C16 UNK     1      20.226  -1.534  30.413  1.00  0.00     0.011 A 
HETATM   27 Br1  UNK     1      20.836  -3.174  31.130  1.00  0.00    -0.051 Br
HETATM   28  C17 UNK     1      20.108  -1.382  29.030  1.00  0.00     0.022 A 
ENDBRANCH   3  17
TORSDOF 3
ENDMDL
MODEL 5
REMARK VINA RESULT:      -9.2     18.619     20.934
REMARK  3 active torsions:
REMARK  status: ('A' for Active; 'I' for Inactive)
REMARK    1  A    between atoms: C3_11  and  N1_7 
REMARK       I    between atoms: C8_16  and  N1_7 
REMARK       I    between atoms: C12_20  and  N2_8 
REMARK    2  A    between atoms: C12_20  and  C2_10 
REMARK    3  A    between atoms: C5_13  and  C8_16 
ROOT
HETATM    1  O2  UNK     1      20.612  -3.439  37.742  1.00  0.00    -0.267 OA
HETATM    2  N1  UNK     1      18.905  -3.343  36.122  1.00  0.00    -0.316 N 
HETATM    3  C8  UNK     1      19.860  -3.959  36.919  1.00  0.00     0.262 C 
HETATM    4  H1  UNK     1      18.341  -3.914  35.499  1.00  0.00     0.169 HD
ENDROOT
BRANCH   2   5
HETATM    5  C3  UNK     1      18.576  -1.966  36.076  1.00  0.00     0.093 A 
HETATM    6  C2  UNK     1      18.625  -1.102  35.045  1.00  0.00     0.072 A 
HETATM    7  C1  UNK     1      18.197   0.194  35.458  1.00  0.00    -0.031 A 
HETATM    8  C4  UNK     1      17.850   0.223  36.791  1.00  0.00    -0.012 A 
HETATM    9  C6  UNK     1      18.133   1.374  34.561  1.00  0.00     0.050 C 
HETATM   10  C10 UNK     1      17.359   1.362  37.599  1.00  0.00     0.057 C 
HETATM   11  S1  UNK     1      18.038  -1.306  37.538  1.00  0.00    -0.076 SA
BRANCH   6  12
HETATM   12  C12 UNK     1      19.052  -1.457  33.714  1.00  0.00     0.252 C 
HETATM   13  O3  UNK     1      20.195  -1.876  33.456  1.00  0.00    -0.268 OA
HETATM   14  N2  UNK     1      18.117  -1.339  32.689  1.00  0.00    -0.366 N 
HETATM   15  H12 UNK     1      17.171  -1.009  32.856  1.00  0.00     0.159 HD
HETATM   16  H13 UNK     1      18.358  -1.582  31.734  1.00  0.00     0.159 HD
ENDBRANCH   6  12
ENDBRANCH   2   5
BRANCH   3  17
HETATM   17  C5  UNK     1      19.919  -5.408  36.694  1.00  0.00     0.108 A 
HETATM   18  C13 UNK     1      20.186  -5.985  35.357  1.00  0.00     0.304 A 
HETATM   19  O1  UNK     1      20.217  -7.374  35.271  1.00  0.00    -0.274 OA
HETATM   20  O4  UNK     1      20.373  -5.278  34.372  1.00  0.00    -0.259 OA
HETATM   21  C11 UNK     1      20.006  -8.194  36.396  1.00  0.00     0.089 A 
HETATM   22  C7  UNK     1      19.756  -7.630  37.643  1.00  0.00     0.000 A 
HETATM   23  C15 UNK     1      20.056  -9.574  36.210  1.00  0.00     0.039 A 
HETATM   24  C14 UNK     1      19.551  -8.477  38.736  1.00  0.00     0.033 A 
HETATM   25  C9  UNK     1      19.717  -6.182  37.767  1.00  0.00     0.037 A 
HETATM   26  C16 UNK     1      19.598  -9.864  38.565  1.00  0.00     0.011 A 
HETATM   27 Br1  UNK     1      19.321 -11.005  40.047  1.00  0.00    -0.051 Br
HETATM   28  C17 UNK     1      19.851 -10.410  37.306  1.00  0.00     0.022 A 
ENDBRANCH   3  17
TORSDOF 3
ENDMDL
MODEL 6
REMARK VINA RESULT:      -9.2     14.165     16.735
REMARK  3 active torsions:
REMARK  status: ('A' for Active; 'I' for Inactive)
REMARK    1  A    between atoms: C3_11  and  N1_7 
REMARK       I    between atoms: C8_16  and  N1_7 
REMARK       I    between atoms: C12_20  and  N2_8 
REMARK    2  A    between atoms: C12_20  and  C2_10 
REMARK    3  A    between atoms: C5_13  and  C8_16 
ROOT
HETATM    1  O2  UNK     1      17.730   3.255  33.135  1.00  0.00    -0.267 OA
HETATM    2  N1  UNK     1      18.251   4.786  31.424  1.00  0.00    -0.316 N 
HETATM    3  C8  UNK     1      18.150   3.533  32.013  1.00  0.00     0.262 C 
HETATM    4  H1  UNK     1      18.602   4.857  30.472  1.00  0.00     0.169 HD
ENDROOT
BRANCH   2   5
HETATM    5  C3  UNK     1      17.891   6.037  31.983  1.00  0.00     0.093 A 
HETATM    6  C2  UNK     1      18.540   6.800  32.881  1.00  0.00     0.072 A 
HETATM    7  C1  UNK     1      17.802   7.987  33.157  1.00  0.00    -0.031 A 
HETATM    8  C4  UNK     1      16.627   8.043  32.441  1.00  0.00    -0.012 A 
HETATM    9  C6  UNK     1      18.244   9.040  34.105  1.00  0.00     0.050 C 
HETATM   10  C10 UNK     1      15.588   9.098  32.440  1.00  0.00     0.057 C 
HETATM   11  S1  UNK     1      16.418   6.669  31.439  1.00  0.00    -0.076 SA
BRANCH   6  12
HETATM   12  C12 UNK     1      19.809   6.448  33.470  1.00  0.00     0.252 C 
HETATM   13  O3  UNK     1      20.894   6.917  33.078  1.00  0.00    -0.268 OA
HETATM   14  N2  UNK     1      19.795   5.558  34.541  1.00  0.00    -0.366 N 
HETATM   15  H12 UNK     1      18.932   5.158  34.898  1.00  0.00     0.159 HD
HETATM   16  H13 UNK     1      20.655   5.280  35.000  1.00  0.00     0.159 HD
ENDBRANCH   6  12
ENDBRANCH   2   5
BRANCH   3  17
HETATM   17  C5  UNK     1      18.621   2.464  31.125  1.00  0.00     0.108 A 
HETATM   18  C13 UNK     1      18.607   2.604  29.652  1.00  0.00     0.304 A 
HETATM   19  O1  UNK     1      19.080   1.520  28.917  1.00  0.00    -0.274 OA
HETATM   20  O4  UNK     1      18.202   3.622  29.100  1.00  0.00    -0.259 OA
HETATM   21  C11 UNK     1      19.549   0.347  29.540  1.00  0.00     0.089 A 
HETATM   22  C7  UNK     1      19.552   0.237  30.927  1.00  0.00     0.000 A 
HETATM   23  C15 UNK     1      20.003  -0.684  28.721  1.00  0.00     0.039 A 
HETATM   24  C14 UNK     1      20.026  -0.942  31.509  1.00  0.00     0.033 A 
HETATM   25  C9  UNK     1      19.065   1.352  31.723  1.00  0.00     0.037 A 
HETATM   26  C16 UNK     1      20.484  -1.986  30.699  1.00  0.00     0.011 A 
HETATM   27 Br1  UNK     1      21.123  -3.580  31.491  1.00  0.00    -0.051 Br
HETATM   28  C17 UNK     1      20.473  -1.857  29.309  1.00  0.00     0.022 A 
ENDBRANCH   3  17
TORSDOF 3
ENDMDL
MODEL 7
REMARK VINA RESULT:      -9.1     17.200     20.808
REMARK  3 active torsions:
REMARK  status: ('A' for Active; 'I' for Inactive)
REMARK    1  A    between atoms: C3_11  and  N1_7 
REMARK       I    between atoms: C8_16  and  N1_7 
REMARK       I    between atoms: C12_20  and  N2_8 
REMARK    2  A    between atoms: C12_20  and  C2_10 
REMARK    3  A    between atoms: C5_13  and  C8_16 
ROOT
HETATM    1  O2  UNK     1      20.174  -2.821  37.859  1.00  0.00    -0.267 OA
HETATM    2  N1  UNK     1      19.693  -4.541  36.324  1.00  0.00    -0.316 N 
HETATM    3  C8  UNK     1      19.829  -3.227  36.750  1.00  0.00     0.262 C 
HETATM    4  H1  UNK     1      19.416  -4.721  35.362  1.00  0.00     0.169 HD
ENDROOT
BRANCH   2   5
HETATM    5  C3  UNK     1      19.925  -5.721  37.071  1.00  0.00     0.093 A 
HETATM    6  C2  UNK     1      19.145  -6.805  37.236  1.00  0.00     0.072 A 
HETATM    7  C1  UNK     1      19.786  -7.760  38.078  1.00  0.00    -0.031 A 
HETATM    8  C4  UNK     1      21.023  -7.327  38.500  1.00  0.00    -0.012 A 
HETATM    9  C6  UNK     1      19.192  -9.066  38.457  1.00  0.00     0.050 C 
HETATM   10  C10 UNK     1      21.999  -8.015  39.376  1.00  0.00     0.057 C 
HETATM   11  S1  UNK     1      21.409  -5.778  37.882  1.00  0.00    -0.076 SA
BRANCH   6  12
HETATM   12  C12 UNK     1      17.844  -6.962  36.633  1.00  0.00     0.252 C 
HETATM   13  O3  UNK     1      16.906  -6.166  36.824  1.00  0.00    -0.268 OA
HETATM   14  N2  UNK     1      17.658  -8.049  35.782  1.00  0.00    -0.366 N 
HETATM   15  H12 UNK     1      18.399  -8.718  35.592  1.00  0.00     0.159 HD
HETATM   16  H13 UNK     1      16.768  -8.206  35.323  1.00  0.00     0.159 HD
ENDBRANCH   6  12
ENDBRANCH   2   5
BRANCH   3  17
HETATM   17  C5  UNK     1      19.501  -2.264  35.692  1.00  0.00     0.108 A 
HETATM   18  C13 UNK     1      18.646  -1.082  35.943  1.00  0.00     0.304 A 
HETATM   19  O1  UNK     1      18.408  -0.242  34.859  1.00  0.00    -0.274 OA
HETATM   20  O4  UNK     1      18.169  -0.849  37.049  1.00  0.00    -0.259 OA
HETATM   21  C11 UNK     1      18.952  -0.499  33.586  1.00  0.00     0.089 A 
HETATM   22  C7  UNK     1      19.753  -1.616  33.372  1.00  0.00     0.000 A 
HETATM   23  C15 UNK     1      18.657   0.400  32.562  1.00  0.00     0.039 A 
HETATM   24  C14 UNK     1      20.275  -1.838  32.095  1.00  0.00     0.033 A 
HETATM   25  C9  UNK     1      20.021  -2.514  34.484  1.00  0.00     0.037 A 
HETATM   26  C16 UNK     1      19.987  -0.945  31.057  1.00  0.00     0.011 A 
HETATM   27 Br1  UNK     1      20.696  -1.249  29.331  1.00  0.00    -0.051 Br
HETATM   28  C17 UNK     1      19.182   0.171  31.291  1.00  0.00     0.022 A 
ENDBRANCH   3  17
TORSDOF 3
ENDMDL
MODEL 8
REMARK VINA RESULT:      -9.1     17.486     19.270
REMARK  3 active torsions:
REMARK  status: ('A' for Active; 'I' for Inactive)
REMARK    1  A    between atoms: C3_11  and  N1_7 
REMARK       I    between atoms: C8_16  and  N1_7 
REMARK       I    between atoms: C12_20  and  N2_8 
REMARK    2  A    between atoms: C12_20  and  C2_10 
REMARK    3  A    between atoms: C5_13  and  C8_16 
ROOT
HETATM    1  O2  UNK     1      19.198   6.025  32.217  1.00  0.00    -0.267 OA
HETATM    2  N1  UNK     1      17.139   6.032  33.358  1.00  0.00    -0.316 N 
HETATM    3  C8  UNK     1      18.268   5.460  32.788  1.00  0.00     0.262 C 
HETATM    4  H1  UNK     1      16.460   5.431  33.818  1.00  0.00     0.169 HD
ENDROOT
BRANCH   2   5
HETATM    5  C3  UNK     1      16.801   7.406  33.415  1.00  0.00     0.093 A 
HETATM    6  C2  UNK     1      15.661   8.030  33.063  1.00  0.00     0.072 A 
HETATM    7  C1  UNK     1      15.766   9.432  33.293  1.00  0.00    -0.031 A 
HETATM    8  C4  UNK     1      16.995   9.781  33.809  1.00  0.00    -0.012 A 
HETATM    9  C6  UNK     1      14.682  10.405  33.011  1.00  0.00     0.050 C 
HETATM   10  C10 UNK     1      17.499  11.121  34.185  1.00  0.00     0.057 C 
HETATM   11  S1  UNK     1      18.015   8.421  34.016  1.00  0.00    -0.076 SA
BRANCH   6  12
HETATM   12  C12 UNK     1      14.504   7.354  32.530  1.00  0.00     0.252 C 
HETATM   13  O3  UNK     1      14.461   6.884  31.378  1.00  0.00    -0.268 OA
HETATM   14  N2  UNK     1      13.402   7.212  33.370  1.00  0.00    -0.366 N 
HETATM   15  H12 UNK     1      13.397   7.573  34.319  1.00  0.00     0.159 HD
HETATM   16  H13 UNK     1      12.563   6.738  33.053  1.00  0.00     0.159 HD
ENDBRANCH   6  12
ENDBRANCH   2   5
BRANCH   3  17
HETATM   17  C5  UNK     1      18.277   3.999  32.924  1.00  0.00     0.108 A 
HETATM   18  C13 UNK     1      18.376   3.101  31.751  1.00  0.00     0.304 A 
HETATM   19  O1  UNK     1      18.375   1.733  32.010  1.00  0.00    -0.274 OA
HETATM   20  O4  UNK     1      18.457   3.535  30.607  1.00  0.00    -0.259 OA
HETATM   21  C11 UNK     1      18.286   1.224  33.319  1.00  0.00     0.089 A 
HETATM   22  C7  UNK     1      18.192   2.086  34.408  1.00  0.00     0.000 A 
HETATM   23  C15 UNK     1      18.292  -0.161  33.478  1.00  0.00     0.039 A 
HETATM   24  C14 UNK     1      18.105   1.543  35.692  1.00  0.00     0.033 A 
HETATM   25  C9  UNK     1      18.191   3.521  34.171  1.00  0.00     0.037 A 
HETATM   26  C16 UNK     1      18.110   0.156  35.867  1.00  0.00     0.011 A 
HETATM   27 Br1  UNK     1      17.991  -0.574  37.607  1.00  0.00    -0.051 Br
HETATM   28  C17 UNK     1      18.205  -0.693  34.763  1.00  0.00     0.022 A 
ENDBRANCH   3  17
TORSDOF 3
ENDMDL
MODEL 9
REMARK VINA RESULT:      -9.0     16.423     18.532
REMARK  3 active torsions:
REMARK  status: ('A' for Active; 'I' for Inactive)
REMARK    1  A    between atoms: C3_11  and  N1_7 
REMARK       I    between atoms: C8_16  and  N1_7 
REMARK       I    between atoms: C12_20  and  N2_8 
REMARK    2  A    between atoms: C12_20  and  C2_10 
REMARK    3  A    between atoms: C5_13  and  C8_16 
ROOT
HETATM    1  O2  UNK     1      18.634   5.273  30.789  1.00  0.00    -0.267 OA
HETATM    2  N1  UNK     1      17.456   5.291  32.828  1.00  0.00    -0.316 N 
HETATM    3  C8  UNK     1      18.166   4.718  31.781  1.00  0.00     0.262 C 
HETATM    4  H1  UNK     1      17.148   4.701  33.596  1.00  0.00     0.169 HD
ENDROOT
BRANCH   2   5
HETATM    5  C3  UNK     1      17.109   6.654  32.992  1.00  0.00     0.093 A 
HETATM    6  C2  UNK     1      17.813   7.665  33.536  1.00  0.00     0.072 A 
HETATM    7  C1  UNK     1      17.065   8.877  33.489  1.00  0.00    -0.031 A 
HETATM    8  C4  UNK     1      15.830   8.701  32.907  1.00  0.00    -0.012 A 
HETATM    9  C6  UNK     1      17.558  10.178  34.007  1.00  0.00     0.050 C 
HETATM   10  C10 UNK     1      14.762   9.699  32.670  1.00  0.00     0.057 C 
HETATM   11  S1  UNK     1      15.575   7.079  32.418  1.00  0.00    -0.076 SA
BRANCH   6  12
HETATM   12  C12 UNK     1      19.140   7.520  34.082  1.00  0.00     0.252 C 
HETATM   13  O3  UNK     1      20.155   7.382  33.375  1.00  0.00    -0.268 OA
HETATM   14  N2  UNK     1      19.271   7.562  35.468  1.00  0.00    -0.366 N 
HETATM   15  H12 UNK     1      18.471   7.681  36.082  1.00  0.00     0.159 HD
HETATM   16  H13 UNK     1      20.180   7.474  35.908  1.00  0.00     0.159 HD
ENDBRANCH   6  12
ENDBRANCH   2   5
BRANCH   3  17
HETATM   17  C5  UNK     1      18.336   3.271  31.955  1.00  0.00     0.108 A 
HETATM   18  C13 UNK     1      18.627   2.372  30.815  1.00  0.00     0.304 A 
HETATM   19  O1  UNK     1      18.767   1.018  31.107  1.00  0.00    -0.274 OA
HETATM   20  O4  UNK     1      18.740   2.794  29.669  1.00  0.00    -0.259 OA
HETATM   21  C11 UNK     1      18.640   0.523  32.419  1.00  0.00     0.089 A 
HETATM   22  C7  UNK     1      18.366   1.386  33.476  1.00  0.00     0.000 A 
HETATM   23  C15 UNK     1      18.797  -0.848  32.612  1.00  0.00     0.039 A 
HETATM   24  C14 UNK     1      18.248   0.858  34.764  1.00  0.00     0.033 A 
HETATM   25  C9  UNK     1      18.214   2.807  33.204  1.00  0.00     0.037 A 
HETATM   26  C16 UNK     1      18.402  -0.516  34.974  1.00  0.00     0.011 A 
HETATM   27 Br1  UNK     1      18.241  -1.226  36.719  1.00  0.00    -0.051 Br
HETATM   28  C17 UNK     1      18.678  -1.366  33.901  1.00  0.00     0.022 A 
ENDBRANCH   3  17
TORSDOF 3
ENDMDL
MODEL 10
REMARK VINA RESULT:      -8.9      1.705      1.999
REMARK  3 active torsions:
REMARK  status: ('A' for Active; 'I' for Inactive)
REMARK    1  A    between atoms: C3_11  and  N1_7 
REMARK       I    between atoms: C8_16  and  N1_7 
REMARK       I    between atoms: C12_20  and  N2_8 
REMARK    2  A    between atoms: C12_20  and  C2_10 
REMARK    3  A    between atoms: C5_13  and  C8_16 
ROOT
HETATM    1  O2  UNK     1      20.914  -2.082  17.677  1.00  0.00    -0.267 OA
HETATM    2  N1  UNK     1      18.979  -0.800  17.285  1.00  0.00    -0.316 N 
HETATM    3  C8  UNK     1      19.825  -1.892  17.140  1.00  0.00     0.262 C 
HETATM    4  H1  UNK     1      18.092  -0.794  16.788  1.00  0.00     0.169 HD
ENDROOT
BRANCH   2   5
HETATM    5  C3  UNK     1      19.179   0.348  18.090  1.00  0.00     0.093 A 
HETATM    6  C2  UNK     1      19.376   1.630  17.730  1.00  0.00     0.072 A 
HETATM    7  C1  UNK     1      19.531   2.455  18.882  1.00  0.00    -0.031 A 
HETATM    8  C4  UNK     1      19.440   1.732  20.051  1.00  0.00    -0.012 A 
HETATM    9  C6  UNK     1      19.763   3.920  18.831  1.00  0.00     0.050 C 
HETATM   10  C10 UNK     1      19.543   2.209  21.449  1.00  0.00     0.057 C 
HETATM   11  S1  UNK     1      19.168   0.067  19.758  1.00  0.00    -0.076 SA
BRANCH   6  12
HETATM   12  C12 UNK     1      19.419   2.086  16.362  1.00  0.00     0.252 C 
HETATM   13  O3  UNK     1      19.766   1.358  15.413  1.00  0.00    -0.268 OA
HETATM   14  N2  UNK     1      19.029   3.399  16.112  1.00  0.00    -0.366 N 
HETATM   15  H12 UNK     1      18.732   4.024  16.855  1.00  0.00     0.159 HD
HETATM   16  H13 UNK     1      19.031   3.773  15.169  1.00  0.00     0.159 HD
ENDBRANCH   6  12
ENDBRANCH   2   5
BRANCH   3  17
HETATM   17  C5  UNK     1      19.281  -2.896  16.219  1.00  0.00     0.108 A 
HETATM   18  C13 UNK     1      17.854  -2.910  15.826  1.00  0.00     0.304 A 
HETATM   19  O1  UNK     1      17.458  -3.912  14.945  1.00  0.00    -0.274 OA
HETATM   20  O4  UNK     1      17.056  -2.081  16.251  1.00  0.00    -0.259 OA
HETATM   21  C11 UNK     1      18.366  -4.867  14.448  1.00  0.00     0.089 A 
HETATM   22  C7  UNK     1      19.704  -4.836  14.832  1.00  0.00     0.000 A 
HETATM   23  C15 UNK     1      17.876  -5.832  13.571  1.00  0.00     0.039 A 
HETATM   24  C14 UNK     1      20.575  -5.800  14.319  1.00  0.00     0.033 A 
HETATM   25  C9  UNK     1      20.149  -3.801  15.751  1.00  0.00     0.037 A 
HETATM   26  C16 UNK     1      20.098  -6.776  13.437  1.00  0.00     0.011 A 
HETATM   27 Br1  UNK     1      21.281  -8.078  12.745  1.00  0.00    -0.051 Br
HETATM   28  C17 UNK     1      18.753  -6.790  13.064  1.00  0.00     0.022 A 
ENDBRANCH   3  17
TORSDOF 3
ENDMDL
