MODEL 1
REMARK VINA RESULT:      -7.8      0.000      0.000
REMARK  5 active torsions:
REMARK  status: ('A' for Active; 'I' for Inactive)
REMARK    1  A    between atoms: C1_4  and  O1_1 
REMARK    2  A    between atoms: C2_5  and  O1_1 
REMARK    3  A    between atoms: C4_7  and  O2_2 
REMARK    4  A    between atoms: C3_6  and  C8_11 
REMARK    5  A    between atoms: C11_14  and  C12_15 
ROOT
HETATM    1  N1  UNK     1      20.212   5.706  30.073  1.00  0.00    -0.191 NA
HETATM    2  C8  UNK     1      18.001   3.792  31.901  1.00  0.00     0.038 C 
HETATM    3  C11 UNK     1      18.540   5.041  31.949  1.00  0.00     0.055 C 
HETATM    4  C19 UNK     1      19.464   5.400  30.907  1.00  0.00     0.100 C 
ENDROOT
BRANCH   3   5
HETATM    5  C12 UNK     1      18.228   6.017  32.981  1.00  0.00    -0.015 A 
HETATM    6  C13 UNK     1      19.254   6.579  33.743  1.00  0.00     0.013 A 
HETATM    7  C15 UNK     1      18.954   7.515  34.733  1.00  0.00     0.001 A 
HETATM    8  C17 UNK     1      17.631   7.890  34.960  1.00  0.00     0.000 A 
HETATM    9  C16 UNK     1      16.605   7.329  34.199  1.00  0.00     0.001 A 
HETATM   10  C14 UNK     1      16.905   6.392  33.209  1.00  0.00     0.013 A 
ENDBRANCH   3   5
BRANCH   2  11
HETATM   11  C3  UNK     1      18.281   2.778  30.875  1.00  0.00     0.002 A 
HETATM   12  C2  UNK     1      18.909   1.587  31.211  1.00  0.00     0.112 A 
HETATM   13  C4  UNK     1      19.163   0.640  30.218  1.00  0.00     0.102 A 
HETATM   14  C9  UNK     1      18.786   0.894  28.899  1.00  0.00     0.040 A 
HETATM   15  C10 UNK     1      18.156   2.095  28.573  1.00  0.00     0.004 A 
HETATM   16  C7  UNK     1      17.902   3.041  29.566  1.00  0.00     0.014 A 
BRANCH  12  17
HETATM   17  O1  UNK     1      19.282   1.325  32.497  1.00  0.00    -0.343 OA
BRANCH  17  18
HETATM   18  C1  UNK     1      18.270   0.846  33.378  1.00  0.00     0.121 C 
HETATM   19  C5  UNK     1      18.504  -0.631  33.653  1.00  0.00     0.040 C 
HETATM   20  C6  UNK     1      18.288   1.671  34.657  1.00  0.00     0.040 C 
ENDBRANCH  17  18
ENDBRANCH  12  17
BRANCH  13  21
HETATM   21  O2  UNK     1      19.778  -0.537  30.522  1.00  0.00    -0.353 OA
HETATM   22  C18 UNK     1      20.509  -1.175  29.477  1.00  0.00     0.210 C 
ENDBRANCH  13  21
ENDBRANCH   2  11
TORSDOF 5
ENDMDL
MODEL 2
REMARK VINA RESULT:      -7.6     22.813     24.746
REMARK  5 active torsions:
REMARK  status: ('A' for Active; 'I' for Inactive)
REMARK    1  A    between atoms: C1_4  and  O1_1 
REMARK    2  A    between atoms: C2_5  and  O1_1 
REMARK    3  A    between atoms: C4_7  and  O2_2 
REMARK    4  A    between atoms: C3_6  and  C8_11 
REMARK    5  A    between atoms: C11_14  and  C12_15 
ROOT
HETATM    1  N1  UNK     1      12.846   5.394  10.203  1.00  0.00    -0.191 NA
HETATM    2  C8  UNK     1      12.547   8.062   8.039  1.00  0.00     0.038 C 
HETATM    3  C11 UNK     1      13.443   7.591   8.948  1.00  0.00     0.055 C 
HETATM    4  C19 UNK     1      13.104   6.374   9.638  1.00  0.00     0.100 C 
ENDROOT
BRANCH   3   5
HETATM    5  C12 UNK     1      14.709   8.241   9.249  1.00  0.00    -0.015 A 
HETATM    6  C13 UNK     1      14.920   9.566   8.867  1.00  0.00     0.013 A 
HETATM    7  C15 UNK     1      16.134  10.189   9.155  1.00  0.00     0.001 A 
HETATM    8  C17 UNK     1      17.137   9.488   9.825  1.00  0.00     0.000 A 
HETATM    9  C16 UNK     1      16.925   8.163  10.207  1.00  0.00     0.001 A 
HETATM   10  C14 UNK     1      15.711   7.540   9.918  1.00  0.00     0.013 A 
ENDBRANCH   3   5
BRANCH   2  11
HETATM   11  C3  UNK     1      11.262   7.434   7.699  1.00  0.00     0.002 A 
HETATM   12  C2  UNK     1      10.188   7.502   8.575  1.00  0.00     0.112 A 
HETATM   13  C4  UNK     1       8.979   6.898   8.229  1.00  0.00     0.102 A 
HETATM   14  C9  UNK     1       8.856   6.233   7.009  1.00  0.00     0.040 A 
HETATM   15  C10 UNK     1       9.942   6.171   6.137  1.00  0.00     0.004 A 
HETATM   16  C7  UNK     1      11.151   6.775   6.483  1.00  0.00     0.014 A 
BRANCH  12  17
HETATM   17  O1  UNK     1      10.294   8.151   9.771  1.00  0.00    -0.343 OA
BRANCH  17  18
HETATM   18  C1  UNK     1      10.044   9.553   9.770  1.00  0.00     0.121 C 
HETATM   19  C5  UNK     1       8.756   9.833  10.530  1.00  0.00     0.040 C 
HETATM   20  C6  UNK     1      11.233  10.275  10.386  1.00  0.00     0.040 C 
ENDBRANCH  17  18
ENDBRANCH  12  17
BRANCH  13  21
HETATM   21  O2  UNK     1       7.910   6.951   9.073  1.00  0.00    -0.353 OA
HETATM   22  C18 UNK     1       7.636   5.784   9.844  1.00  0.00     0.210 C 
ENDBRANCH  13  21
ENDBRANCH   2  11
TORSDOF 5
ENDMDL
MODEL 3
REMARK VINA RESULT:      -7.4     23.623     25.126
REMARK  5 active torsions:
REMARK  status: ('A' for Active; 'I' for Inactive)
REMARK    1  A    between atoms: C1_4  and  O1_1 
REMARK    2  A    between atoms: C2_5  and  O1_1 
REMARK    3  A    between atoms: C4_7  and  O2_2 
REMARK    4  A    between atoms: C3_6  and  C8_11 
REMARK    5  A    between atoms: C11_14  and  C12_15 
ROOT
HETATM    1  N1  UNK     1       8.739   4.002   9.941  1.00  0.00    -0.191 NA
HETATM    2  C8  UNK     1       8.239   7.241   8.867  1.00  0.00     0.038 C 
HETATM    3  C11 UNK     1       7.733   6.396   9.807  1.00  0.00     0.055 C 
HETATM    4  C19 UNK     1       8.296   5.073   9.874  1.00  0.00     0.100 C 
ENDROOT
BRANCH   3   5
HETATM    5  C12 UNK     1       6.675   6.759  10.735  1.00  0.00    -0.015 A 
HETATM    6  C13 UNK     1       6.385   5.932  11.821  1.00  0.00     0.013 A 
HETATM    7  C15 UNK     1       5.369   6.280  12.710  1.00  0.00     0.001 A 
HETATM    8  C17 UNK     1       4.644   7.455  12.517  1.00  0.00     0.000 A 
HETATM    9  C16 UNK     1       4.934   8.283  11.432  1.00  0.00     0.001 A 
HETATM   10  C14 UNK     1       5.950   7.934  10.541  1.00  0.00     0.013 A 
ENDBRANCH   3   5
BRANCH   2  11
HETATM   11  C3  UNK     1       9.312   6.919   7.915  1.00  0.00     0.002 A 
HETATM   12  C2  UNK     1      10.641   7.150   8.243  1.00  0.00     0.112 A 
HETATM   13  C4  UNK     1      11.640   6.836   7.321  1.00  0.00     0.102 A 
HETATM   14  C9  UNK     1      11.301   6.294   6.081  1.00  0.00     0.040 A 
HETATM   15  C10 UNK     1       9.962   6.067   5.763  1.00  0.00     0.004 A 
HETATM   16  C7  UNK     1       8.963   6.381   6.685  1.00  0.00     0.014 A 
BRANCH  12  17
HETATM   17  O1  UNK     1      10.987   7.679   9.452  1.00  0.00    -0.343 OA
BRANCH  17  18
HETATM   18  C1  UNK     1      11.295   9.069   9.485  1.00  0.00     0.121 C 
HETATM   19  C5  UNK     1      10.155   9.819  10.157  1.00  0.00     0.040 C 
HETATM   20  C6  UNK     1      12.615   9.274  10.213  1.00  0.00     0.040 C 
ENDBRANCH  17  18
ENDBRANCH  12  17
BRANCH  13  21
HETATM   21  O2  UNK     1      12.952   7.054   7.619  1.00  0.00    -0.353 OA
HETATM   22  C18 UNK     1      13.714   5.927   8.046  1.00  0.00     0.210 C 
ENDBRANCH  13  21
ENDBRANCH   2  11
TORSDOF 5
ENDMDL
MODEL 4
REMARK VINA RESULT:      -7.4      2.696      7.107
REMARK  5 active torsions:
REMARK  status: ('A' for Active; 'I' for Inactive)
REMARK    1  A    between atoms: C1_4  and  O1_1 
REMARK    2  A    between atoms: C2_5  and  O1_1 
REMARK    3  A    between atoms: C4_7  and  O2_2 
REMARK    4  A    between atoms: C3_6  and  C8_11 
REMARK    5  A    between atoms: C11_14  and  C12_15 
ROOT
HETATM    1  N1  UNK     1      18.274   3.120  34.321  1.00  0.00    -0.191 NA
HETATM    2  C8  UNK     1      18.672   5.219  31.614  1.00  0.00     0.038 C 
HETATM    3  C11 UNK     1      18.541   3.886  31.851  1.00  0.00     0.055 C 
HETATM    4  C19 UNK     1      18.394   3.471  33.221  1.00  0.00     0.100 C 
ENDROOT
BRANCH   3   5
HETATM    5  C12 UNK     1      18.535   2.875  30.805  1.00  0.00    -0.015 A 
HETATM    6  C13 UNK     1      19.109   1.625  31.039  1.00  0.00     0.013 A 
HETATM    7  C15 UNK     1      19.103   0.657  30.035  1.00  0.00     0.001 A 
HETATM    8  C17 UNK     1      18.523   0.937  28.799  1.00  0.00     0.000 A 
HETATM    9  C16 UNK     1      17.950   2.187  28.564  1.00  0.00     0.001 A 
HETATM   10  C14 UNK     1      17.955   3.156  29.568  1.00  0.00     0.013 A 
ENDBRANCH   3   5
BRANCH   2  11
HETATM   11  C3  UNK     1      18.676   6.274  32.637  1.00  0.00     0.002 A 
HETATM   12  C2  UNK     1      17.488   6.715  33.203  1.00  0.00     0.112 A 
HETATM   13  C4  UNK     1      17.519   7.718  34.172  1.00  0.00     0.102 A 
HETATM   14  C9  UNK     1      18.738   8.269  34.568  1.00  0.00     0.040 A 
HETATM   15  C10 UNK     1      19.926   7.819  33.992  1.00  0.00     0.004 A 
HETATM   16  C7  UNK     1      19.895   6.816  33.023  1.00  0.00     0.014 A 
BRANCH  12  17
HETATM   17  O1  UNK     1      16.289   6.184  32.827  1.00  0.00    -0.343 OA
BRANCH  17  18
HETATM   18  C1  UNK     1      15.599   6.835  31.764  1.00  0.00     0.121 C 
HETATM   19  C5  UNK     1      14.201   7.212  32.230  1.00  0.00     0.040 C 
HETATM   20  C6  UNK     1      16.397   8.053  31.321  1.00  0.00     0.040 C 
ENDBRANCH  17  18
ENDBRANCH  12  17
BRANCH  13  21
HETATM   21  O2  UNK     1      16.366   8.168  34.743  1.00  0.00    -0.353 OA
HETATM   22  C18 UNK     1      16.116   9.570  34.677  1.00  0.00     0.210 C 
ENDBRANCH  13  21
ENDBRANCH   2  11
TORSDOF 5
ENDMDL
MODEL 5
REMARK VINA RESULT:      -7.0     15.443     17.360
REMARK  5 active torsions:
REMARK  status: ('A' for Active; 'I' for Inactive)
REMARK    1  A    between atoms: C1_4  and  O1_1 
REMARK    2  A    between atoms: C2_5  and  O1_1 
REMARK    3  A    between atoms: C4_7  and  O2_2 
REMARK    4  A    between atoms: C3_6  and  C8_11 
REMARK    5  A    between atoms: C11_14  and  C12_15 
ROOT
HETATM    1  N1  UNK     1      28.614  -6.636  35.270  1.00  0.00    -0.191 NA
HETATM    2  C8  UNK     1      30.153  -6.339  38.341  1.00  0.00     0.038 C 
HETATM    3  C11 UNK     1      29.159  -7.075  37.774  1.00  0.00     0.055 C 
HETATM    4  C19 UNK     1      28.864  -6.825  36.387  1.00  0.00     0.100 C 
ENDROOT
BRANCH   3   5
HETATM    5  C12 UNK     1      28.397  -8.090  38.484  1.00  0.00    -0.015 A 
HETATM    6  C13 UNK     1      27.031  -7.909  38.705  1.00  0.00     0.013 A 
HETATM    7  C15 UNK     1      26.301  -8.883  39.387  1.00  0.00     0.001 A 
HETATM    8  C17 UNK     1      26.935 -10.037  39.846  1.00  0.00     0.000 A 
HETATM    9  C16 UNK     1      28.301 -10.217  39.625  1.00  0.00     0.001 A 
HETATM   10  C14 UNK     1      29.032  -9.244  38.943  1.00  0.00     0.013 A 
ENDBRANCH   3   5
BRANCH   2  11
HETATM   11  C3  UNK     1      30.953  -5.311  37.661  1.00  0.00     0.002 A 
HETATM   12  C2  UNK     1      32.203  -5.617  37.140  1.00  0.00     0.112 A 
HETATM   13  C4  UNK     1      32.942  -4.623  36.499  1.00  0.00     0.102 A 
HETATM   14  C9  UNK     1      32.424  -3.332  36.384  1.00  0.00     0.040 A 
HETATM   15  C10 UNK     1      31.167  -3.037  36.911  1.00  0.00     0.004 A 
HETATM   16  C7  UNK     1      30.428  -4.031  37.552  1.00  0.00     0.014 A 
BRANCH  12  17
HETATM   17  O1  UNK     1      32.721  -6.875  37.244  1.00  0.00    -0.343 OA
BRANCH  17  18
HETATM   18  C1  UNK     1      32.427  -7.784  36.188  1.00  0.00     0.121 C 
HETATM   19  C5  UNK     1      33.661  -7.952  35.314  1.00  0.00     0.040 C 
HETATM   20  C6  UNK     1      31.968  -9.108  36.780  1.00  0.00     0.040 C 
ENDBRANCH  17  18
ENDBRANCH  12  17
BRANCH  13  21
HETATM   21  O2  UNK     1      34.171  -4.898  35.979  1.00  0.00    -0.353 OA
HETATM   22  C18 UNK     1      34.479  -4.330  34.708  1.00  0.00     0.210 C 
ENDBRANCH  13  21
ENDBRANCH   2  11
TORSDOF 5
ENDMDL
MODEL 6
REMARK VINA RESULT:      -7.0     15.458     17.352
REMARK  5 active torsions:
REMARK  status: ('A' for Active; 'I' for Inactive)
REMARK    1  A    between atoms: C1_4  and  O1_1 
REMARK    2  A    between atoms: C2_5  and  O1_1 
REMARK    3  A    between atoms: C4_7  and  O2_2 
REMARK    4  A    between atoms: C3_6  and  C8_11 
REMARK    5  A    between atoms: C11_14  and  C12_15 
ROOT
HETATM    1  N1  UNK     1      28.602  -6.632  35.280  1.00  0.00    -0.191 NA
HETATM    2  C8  UNK     1      30.175  -6.359  38.336  1.00  0.00     0.038 C 
HETATM    3  C11 UNK     1      29.172  -7.087  37.775  1.00  0.00     0.055 C 
HETATM    4  C19 UNK     1      28.863  -6.828  36.394  1.00  0.00     0.100 C 
ENDROOT
BRANCH   3   5
HETATM    5  C12 UNK     1      28.412  -8.101  38.488  1.00  0.00    -0.015 A 
HETATM    6  C13 UNK     1      29.047  -9.256  38.946  1.00  0.00     0.013 A 
HETATM    7  C15 UNK     1      28.318 -10.229  39.629  1.00  0.00     0.001 A 
HETATM    8  C17 UNK     1      26.954 -10.047  39.856  1.00  0.00     0.000 A 
HETATM    9  C16 UNK     1      26.318  -8.893  39.399  1.00  0.00     0.001 A 
HETATM   10  C14 UNK     1      27.048  -7.919  38.715  1.00  0.00     0.013 A 
ENDBRANCH   3   5
BRANCH   2  11
HETATM   11  C3  UNK     1      30.973  -5.331  37.653  1.00  0.00     0.002 A 
HETATM   12  C2  UNK     1      32.219  -5.638  37.126  1.00  0.00     0.112 A 
HETATM   13  C4  UNK     1      32.957  -4.644  36.482  1.00  0.00     0.102 A 
HETATM   14  C9  UNK     1      32.440  -3.353  36.370  1.00  0.00     0.040 A 
HETATM   15  C10 UNK     1      31.186  -3.056  36.904  1.00  0.00     0.004 A 
HETATM   16  C7  UNK     1      30.449  -4.050  37.548  1.00  0.00     0.014 A 
BRANCH  12  17
HETATM   17  O1  UNK     1      32.737  -6.896  37.227  1.00  0.00    -0.343 OA
BRANCH  17  18
HETATM   18  C1  UNK     1      32.442  -7.803  36.168  1.00  0.00     0.121 C 
HETATM   19  C5  UNK     1      33.678  -7.975  35.298  1.00  0.00     0.040 C 
HETATM   20  C6  UNK     1      31.974  -9.125  36.757  1.00  0.00     0.040 C 
ENDBRANCH  17  18
ENDBRANCH  12  17
BRANCH  13  21
HETATM   21  O2  UNK     1      34.183  -4.920  35.956  1.00  0.00    -0.353 OA
HETATM   22  C18 UNK     1      34.498  -4.325  34.699  1.00  0.00     0.210 C 
ENDBRANCH  13  21
ENDBRANCH   2  11
TORSDOF 5
ENDMDL
MODEL 7
REMARK VINA RESULT:      -7.0     22.704     24.145
REMARK  5 active torsions:
REMARK  status: ('A' for Active; 'I' for Inactive)
REMARK    1  A    between atoms: C1_4  and  O1_1 
REMARK    2  A    between atoms: C2_5  and  O1_1 
REMARK    3  A    between atoms: C4_7  and  O2_2 
REMARK    4  A    between atoms: C3_6  and  C8_11 
REMARK    5  A    between atoms: C11_14  and  C12_15 
ROOT
HETATM    1  N1  UNK     1      14.891   6.276  10.622  1.00  0.00    -0.191 NA
HETATM    2  C8  UNK     1      13.620   8.804   8.651  1.00  0.00     0.038 C 
HETATM    3  C11 UNK     1      14.645   8.621   9.527  1.00  0.00     0.055 C 
HETATM    4  C19 UNK     1      14.773   7.320  10.128  1.00  0.00     0.100 C 
ENDROOT
BRANCH   3   5
HETATM    5  C12 UNK     1      15.605   9.656   9.877  1.00  0.00    -0.015 A 
HETATM    6  C13 UNK     1      16.926   9.560   9.437  1.00  0.00     0.013 A 
HETATM    7  C15 UNK     1      17.846  10.552   9.774  1.00  0.00     0.001 A 
HETATM    8  C17 UNK     1      17.447  11.642  10.548  1.00  0.00     0.000 A 
HETATM    9  C16 UNK     1      16.126  11.738  10.987  1.00  0.00     0.001 A 
HETATM   10  C14 UNK     1      15.205  10.745  10.652  1.00  0.00     0.013 A 
ENDBRANCH   3   5
BRANCH   2  11
HETATM   11  C3  UNK     1      12.633   7.787   8.263  1.00  0.00     0.002 A 
HETATM   12  C2  UNK     1      11.462   7.625   8.989  1.00  0.00     0.112 A 
HETATM   13  C4  UNK     1      10.541   6.652   8.601  1.00  0.00     0.102 A 
HETATM   14  C9  UNK     1      10.800   5.850   7.490  1.00  0.00     0.040 A 
HETATM   15  C10 UNK     1      11.981   6.020   6.768  1.00  0.00     0.004 A 
HETATM   16  C7  UNK     1      12.902   6.994   7.156  1.00  0.00     0.014 A 
BRANCH  12  17
HETATM   17  O1  UNK     1      11.194   8.403  10.078  1.00  0.00    -0.343 OA
BRANCH  17  18
HETATM   18  C1  UNK     1      10.590   9.670   9.834  1.00  0.00     0.121 C 
HETATM   19  C5  UNK     1       9.145   9.635  10.308  1.00  0.00     0.040 C 
HETATM   20  C6  UNK     1      11.392  10.753  10.540  1.00  0.00     0.040 C 
ENDBRANCH  17  18
ENDBRANCH  12  17
BRANCH  13  21
HETATM   21  O2  UNK     1       9.383   6.474   9.298  1.00  0.00    -0.353 OA
HETATM   22  C18 UNK     1       8.268   5.953   8.578  1.00  0.00     0.210 C 
ENDBRANCH  13  21
ENDBRANCH   2  11
TORSDOF 5
ENDMDL
MODEL 8
REMARK VINA RESULT:      -6.8     22.220     24.631
REMARK  5 active torsions:
REMARK  status: ('A' for Active; 'I' for Inactive)
REMARK    1  A    between atoms: C1_4  and  O1_1 
REMARK    2  A    between atoms: C2_5  and  O1_1 
REMARK    3  A    between atoms: C4_7  and  O2_2 
REMARK    4  A    between atoms: C3_6  and  C8_11 
REMARK    5  A    between atoms: C11_14  and  C12_15 
ROOT
HETATM    1  N1  UNK     1      11.989   5.056  10.589  1.00  0.00    -0.191 NA
HETATM    2  C8  UNK     1      13.116   7.098   8.049  1.00  0.00     0.038 C 
HETATM    3  C11 UNK     1      11.972   6.445   8.392  1.00  0.00     0.055 C 
HETATM    4  C19 UNK     1      11.991   5.679   9.610  1.00  0.00     0.100 C 
ENDROOT
BRANCH   3   5
HETATM    5  C12 UNK     1      10.749   6.488   7.605  1.00  0.00    -0.015 A 
HETATM    6  C13 UNK     1       9.509   6.513   8.244  1.00  0.00     0.013 A 
HETATM    7  C15 UNK     1       8.337   6.553   7.490  1.00  0.00     0.001 A 
HETATM    8  C17 UNK     1       8.404   6.570   6.097  1.00  0.00     0.000 A 
HETATM    9  C16 UNK     1       9.644   6.545   5.458  1.00  0.00     0.001 A 
HETATM   10  C14 UNK     1      10.816   6.504   6.213  1.00  0.00     0.013 A 
ENDBRANCH   3   5
BRANCH   2  11
HETATM   11  C3  UNK     1      14.369   7.089   8.816  1.00  0.00     0.002 A 
HETATM   12  C2  UNK     1      14.759   8.202   9.548  1.00  0.00     0.112 A 
HETATM   13  C4  UNK     1      15.953   8.168  10.267  1.00  0.00     0.102 A 
HETATM   14  C9  UNK     1      16.747   7.021  10.248  1.00  0.00     0.040 A 
HETATM   15  C10 UNK     1      16.346   5.908   9.509  1.00  0.00     0.004 A 
HETATM   16  C7  UNK     1      15.151   5.942   8.790  1.00  0.00     0.014 A 
BRANCH  12  17
HETATM   17  O1  UNK     1      13.992   9.331   9.576  1.00  0.00    -0.343 OA
BRANCH  17  18
HETATM   18  C1  UNK     1      13.034   9.435  10.625  1.00  0.00     0.121 C 
HETATM   19  C5  UNK     1      13.418  10.587  11.541  1.00  0.00     0.040 C 
HETATM   20  C6  UNK     1      11.650   9.626  10.023  1.00  0.00     0.040 C 
ENDBRANCH  17  18
ENDBRANCH  12  17
BRANCH  13  21
HETATM   21  O2  UNK     1      16.358   9.248  10.993  1.00  0.00    -0.353 OA
HETATM   22  C18 UNK     1      17.091  10.256  10.301  1.00  0.00     0.210 C 
ENDBRANCH  13  21
ENDBRANCH   2  11
TORSDOF 5
ENDMDL
MODEL 9
REMARK VINA RESULT:      -6.8     14.980     17.103
REMARK  5 active torsions:
REMARK  status: ('A' for Active; 'I' for Inactive)
REMARK    1  A    between atoms: C1_4  and  O1_1 
REMARK    2  A    between atoms: C2_5  and  O1_1 
REMARK    3  A    between atoms: C4_7  and  O2_2 
REMARK    4  A    between atoms: C3_6  and  C8_11 
REMARK    5  A    between atoms: C11_14  and  C12_15 
ROOT
HETATM    1  N1  UNK     1      30.000  -4.483  39.245  1.00  0.00    -0.191 NA
HETATM    2  C8  UNK     1      30.584  -7.443  37.574  1.00  0.00     0.038 C 
HETATM    3  C11 UNK     1      29.600  -6.884  38.331  1.00  0.00     0.055 C 
HETATM    4  C19 UNK     1      29.831  -5.555  38.832  1.00  0.00     0.100 C 
ENDROOT
BRANCH   3   5
HETATM    5  C12 UNK     1      28.346  -7.549  38.647  1.00  0.00    -0.015 A 
HETATM    6  C13 UNK     1      27.135  -6.886  38.446  1.00  0.00     0.013 A 
HETATM    7  C15 UNK     1      25.933  -7.523  38.750  1.00  0.00     0.001 A 
HETATM    8  C17 UNK     1      25.940  -8.824  39.253  1.00  0.00     0.000 A 
HETATM    9  C16 UNK     1      27.151  -9.487  39.454  1.00  0.00     0.001 A 
HETATM   10  C14 UNK     1      28.354  -8.849  39.151  1.00  0.00     0.013 A 
ENDBRANCH   3   5
BRANCH   2  11
HETATM   11  C3  UNK     1      31.861  -6.807  37.224  1.00  0.00     0.002 A 
HETATM   12  C2  UNK     1      31.923  -5.849  36.222  1.00  0.00     0.112 A 
HETATM   13  C4  UNK     1      33.148  -5.259  35.909  1.00  0.00     0.102 A 
HETATM   14  C9  UNK     1      34.300  -5.633  36.602  1.00  0.00     0.040 A 
HETATM   15  C10 UNK     1      34.226  -6.597  37.607  1.00  0.00     0.004 A 
HETATM   16  C7  UNK     1      33.001  -7.186  37.920  1.00  0.00     0.014 A 
BRANCH  12  17
HETATM   17  O1  UNK     1      30.805  -5.473  35.537  1.00  0.00    -0.343 OA
BRANCH  17  18
HETATM   18  C1  UNK     1      30.385  -6.320  34.471  1.00  0.00     0.121 C 
HETATM   19  C5  UNK     1      28.889  -6.567  34.588  1.00  0.00     0.040 C 
HETATM   20  C6  UNK     1      30.751  -5.673  33.143  1.00  0.00     0.040 C 
ENDBRANCH  17  18
ENDBRANCH  12  17
BRANCH  13  21
HETATM   21  O2  UNK     1      33.235  -4.317  34.929  1.00  0.00    -0.353 OA
HETATM   22  C18 UNK     1      34.543  -3.898  34.547  1.00  0.00     0.210 C 
ENDBRANCH  13  21
ENDBRANCH   2  11
TORSDOF 5
ENDMDL
MODEL 10
REMARK VINA RESULT:      -6.7     22.651     24.176
REMARK  5 active torsions:
REMARK  status: ('A' for Active; 'I' for Inactive)
REMARK    1  A    between atoms: C1_4  and  O1_1 
REMARK    2  A    between atoms: C2_5  and  O1_1 
REMARK    3  A    between atoms: C4_7  and  O2_2 
REMARK    4  A    between atoms: C3_6  and  C8_11 
REMARK    5  A    between atoms: C11_14  and  C12_15 
ROOT
HETATM    1  N1  UNK     1      12.870   6.620   6.507  1.00  0.00    -0.191 NA
HETATM    2  C8  UNK     1      12.595   5.976   9.884  1.00  0.00     0.038 C 
HETATM    3  C11 UNK     1      11.789   5.993   8.787  1.00  0.00     0.055 C 
HETATM    4  C19 UNK     1      12.396   6.341   7.530  1.00  0.00     0.100 C 
ENDROOT
BRANCH   3   5
HETATM    5  C12 UNK     1      10.370   5.677   8.821  1.00  0.00    -0.015 A 
HETATM    6  C13 UNK     1       9.523   6.164   7.825  1.00  0.00     0.013 A 
HETATM    7  C15 UNK     1       8.162   5.860   7.858  1.00  0.00     0.001 A 
HETATM    8  C17 UNK     1       7.648   5.068   8.885  1.00  0.00     0.000 A 
HETATM    9  C16 UNK     1       8.495   4.581   9.881  1.00  0.00     0.001 A 
HETATM   10  C14 UNK     1       9.857   4.886   9.848  1.00  0.00     0.013 A 
ENDBRANCH   3   5
BRANCH   2  11
HETATM   11  C3  UNK     1      14.032   6.281   9.895  1.00  0.00     0.002 A 
HETATM   12  C2  UNK     1      14.491   7.508  10.355  1.00  0.00     0.112 A 
HETATM   13  C4  UNK     1      15.861   7.773  10.355  1.00  0.00     0.102 A 
HETATM   14  C9  UNK     1      16.759   6.809   9.896  1.00  0.00     0.040 A 
HETATM   15  C10 UNK     1      16.286   5.580   9.435  1.00  0.00     0.004 A 
HETATM   16  C7  UNK     1      14.916   5.315   9.435  1.00  0.00     0.014 A 
BRANCH  12  17
HETATM   17  O1  UNK     1      13.625   8.460  10.808  1.00  0.00    -0.343 OA
BRANCH  17  18
HETATM   18  C1  UNK     1      13.122   9.385   9.848  1.00  0.00     0.121 C 
HETATM   19  C5  UNK     1      11.602   9.368   9.886  1.00  0.00     0.040 C 
HETATM   20  C6  UNK     1      13.682  10.769  10.145  1.00  0.00     0.040 C 
ENDBRANCH  17  18
ENDBRANCH  12  17
BRANCH  13  21
HETATM   21  O2  UNK     1      16.337   8.969  10.802  1.00  0.00    -0.353 OA
HETATM   22  C18 UNK     1      17.145   9.722   9.900  1.00  0.00     0.210 C 
ENDBRANCH  13  21
ENDBRANCH   2  11
TORSDOF 5
ENDMDL
