MODEL 1
REMARK VINA RESULT:      -8.6      0.000      0.000
REMARK  7 active torsions:
REMARK  status: ('A' for Active; 'I' for Inactive)
REMARK    1  A    between atoms: C10_15  and  O1_1 
REMARK    2  A    between atoms: C7_12  and  O1_1 
REMARK    3  A    between atoms: C15_20  and  O3_3 
REMARK    4  A    between atoms: C1_6  and  C2_7 
REMARK    5  A    between atoms: C2_7  and  C5_10 
REMARK    6  A    between atoms: C10_15  and  C12_17 
REMARK    7  A    between atoms: C10_15  and  C15_20 
ROOT
HETATM    1  O2  UNK     1      18.017   2.487  33.468  1.00  0.00    -0.275 OA
HETATM    2  O4  UNK     1      17.945   0.443  34.492  1.00  0.00    -0.260 OA
HETATM    3  C1  UNK     1      19.006   1.185  31.159  1.00  0.00    -0.039 A 
HETATM    4  C3  UNK     1      18.803   2.640  31.160  1.00  0.00     0.004 A 
HETATM    5  C4  UNK     1      18.314   3.246  32.319  1.00  0.00     0.092 A 
HETATM    6  C6  UNK     1      19.073   3.465  30.059  1.00  0.00     0.017 A 
HETATM    7  C7  UNK     1      18.365   5.423  31.300  1.00  0.00     0.073 A 
HETATM    8  C8  UNK     1      18.091   4.621  32.404  1.00  0.00     0.075 A 
HETATM    9  C9  UNK     1      18.717   0.489  32.267  1.00  0.00     0.090 A 
HETATM   10  C11 UNK     1      18.854   4.845  30.129  1.00  0.00     0.038 A 
HETATM   11  C14 UNK     1      18.200   1.113  33.497  1.00  0.00     0.288 A 
ENDROOT
BRANCH   7  12
HETATM   12  O1  UNK     1      18.156   6.766  31.362  1.00  0.00    -0.331 OA
BRANCH  12  13
HETATM   13  C10 UNK     1      17.411   7.256  32.475  1.00  0.00     0.261 C 
BRANCH  13  14
HETATM   14  C12 UNK     1      18.260   8.255  33.222  1.00  0.00    -0.019 A 
HETATM   15  C16 UNK     1      19.484   7.857  33.738  1.00  0.00     0.010 A 
HETATM   16  C18 UNK     1      20.269   8.780  34.428  1.00  0.00     0.001 A 
HETATM   17  C20 UNK     1      19.821  10.090  34.595  1.00  0.00     0.000 A 
HETATM   18  C19 UNK     1      18.588  10.477  34.071  1.00  0.00     0.001 A 
HETATM   19  C17 UNK     1      17.802   9.554  33.381  1.00  0.00     0.010 A 
ENDBRANCH  13  14
BRANCH  13  20
HETATM   20  C15 UNK     1      16.108   7.853  31.981  1.00  0.00     0.292 C 
HETATM   21  O5  UNK     1      15.988   8.483  30.938  1.00  0.00    -0.262 OA
BRANCH  20  22
HETATM   22  O3  UNK     1      15.101   7.560  32.856  1.00  0.00    -0.324 OA
HETATM   23  C21 UNK     1      13.847   7.214  32.259  1.00  0.00     0.213 C 
ENDBRANCH  20  22
ENDBRANCH  13  20
ENDBRANCH  12  13
ENDBRANCH   7  12
BRANCH   3  24
HETATM   24  C2  UNK     1      19.532   0.503  29.929  1.00  0.00     0.039 C 
BRANCH  24  25
HETATM   25  C5  UNK     1      20.687  -0.434  30.259  1.00  0.00     0.000 C 
HETATM   26  C13 UNK     1      20.362  -1.864  29.858  1.00  0.00     0.005 C 
ENDBRANCH  24  25
ENDBRANCH   3  24
TORSDOF 7
ENDMDL
MODEL 2
REMARK VINA RESULT:      -8.3      7.589     11.254
REMARK  7 active torsions:
REMARK  status: ('A' for Active; 'I' for Inactive)
REMARK    1  A    between atoms: C10_15  and  O1_1 
REMARK    2  A    between atoms: C7_12  and  O1_1 
REMARK    3  A    between atoms: C15_20  and  O3_3 
REMARK    4  A    between atoms: C1_6  and  C2_7 
REMARK    5  A    between atoms: C2_7  and  C5_10 
REMARK    6  A    between atoms: C10_15  and  C12_17 
REMARK    7  A    between atoms: C10_15  and  C15_20 
ROOT
HETATM    1  O2  UNK     1      22.867  -6.456  38.467  1.00  0.00    -0.275 OA
HETATM    2  O4  UNK     1      24.432  -8.008  39.075  1.00  0.00    -0.260 OA
HETATM    3  C1  UNK     1      21.606  -8.473  36.936  1.00  0.00    -0.039 A 
HETATM    4  C3  UNK     1      21.048  -7.115  36.976  1.00  0.00     0.004 A 
HETATM    5  C4  UNK     1      21.700  -6.147  37.742  1.00  0.00     0.092 A 
HETATM    6  C6  UNK     1      19.892  -6.727  36.284  1.00  0.00     0.017 A 
HETATM    7  C7  UNK     1      20.086  -4.469  37.141  1.00  0.00     0.073 A 
HETATM    8  C8  UNK     1      21.236  -4.833  37.835  1.00  0.00     0.075 A 
HETATM    9  C9  UNK     1      22.719  -8.739  37.634  1.00  0.00     0.090 A 
HETATM   10  C11 UNK     1      19.415  -5.415  36.367  1.00  0.00     0.038 A 
HETATM   11  C14 UNK     1      23.416  -7.728  38.448  1.00  0.00     0.288 A 
ENDROOT
BRANCH   7  12
HETATM   12  O1  UNK     1      19.618  -3.194  37.217  1.00  0.00    -0.331 OA
BRANCH  12  13
HETATM   13  C10 UNK     1      19.350  -2.525  35.985  1.00  0.00     0.261 C 
BRANCH  13  14
HETATM   14  C12 UNK     1      18.700  -1.197  36.287  1.00  0.00    -0.019 A 
HETATM   15  C16 UNK     1      18.232  -0.945  37.569  1.00  0.00     0.010 A 
HETATM   16  C18 UNK     1      17.632   0.283  37.848  1.00  0.00     0.001 A 
HETATM   17  C20 UNK     1      17.506   1.242  36.844  1.00  0.00     0.000 A 
HETATM   18  C19 UNK     1      17.981   0.975  35.560  1.00  0.00     0.001 A 
HETATM   19  C17 UNK     1      18.582  -0.253  35.280  1.00  0.00     0.010 A 
ENDBRANCH  13  14
BRANCH  13  20
HETATM   20  C15 UNK     1      20.641  -2.378  35.205  1.00  0.00     0.292 C 
HETATM   21  O5  UNK     1      21.617  -1.748  35.595  1.00  0.00    -0.262 OA
BRANCH  20  22
HETATM   22  O3  UNK     1      20.557  -3.069  34.030  1.00  0.00    -0.324 OA
HETATM   23  C21 UNK     1      20.581  -2.273  32.842  1.00  0.00     0.213 C 
ENDBRANCH  20  22
ENDBRANCH  13  20
ENDBRANCH  12  13
ENDBRANCH   7  12
BRANCH   3  24
HETATM   24  C2  UNK     1      20.930  -9.537  36.120  1.00  0.00     0.039 C 
BRANCH  24  25
HETATM   25  C5  UNK     1      20.725 -10.815  36.925  1.00  0.00     0.000 C 
HETATM   26  C13 UNK     1      19.549 -10.677  37.879  1.00  0.00     0.005 C 
ENDBRANCH  24  25
ENDBRANCH   3  24
TORSDOF 7
ENDMDL
MODEL 3
REMARK VINA RESULT:      -8.3      6.477     12.189
REMARK  7 active torsions:
REMARK  status: ('A' for Active; 'I' for Inactive)
REMARK    1  A    between atoms: C10_15  and  O1_1 
REMARK    2  A    between atoms: C7_12  and  O1_1 
REMARK    3  A    between atoms: C15_20  and  O3_3 
REMARK    4  A    between atoms: C1_6  and  C2_7 
REMARK    5  A    between atoms: C2_7  and  C5_10 
REMARK    6  A    between atoms: C10_15  and  C12_17 
REMARK    7  A    between atoms: C10_15  and  C15_20 
ROOT
HETATM    1  O2  UNK     1      19.480  -1.312  33.710  1.00  0.00    -0.275 OA
HETATM    2  O4  UNK     1      18.673   0.032  32.046  1.00  0.00    -0.260 OA
HETATM    3  C1  UNK     1      17.557  -0.160  35.436  1.00  0.00    -0.039 A 
HETATM    4  C3  UNK     1      18.479  -1.190  35.935  1.00  0.00     0.004 A 
HETATM    5  C4  UNK     1      19.415  -1.734  35.053  1.00  0.00     0.092 A 
HETATM    6  C6  UNK     1      18.477  -1.663  37.255  1.00  0.00     0.017 A 
HETATM    7  C7  UNK     1      20.308  -3.173  36.760  1.00  0.00     0.073 A 
HETATM    8  C8  UNK     1      20.326  -2.716  35.445  1.00  0.00     0.075 A 
HETATM    9  C9  UNK     1      17.644   0.222  34.155  1.00  0.00     0.090 A 
HETATM   10  C11 UNK     1      19.384  -2.648  37.662  1.00  0.00     0.038 A 
HETATM   11  C14 UNK     1      18.624  -0.343  33.212  1.00  0.00     0.288 A 
ENDROOT
BRANCH   7  12
HETATM   12  O1  UNK     1      21.187  -4.129  37.162  1.00  0.00    -0.331 OA
BRANCH  12  13
HETATM   13  C10 UNK     1      20.653  -5.247  37.871  1.00  0.00     0.261 C 
BRANCH  13  14
HETATM   14  C12 UNK     1      19.792  -6.050  36.927  1.00  0.00    -0.019 A 
HETATM   15  C16 UNK     1      20.370  -6.635  35.810  1.00  0.00     0.010 A 
HETATM   16  C18 UNK     1      19.574  -7.378  34.938  1.00  0.00     0.001 A 
HETATM   17  C20 UNK     1      18.210  -7.525  35.192  1.00  0.00     0.000 A 
HETATM   18  C19 UNK     1      17.643  -6.930  36.318  1.00  0.00     0.001 A 
HETATM   19  C17 UNK     1      18.438  -6.187  37.191  1.00  0.00     0.010 A 
ENDBRANCH  13  14
BRANCH  13  20
HETATM   20  C15 UNK     1      21.791  -6.060  38.455  1.00  0.00     0.292 C 
HETATM   21  O5  UNK     1      22.978  -5.820  38.270  1.00  0.00    -0.262 OA
BRANCH  20  22
HETATM   22  O3  UNK     1      21.293  -7.068  39.230  1.00  0.00    -0.324 OA
HETATM   23  C21 UNK     1      22.236  -8.069  39.621  1.00  0.00     0.213 C 
ENDBRANCH  20  22
ENDBRANCH  13  20
ENDBRANCH  12  13
ENDBRANCH   7  12
BRANCH   3  24
HETATM   24  C2  UNK     1      16.540   0.445  36.360  1.00  0.00     0.039 C 
BRANCH  24  25
HETATM   25  C5  UNK     1      17.056   1.732  36.993  1.00  0.00     0.000 C 
HETATM   26  C13 UNK     1      17.556   1.483  38.408  1.00  0.00     0.005 C 
ENDBRANCH  24  25
ENDBRANCH   3  24
TORSDOF 7
ENDMDL
MODEL 4
REMARK VINA RESULT:      -8.2      6.212      9.571
REMARK  7 active torsions:
REMARK  status: ('A' for Active; 'I' for Inactive)
REMARK    1  A    between atoms: C10_15  and  O1_1 
REMARK    2  A    between atoms: C7_12  and  O1_1 
REMARK    3  A    between atoms: C15_20  and  O3_3 
REMARK    4  A    between atoms: C1_6  and  C2_7 
REMARK    5  A    between atoms: C2_7  and  C5_10 
REMARK    6  A    between atoms: C10_15  and  C12_17 
REMARK    7  A    between atoms: C10_15  and  C15_20 
ROOT
HETATM    1  O2  UNK     1      20.386  -5.989  34.718  1.00  0.00    -0.275 OA
HETATM    2  O4  UNK     1      20.697  -8.247  34.542  1.00  0.00    -0.260 OA
HETATM    3  C1  UNK     1      20.461  -6.297  37.529  1.00  0.00    -0.039 A 
HETATM    4  C3  UNK     1      20.270  -4.967  36.934  1.00  0.00     0.004 A 
HETATM    5  C4  UNK     1      20.237  -4.856  35.543  1.00  0.00     0.092 A 
HETATM    6  C6  UNK     1      20.115  -3.793  37.685  1.00  0.00     0.017 A 
HETATM    7  C7  UNK     1      19.909  -2.477  35.660  1.00  0.00     0.073 A 
HETATM    8  C8  UNK     1      20.060  -3.631  34.897  1.00  0.00     0.075 A 
HETATM    9  C9  UNK     1      20.598  -7.357  36.720  1.00  0.00     0.090 A 
HETATM   10  C11 UNK     1      19.938  -2.558  37.051  1.00  0.00     0.038 A 
HETATM   11  C14 UNK     1      20.567  -7.255  35.251  1.00  0.00     0.288 A 
ENDROOT
BRANCH   7  12
HETATM   12  O1  UNK     1      19.735  -1.273  35.050  1.00  0.00    -0.331 OA
BRANCH  12  13
HETATM   13  C10 UNK     1      18.434  -0.985  34.542  1.00  0.00     0.261 C 
BRANCH  13  14
HETATM   14  C12 UNK     1      17.725  -0.076  35.516  1.00  0.00    -0.019 A 
HETATM   15  C16 UNK     1      18.471   0.784  36.309  1.00  0.00     0.010 A 
HETATM   16  C18 UNK     1      17.815   1.624  37.209  1.00  0.00     0.001 A 
HETATM   17  C20 UNK     1      16.425   1.596  37.305  1.00  0.00     0.000 A 
HETATM   18  C19 UNK     1      15.688   0.727  36.500  1.00  0.00     0.001 A 
HETATM   19  C17 UNK     1      16.342  -0.115  35.600  1.00  0.00     0.010 A 
ENDBRANCH  13  14
BRANCH  13  20
HETATM   20  C15 UNK     1      18.560  -0.374  33.160  1.00  0.00     0.292 C 
HETATM   21  O5  UNK     1      18.704   0.823  32.944  1.00  0.00    -0.262 OA
BRANCH  20  22
HETATM   22  O3  UNK     1      18.517  -1.355  32.212  1.00  0.00    -0.324 OA
HETATM   23  C21 UNK     1      19.762  -1.653  31.573  1.00  0.00     0.213 C 
ENDBRANCH  20  22
ENDBRANCH  13  20
ENDBRANCH  12  13
ENDBRANCH   7  12
BRANCH   3  24
HETATM   24  C2  UNK     1      20.500  -6.450  39.022  1.00  0.00     0.039 C 
BRANCH  24  25
HETATM   25  C5  UNK     1      21.285  -7.689  39.438  1.00  0.00     0.000 C 
HETATM   26  C13 UNK     1      22.723  -7.333  39.783  1.00  0.00     0.005 C 
ENDBRANCH  24  25
ENDBRANCH   3  24
TORSDOF 7
ENDMDL
MODEL 5
REMARK VINA RESULT:      -8.1     22.387     24.491
REMARK  7 active torsions:
REMARK  status: ('A' for Active; 'I' for Inactive)
REMARK    1  A    between atoms: C10_15  and  O1_1 
REMARK    2  A    between atoms: C7_12  and  O1_1 
REMARK    3  A    between atoms: C15_20  and  O3_3 
REMARK    4  A    between atoms: C1_6  and  C2_7 
REMARK    5  A    between atoms: C2_7  and  C5_10 
REMARK    6  A    between atoms: C10_15  and  C12_17 
REMARK    7  A    between atoms: C10_15  and  C15_20 
ROOT
HETATM    1  O2  UNK     1      13.803   5.184   9.463  1.00  0.00    -0.275 OA
HETATM    2  O4  UNK     1      15.670   3.908   9.800  1.00  0.00    -0.260 OA
HETATM    3  C1  UNK     1      15.303   7.427  10.311  1.00  0.00    -0.039 A 
HETATM    4  C3  UNK     1      13.897   7.583   9.915  1.00  0.00     0.004 A 
HETATM    5  C4  UNK     1      13.189   6.452   9.503  1.00  0.00     0.092 A 
HETATM    6  C6  UNK     1      13.215   8.808   9.927  1.00  0.00     0.017 A 
HETATM    7  C7  UNK     1      11.193   7.737   9.129  1.00  0.00     0.073 A 
HETATM    8  C8  UNK     1      11.851   6.511   9.111  1.00  0.00     0.075 A 
HETATM    9  C9  UNK     1      15.860   6.209  10.265  1.00  0.00     0.090 A 
HETATM   10  C11 UNK     1      11.874   8.883   9.535  1.00  0.00     0.038 A 
HETATM   11  C14 UNK     1      15.127   5.007   9.831  1.00  0.00     0.288 A 
ENDROOT
BRANCH   7  12
HETATM   12  O1  UNK     1       9.889   7.818   8.750  1.00  0.00    -0.331 OA
BRANCH  12  13
HETATM   13  C10 UNK     1       9.148   6.599   8.709  1.00  0.00     0.261 C 
BRANCH  13  14
HETATM   14  C12 UNK     1       8.128   6.615   9.822  1.00  0.00    -0.019 A 
HETATM   15  C16 UNK     1       7.623   7.829  10.263  1.00  0.00     0.010 A 
HETATM   16  C18 UNK     1       6.680   7.845  11.291  1.00  0.00     0.001 A 
HETATM   17  C20 UNK     1       6.255   6.647  11.865  1.00  0.00     0.000 A 
HETATM   18  C19 UNK     1       6.771   5.434  11.411  1.00  0.00     0.001 A 
HETATM   19  C17 UNK     1       7.714   5.417  10.383  1.00  0.00     0.010 A 
ENDBRANCH  13  14
BRANCH  13  20
HETATM   20  C15 UNK     1       8.515   6.444   7.340  1.00  0.00     0.292 C 
HETATM   21  O5  UNK     1       7.512   7.042   6.971  1.00  0.00    -0.262 OA
BRANCH  20  22
HETATM   22  O3  UNK     1       9.242   5.566   6.588  1.00  0.00    -0.324 OA
HETATM   23  C21 UNK     1      10.247   6.153   5.756  1.00  0.00     0.213 C 
ENDBRANCH  20  22
ENDBRANCH  13  20
ENDBRANCH  12  13
ENDBRANCH   7  12
BRANCH   3  24
HETATM   24  C2  UNK     1      16.091   8.624  10.760  1.00  0.00     0.039 C 
BRANCH  24  25
HETATM   25  C5  UNK     1      17.243   8.925   9.809  1.00  0.00     0.000 C 
HETATM   26  C13 UNK     1      17.198  10.371   9.337  1.00  0.00     0.005 C 
ENDBRANCH  24  25
ENDBRANCH   3  24
TORSDOF 7
ENDMDL
MODEL 6
REMARK VINA RESULT:      -8.0      1.635      2.347
REMARK  7 active torsions:
REMARK  status: ('A' for Active; 'I' for Inactive)
REMARK    1  A    between atoms: C10_15  and  O1_1 
REMARK    2  A    between atoms: C7_12  and  O1_1 
REMARK    3  A    between atoms: C15_20  and  O3_3 
REMARK    4  A    between atoms: C1_6  and  C2_7 
REMARK    5  A    between atoms: C2_7  and  C5_10 
REMARK    6  A    between atoms: C10_15  and  C12_17 
REMARK    7  A    between atoms: C10_15  and  C15_20 
ROOT
HETATM    1  O2  UNK     1      18.987   2.427  29.366  1.00  0.00    -0.275 OA
HETATM    2  O4  UNK     1      19.359   0.459  28.264  1.00  0.00    -0.260 OA
HETATM    3  C1  UNK     1      18.786   0.934  31.760  1.00  0.00    -0.039 A 
HETATM    4  C3  UNK     1      18.629   2.395  31.782  1.00  0.00     0.004 A 
HETATM    5  C4  UNK     1      18.734   3.097  30.580  1.00  0.00     0.092 A 
HETATM    6  C6  UNK     1      18.376   3.134  32.946  1.00  0.00     0.017 A 
HETATM    7  C7  UNK     1      18.349   5.200  31.679  1.00  0.00     0.073 A 
HETATM    8  C8  UNK     1      18.599   4.484  30.512  1.00  0.00     0.075 A 
HETATM    9  C9  UNK     1      19.024   0.324  30.591  1.00  0.00     0.090 A 
HETATM   10  C11 UNK     1      18.239   4.526  32.894  1.00  0.00     0.038 A 
HETATM   11  C14 UNK     1      19.139   1.051  29.315  1.00  0.00     0.288 A 
ENDROOT
BRANCH   7  12
HETATM   12  O1  UNK     1      18.213   6.553  31.635  1.00  0.00    -0.331 OA
BRANCH  12  13
HETATM   13  C10 UNK     1      17.419   7.159  32.653  1.00  0.00     0.261 C 
BRANCH  13  14
HETATM   14  C12 UNK     1      18.228   8.249  33.312  1.00  0.00    -0.019 A 
HETATM   15  C16 UNK     1      19.485   7.952  33.818  1.00  0.00     0.010 A 
HETATM   16  C18 UNK     1      20.233   8.960  34.426  1.00  0.00     0.001 A 
HETATM   17  C20 UNK     1      19.715  10.252  34.523  1.00  0.00     0.000 A 
HETATM   18  C19 UNK     1      18.450  10.536  34.010  1.00  0.00     0.001 A 
HETATM   19  C17 UNK     1      17.701   9.528  33.401  1.00  0.00     0.010 A 
ENDBRANCH  13  14
BRANCH  13  20
HETATM   20  C15 UNK     1      16.132   7.677  32.042  1.00  0.00     0.292 C 
HETATM   21  O5  UNK     1      16.073   8.339  31.013  1.00  0.00    -0.262 OA
BRANCH  20  22
HETATM   22  O3  UNK     1      15.065   7.274  32.792  1.00  0.00    -0.324 OA
HETATM   23  C21 UNK     1      13.806   7.248  32.111  1.00  0.00     0.213 C 
ENDBRANCH  20  22
ENDBRANCH  13  20
ENDBRANCH  12  13
ENDBRANCH   7  12
BRANCH   3  24
HETATM   24  C2  UNK     1      18.677   0.151  33.037  1.00  0.00     0.039 C 
BRANCH  24  25
HETATM   25  C5  UNK     1      18.860  -1.342  32.794  1.00  0.00     0.000 C 
HETATM   26  C13 UNK     1      19.738  -1.966  33.868  1.00  0.00     0.005 C 
ENDBRANCH  24  25
ENDBRANCH   3  24
TORSDOF 7
ENDMDL
MODEL 7
REMARK VINA RESULT:      -8.0      1.459      2.719
REMARK  7 active torsions:
REMARK  status: ('A' for Active; 'I' for Inactive)
REMARK    1  A    between atoms: C10_15  and  O1_1 
REMARK    2  A    between atoms: C7_12  and  O1_1 
REMARK    3  A    between atoms: C15_20  and  O3_3 
REMARK    4  A    between atoms: C1_6  and  C2_7 
REMARK    5  A    between atoms: C2_7  and  C5_10 
REMARK    6  A    between atoms: C10_15  and  C12_17 
REMARK    7  A    between atoms: C10_15  and  C15_20 
ROOT
HETATM    1  O2  UNK     1      18.959   1.939  30.768  1.00  0.00    -0.275 OA
HETATM    2  O4  UNK     1      19.367  -0.234  30.187  1.00  0.00    -0.260 OA
HETATM    3  C1  UNK     1      18.508   1.044  33.413  1.00  0.00    -0.039 A 
HETATM    4  C3  UNK     1      18.392   2.471  33.084  1.00  0.00     0.004 A 
HETATM    5  C4  UNK     1      18.622   2.874  31.767  1.00  0.00     0.092 A 
HETATM    6  C6  UNK     1      18.062   3.462  34.019  1.00  0.00     0.017 A 
HETATM    7  C7  UNK     1      18.204   5.178  32.313  1.00  0.00     0.073 A 
HETATM    8  C8  UNK     1      18.533   4.209  31.370  1.00  0.00     0.075 A 
HETATM    9  C9  UNK     1      18.828   0.178  32.443  1.00  0.00     0.090 A 
HETATM   10  C11 UNK     1      17.970   4.805  33.636  1.00  0.00     0.038 A 
HETATM   11  C14 UNK     1      19.075   0.587  31.049  1.00  0.00     0.288 A 
ENDROOT
BRANCH   7  12
HETATM   12  O1  UNK     1      18.113   6.485  31.947  1.00  0.00    -0.331 OA
BRANCH  12  13
HETATM   13  C10 UNK     1      17.325   7.338  32.777  1.00  0.00     0.261 C 
BRANCH  13  14
HETATM   14  C12 UNK     1      18.227   8.380  33.392  1.00  0.00    -0.019 A 
HETATM   15  C16 UNK     1      19.482   8.008  33.851  1.00  0.00     0.010 A 
HETATM   16  C18 UNK     1      20.315   8.972  34.419  1.00  0.00     0.001 A 
HETATM   17  C20 UNK     1      19.884  10.294  34.522  1.00  0.00     0.000 A 
HETATM   18  C19 UNK     1      18.620  10.654  34.055  1.00  0.00     0.001 A 
HETATM   19  C17 UNK     1      17.786   9.691  33.487  1.00  0.00     0.010 A 
ENDBRANCH  13  14
BRANCH  13  20
HETATM   20  C15 UNK     1      16.209   7.947  31.951  1.00  0.00     0.292 C 
HETATM   21  O5  UNK     1      16.341   8.352  30.802  1.00  0.00    -0.262 OA
BRANCH  20  22
HETATM   22  O3  UNK     1      15.047   7.949  32.668  1.00  0.00    -0.324 OA
HETATM   23  C21 UNK     1      14.005   7.112  32.158  1.00  0.00     0.213 C 
ENDBRANCH  20  22
ENDBRANCH  13  20
ENDBRANCH  12  13
ENDBRANCH   7  12
BRANCH   3  24
HETATM   24  C2  UNK     1      18.266   0.579  34.820  1.00  0.00     0.039 C 
BRANCH  24  25
HETATM   25  C5  UNK     1      17.178  -0.487  34.878  1.00  0.00     0.000 C 
HETATM   26  C13 UNK     1      15.825   0.130  35.202  1.00  0.00     0.005 C 
ENDBRANCH  24  25
ENDBRANCH   3  24
TORSDOF 7
ENDMDL
MODEL 8
REMARK VINA RESULT:      -7.9      2.342      3.610
REMARK  7 active torsions:
REMARK  status: ('A' for Active; 'I' for Inactive)
REMARK    1  A    between atoms: C10_15  and  O1_1 
REMARK    2  A    between atoms: C7_12  and  O1_1 
REMARK    3  A    between atoms: C15_20  and  O3_3 
REMARK    4  A    between atoms: C1_6  and  C2_7 
REMARK    5  A    between atoms: C2_7  and  C5_10 
REMARK    6  A    between atoms: C10_15  and  C12_17 
REMARK    7  A    between atoms: C10_15  and  C15_20 
ROOT
HETATM    1  O2  UNK     1      18.559   0.701  36.026  1.00  0.00    -0.275 OA
HETATM    2  O4  UNK     1      18.723  -1.348  37.026  1.00  0.00    -0.260 OA
HETATM    3  C1  UNK     1      18.618  -0.624  33.527  1.00  0.00    -0.039 A 
HETATM    4  C3  UNK     1      18.513   0.840  33.587  1.00  0.00     0.004 A 
HETATM    5  C4  UNK     1      18.488   1.458  34.839  1.00  0.00     0.092 A 
HETATM    6  C6  UNK     1      18.437   1.663  32.454  1.00  0.00     0.017 A 
HETATM    7  C7  UNK     1      18.314   3.641  33.848  1.00  0.00     0.073 A 
HETATM    8  C8  UNK     1      18.389   2.842  34.985  1.00  0.00     0.075 A 
HETATM    9  C9  UNK     1      18.686  -1.318  34.671  1.00  0.00     0.090 A 
HETATM   10  C11 UNK     1      18.337   3.052  32.585  1.00  0.00     0.038 A 
HETATM   11  C14 UNK     1      18.659  -0.681  35.999  1.00  0.00     0.288 A 
ENDROOT
BRANCH   7  12
HETATM   12  O1  UNK     1      18.218   4.993  33.969  1.00  0.00    -0.331 OA
BRANCH  12  13
HETATM   13  C10 UNK     1      18.229   5.755  32.762  1.00  0.00     0.261 C 
BRANCH  13  14
HETATM   14  C12 UNK     1      17.074   6.727  32.794  1.00  0.00    -0.019 A 
HETATM   15  C16 UNK     1      16.365   6.901  33.973  1.00  0.00     0.010 A 
HETATM   16  C18 UNK     1      15.298   7.799  34.002  1.00  0.00     0.001 A 
HETATM   17  C20 UNK     1      14.954   8.512  32.854  1.00  0.00     0.000 A 
HETATM   18  C19 UNK     1      15.677   8.326  31.676  1.00  0.00     0.001 A 
HETATM   19  C17 UNK     1      16.744   7.428  31.645  1.00  0.00     0.010 A 
ENDBRANCH  13  14
BRANCH  13  20
HETATM   20  C15 UNK     1      19.570   6.448  32.620  1.00  0.00     0.292 C 
HETATM   21  O5  UNK     1      19.933   7.397  33.303  1.00  0.00    -0.262 OA
BRANCH  20  22
HETATM   22  O3  UNK     1      20.306   5.839  31.644  1.00  0.00    -0.324 OA
HETATM   23  C21 UNK     1      19.747   5.887  30.328  1.00  0.00     0.213 C 
ENDBRANCH  20  22
ENDBRANCH  13  20
ENDBRANCH  12  13
ENDBRANCH   7  12
BRANCH   3  24
HETATM   24  C2  UNK     1      18.649  -1.318  32.196  1.00  0.00     0.039 C 
BRANCH  24  25
HETATM   25  C5  UNK     1      20.071  -1.688  31.790  1.00  0.00     0.000 C 
HETATM   26  C13 UNK     1      20.498  -0.928  30.543  1.00  0.00     0.005 C 
ENDBRANCH  24  25
ENDBRANCH   3  24
TORSDOF 7
ENDMDL
MODEL 9
REMARK VINA RESULT:      -7.8      3.089      6.567
REMARK  7 active torsions:
REMARK  status: ('A' for Active; 'I' for Inactive)
REMARK    1  A    between atoms: C10_15  and  O1_1 
REMARK    2  A    between atoms: C7_12  and  O1_1 
REMARK    3  A    between atoms: C15_20  and  O3_3 
REMARK    4  A    between atoms: C1_6  and  C2_7 
REMARK    5  A    between atoms: C2_7  and  C5_10 
REMARK    6  A    between atoms: C10_15  and  C12_17 
REMARK    7  A    between atoms: C10_15  and  C15_20 
ROOT
HETATM    1  O2  UNK     1      17.769   1.708  37.143  1.00  0.00    -0.275 OA
HETATM    2  O4  UNK     1      17.802   1.399  39.408  1.00  0.00    -0.260 OA
HETATM    3  C1  UNK     1      18.371  -1.042  36.860  1.00  0.00    -0.039 A 
HETATM    4  C3  UNK     1      18.204  -0.194  35.672  1.00  0.00     0.004 A 
HETATM    5  C4  UNK     1      17.908   1.159  35.853  1.00  0.00     0.092 A 
HETATM    6  C6  UNK     1      18.326  -0.663  34.357  1.00  0.00     0.017 A 
HETATM    7  C7  UNK     1      17.859   1.548  33.481  1.00  0.00     0.073 A 
HETATM    8  C8  UNK     1      17.734   2.034  34.779  1.00  0.00     0.075 A 
HETATM    9  C9  UNK     1      18.234  -0.493  38.074  1.00  0.00     0.090 A 
HETATM   10  C11 UNK     1      18.154   0.202  33.270  1.00  0.00     0.038 A 
HETATM   11  C14 UNK     1      17.921   0.932  38.281  1.00  0.00     0.288 A 
ENDROOT
BRANCH   7  12
HETATM   12  O1  UNK     1      17.693   2.384  32.420  1.00  0.00    -0.331 OA
BRANCH  12  13
HETATM   13  C10 UNK     1      18.855   2.702  31.656  1.00  0.00     0.261 C 
BRANCH  13  14
HETATM   14  C12 UNK     1      18.901   1.798  30.448  1.00  0.00    -0.019 A 
HETATM   15  C16 UNK     1      19.876   0.814  30.372  1.00  0.00     0.010 A 
HETATM   16  C18 UNK     1      19.917  -0.022  29.255  1.00  0.00     0.001 A 
HETATM   17  C20 UNK     1      18.985   0.137  28.230  1.00  0.00     0.000 A 
HETATM   18  C19 UNK     1      18.011   1.130  28.321  1.00  0.00     0.001 A 
HETATM   19  C17 UNK     1      17.968   1.966  29.437  1.00  0.00     0.010 A 
ENDBRANCH  13  14
BRANCH  13  20
HETATM   20  C15 UNK     1      18.823   4.171  31.283  1.00  0.00     0.292 C 
HETATM   21  O5  UNK     1      19.583   4.697  30.479  1.00  0.00    -0.262 OA
BRANCH  20  22
HETATM   22  O3  UNK     1      17.812   4.798  31.953  1.00  0.00    -0.324 OA
HETATM   23  C21 UNK     1      17.761   6.220  31.803  1.00  0.00     0.213 C 
ENDBRANCH  20  22
ENDBRANCH  13  20
ENDBRANCH  12  13
ENDBRANCH   7  12
BRANCH   3  24
HETATM   24  C2  UNK     1      18.690  -2.500  36.699  1.00  0.00     0.039 C 
BRANCH  24  25
HETATM   25  C5  UNK     1      20.183  -2.766  36.851  1.00  0.00     0.000 C 
HETATM   26  C13 UNK     1      20.442  -4.200  37.286  1.00  0.00     0.005 C 
ENDBRANCH  24  25
ENDBRANCH   3  24
TORSDOF 7
ENDMDL
MODEL 10
REMARK VINA RESULT:      -7.7      1.669      7.934
REMARK  7 active torsions:
REMARK  status: ('A' for Active; 'I' for Inactive)
REMARK    1  A    between atoms: C10_15  and  O1_1 
REMARK    2  A    between atoms: C7_12  and  O1_1 
REMARK    3  A    between atoms: C15_20  and  O3_3 
REMARK    4  A    between atoms: C1_6  and  C2_7 
REMARK    5  A    between atoms: C2_7  and  C5_10 
REMARK    6  A    between atoms: C10_15  and  C12_17 
REMARK    7  A    between atoms: C10_15  and  C15_20 
ROOT
HETATM    1  O2  UNK     1      15.778   7.206  33.804  1.00  0.00    -0.275 OA
HETATM    2  O4  UNK     1      14.128   8.760  34.105  1.00  0.00    -0.260 OA
HETATM    3  C1  UNK     1      17.652   9.324  33.895  1.00  0.00    -0.039 A 
HETATM    4  C3  UNK     1      18.107   7.940  33.706  1.00  0.00     0.004 A 
HETATM    5  C4  UNK     1      17.152   6.922  33.665  1.00  0.00     0.092 A 
HETATM    6  C6  UNK     1      19.452   7.575  33.560  1.00  0.00     0.017 A 
HETATM    7  C7  UNK     1      18.840   5.240  33.348  1.00  0.00     0.073 A 
HETATM    8  C8  UNK     1      17.498   5.581  33.490  1.00  0.00     0.075 A 
HETATM    9  C9  UNK     1      16.340   9.564  34.023  1.00  0.00     0.090 A 
HETATM   10  C11 UNK     1      19.815   6.235  33.384  1.00  0.00     0.038 A 
HETATM   11  C14 UNK     1      15.321   8.501  33.984  1.00  0.00     0.288 A 
ENDROOT
BRANCH   7  12
HETATM   12  O1  UNK     1      19.199   3.939  33.175  1.00  0.00    -0.331 OA
BRANCH  12  13
HETATM   13  C10 UNK     1      18.155   3.010  32.887  1.00  0.00     0.261 C 
BRANCH  13  14
HETATM   14  C12 UNK     1      18.423   2.384  31.541  1.00  0.00    -0.019 A 
HETATM   15  C16 UNK     1      19.128   1.191  31.473  1.00  0.00     0.010 A 
HETATM   16  C18 UNK     1      19.375   0.613  30.228  1.00  0.00     0.001 A 
HETATM   17  C20 UNK     1      18.917   1.234  29.067  1.00  0.00     0.000 A 
HETATM   18  C19 UNK     1      18.209   2.433  29.150  1.00  0.00     0.001 A 
HETATM   19  C17 UNK     1      17.961   3.012  30.395  1.00  0.00     0.010 A 
ENDBRANCH  13  14
BRANCH  13  20
HETATM   20  C15 UNK     1      18.076   1.984  34.001  1.00  0.00     0.292 C 
HETATM   21  O5  UNK     1      18.935   1.830  34.861  1.00  0.00    -0.262 OA
BRANCH  20  22
HETATM   22  O3  UNK     1      16.904   1.289  33.912  1.00  0.00    -0.324 OA
HETATM   23  C21 UNK     1      16.738   0.234  34.863  1.00  0.00     0.213 C 
ENDBRANCH  20  22
ENDBRANCH  13  20
ENDBRANCH  12  13
ENDBRANCH   7  12
BRANCH   3  24
HETATM   24  C2  UNK     1      18.654  10.441  33.941  1.00  0.00     0.039 C 
BRANCH  24  25
HETATM   25  C5  UNK     1      17.992  11.773  34.273  1.00  0.00     0.000 C 
HETATM   26  C13 UNK     1      18.577  12.898  33.433  1.00  0.00     0.005 C 
ENDBRANCH  24  25
ENDBRANCH   3  24
TORSDOF 7
ENDMDL
