MODEL 1
REMARK VINA RESULT:      -7.8      0.000      0.000
REMARK  3 active torsions:
REMARK  status: ('A' for Active; 'I' for Inactive)
REMARK    1  A    between atoms: C5_10  and  O2_3 
REMARK    2  A    between atoms: C8_13  and  O3_4 
REMARK    3  A    between atoms: C3_8  and  C6_11 
ROOT
HETATM    1  O1  UNK     1      18.817   5.215  29.626  1.00  0.00    -0.321 OA
HETATM    2  O4  UNK     1      17.636   4.702  33.499  1.00  0.00    -0.286 OA
HETATM    3  C1  UNK     1      18.326   3.720  31.474  1.00  0.00     0.082 A 
HETATM    4  C2  UNK     1      18.733   3.955  30.161  1.00  0.00     0.094 A 
HETATM    5  C3  UNK     1      18.056   6.213  31.706  1.00  0.00     0.048 A 
HETATM    6  C4  UNK     1      17.971   4.864  32.332  1.00  0.00     0.200 A 
HETATM    7  C5  UNK     1      18.261   2.412  31.965  1.00  0.00     0.087 A 
HETATM    8  C7  UNK     1      19.078   2.887  29.332  1.00  0.00     0.075 A 
HETATM    9  C8  UNK     1      19.012   1.582  29.821  1.00  0.00     0.073 A 
HETATM   10  C9  UNK     1      18.605   1.345  31.134  1.00  0.00     0.074 A 
HETATM   11  C10 UNK     1      18.463   6.272  30.429  1.00  0.00     0.159 A 
ENDROOT
BRANCH   5  12
HETATM   12  C6  UNK     1      17.692   7.436  32.440  1.00  0.00    -0.020 A 
HETATM   13  C11 UNK     1      18.619   8.048  33.287  1.00  0.00     0.014 A 
HETATM   14  C13 UNK     1      18.274   9.207  33.981  1.00  0.00     0.024 A 
HETATM   15  C15 UNK     1      17.001   9.757  33.831  1.00  0.00     0.034 A 
HETATM   16  C14 UNK     1      16.074   9.148  32.986  1.00  0.00     0.024 A 
HETATM   17 Cl1  UNK     1      16.576  11.188  34.688  1.00  0.00    -0.084 Cl
HETATM   18  C12 UNK     1      16.419   7.989  32.290  1.00  0.00     0.014 A 
ENDBRANCH   5  12
BRANCH   7  19
HETATM   19  O2  UNK     1      17.871   2.125  33.238  1.00  0.00    -0.355 OA
HETATM   20  C16 UNK     1      18.243   0.852  33.760  1.00  0.00     0.210 C 
ENDBRANCH   7  19
BRANCH   9  21
HETATM   21  O3  UNK     1      19.345   0.537  29.014  1.00  0.00    -0.356 OA
HETATM   22  C17 UNK     1      20.490  -0.230  29.384  1.00  0.00     0.210 C 
ENDBRANCH   9  21
TORSDOF 3
ENDMDL
MODEL 2
REMARK VINA RESULT:      -7.7      1.216      1.814
REMARK  3 active torsions:
REMARK  status: ('A' for Active; 'I' for Inactive)
REMARK    1  A    between atoms: C5_10  and  O2_3 
REMARK    2  A    between atoms: C8_13  and  O3_4 
REMARK    3  A    between atoms: C3_8  and  C6_11 
ROOT
HETATM    1  O1  UNK     1      18.949   3.673  29.504  1.00  0.00    -0.321 OA
HETATM    2  O4  UNK     1      18.062   3.364  33.475  1.00  0.00    -0.286 OA
HETATM    3  C1  UNK     1      18.699   2.287  31.481  1.00  0.00     0.082 A 
HETATM    4  C2  UNK     1      19.002   2.454  30.130  1.00  0.00     0.094 A 
HETATM    5  C3  UNK     1      18.243   4.763  31.556  1.00  0.00     0.048 A 
HETATM    6  C4  UNK     1      18.307   3.463  32.279  1.00  0.00     0.200 A 
HETATM    7  C5  UNK     1      18.773   1.020  32.067  1.00  0.00     0.087 A 
HETATM    8  C7  UNK     1      19.379   1.355  29.356  1.00  0.00     0.075 A 
HETATM    9  C8  UNK     1      19.451   0.090  29.939  1.00  0.00     0.073 A 
HETATM   10  C9  UNK     1      19.149  -0.077  31.290  1.00  0.00     0.074 A 
HETATM   11  C10 UNK     1      18.561   4.757  30.252  1.00  0.00     0.159 A 
ENDROOT
BRANCH   5  12
HETATM   12  C6  UNK     1      17.827   6.007  32.225  1.00  0.00    -0.020 A 
HETATM   13  C11 UNK     1      16.471   6.307  32.368  1.00  0.00     0.014 A 
HETATM   14  C13 UNK     1      16.078   7.485  33.002  1.00  0.00     0.024 A 
HETATM   15  C15 UNK     1      17.041   8.367  33.493  1.00  0.00     0.034 A 
HETATM   16  C14 UNK     1      18.396   8.070  33.352  1.00  0.00     0.024 A 
HETATM   17 Cl1  UNK     1      16.555   9.822  34.275  1.00  0.00    -0.084 Cl
HETATM   18  C12 UNK     1      18.789   6.891  32.718  1.00  0.00     0.014 A 
ENDBRANCH   5  12
BRANCH   7  19
HETATM   19  O2  UNK     1      18.489   0.801  33.380  1.00  0.00    -0.355 OA
HETATM   20  C16 UNK     1      18.419  -0.556  33.812  1.00  0.00     0.210 C 
ENDBRANCH   7  19
BRANCH   9  21
HETATM   21  O3  UNK     1      19.817  -0.984  29.186  1.00  0.00    -0.356 OA
HETATM   22  C17 UNK     1      20.418  -2.082  29.870  1.00  0.00     0.210 C 
ENDBRANCH   9  21
TORSDOF 3
ENDMDL
MODEL 3
REMARK VINA RESULT:      -7.4      1.587      3.136
REMARK  3 active torsions:
REMARK  status: ('A' for Active; 'I' for Inactive)
REMARK    1  A    between atoms: C5_10  and  O2_3 
REMARK    2  A    between atoms: C8_13  and  O3_4 
REMARK    3  A    between atoms: C3_8  and  C6_11 
ROOT
HETATM    1  O1  UNK     1      18.329   2.326  34.304  1.00  0.00    -0.321 OA
HETATM    2  O4  UNK     1      18.407   4.563  30.892  1.00  0.00    -0.286 OA
HETATM    3  C1  UNK     1      18.614   2.444  31.897  1.00  0.00     0.082 A 
HETATM    4  C2  UNK     1      18.565   1.728  33.092  1.00  0.00     0.094 A 
HETATM    5  C3  UNK     1      18.168   4.513  33.261  1.00  0.00     0.048 A 
HETATM    6  C4  UNK     1      18.402   3.903  31.924  1.00  0.00     0.200 A 
HETATM    7  C5  UNK     1      18.857   1.781  30.690  1.00  0.00     0.087 A 
HETATM    8  C7  UNK     1      18.760   0.346  33.090  1.00  0.00     0.075 A 
HETATM    9  C8  UNK     1      19.004  -0.316  31.887  1.00  0.00     0.073 A 
HETATM   10  C9  UNK     1      19.053   0.399  30.691  1.00  0.00     0.074 A 
HETATM   11  C10 UNK     1      18.154   3.688  34.319  1.00  0.00     0.159 A 
ENDROOT
BRANCH   5  12
HETATM   12  C6  UNK     1      17.981   5.963  33.434  1.00  0.00    -0.020 A 
HETATM   13  C11 UNK     1      16.743   6.548  33.159  1.00  0.00     0.014 A 
HETATM   14  C13 UNK     1      16.565   7.921  33.323  1.00  0.00     0.024 A 
HETATM   15  C15 UNK     1      17.627   8.714  33.761  1.00  0.00     0.034 A 
HETATM   16  C14 UNK     1      18.864   8.133  34.036  1.00  0.00     0.024 A 
HETATM   17 Cl1  UNK     1      17.408  10.409  33.962  1.00  0.00    -0.084 Cl
HETATM   18  C12 UNK     1      19.041   6.758  33.872  1.00  0.00     0.014 A 
ENDBRANCH   5  12
BRANCH   7  19
HETATM   19  O2  UNK     1      18.915   2.430  29.494  1.00  0.00    -0.355 OA
HETATM   20  C16 UNK     1      17.940   2.077  28.517  1.00  0.00     0.210 C 
ENDBRANCH   7  19
BRANCH   9  21
HETATM   21  O3  UNK     1      19.196  -1.664  31.882  1.00  0.00    -0.356 OA
HETATM   22  C17 UNK     1      20.287  -2.161  31.108  1.00  0.00     0.210 C 
ENDBRANCH   9  21
TORSDOF 3
ENDMDL
MODEL 4
REMARK VINA RESULT:      -7.2      6.583     10.624
REMARK  3 active torsions:
REMARK  status: ('A' for Active; 'I' for Inactive)
REMARK    1  A    between atoms: C5_10  and  O2_3 
REMARK    2  A    between atoms: C8_13  and  O3_4 
REMARK    3  A    between atoms: C3_8  and  C6_11 
ROOT
HETATM    1  O1  UNK     1      19.763  -1.932  33.866  1.00  0.00    -0.321 OA
HETATM    2  O4  UNK     1      18.345  -2.133  37.687  1.00  0.00    -0.286 OA
HETATM    3  C1  UNK     1      18.487  -0.928  35.670  1.00  0.00     0.082 A 
HETATM    4  C2  UNK     1      18.989  -0.917  34.370  1.00  0.00     0.094 A 
HETATM    5  C3  UNK     1      19.651  -3.141  35.970  1.00  0.00     0.048 A 
HETATM    6  C4  UNK     1      18.792  -2.072  36.549  1.00  0.00     0.200 A 
HETATM    7  C5  UNK     1      17.701   0.134  36.129  1.00  0.00     0.087 A 
HETATM    8  C7  UNK     1      18.711   0.154  33.520  1.00  0.00     0.075 A 
HETATM    9  C8  UNK     1      17.928   1.214  33.976  1.00  0.00     0.073 A 
HETATM   10  C9  UNK     1      17.425   1.205  35.277  1.00  0.00     0.074 A 
HETATM   11  C10 UNK     1      20.058  -2.982  34.701  1.00  0.00     0.159 A 
ENDROOT
BRANCH   5  12
HETATM   12  C6  UNK     1      20.063  -4.319  36.751  1.00  0.00    -0.020 A 
HETATM   13  C11 UNK     1      19.271  -5.469  36.756  1.00  0.00     0.014 A 
HETATM   14  C13 UNK     1      19.662  -6.584  37.496  1.00  0.00     0.024 A 
HETATM   15  C15 UNK     1      20.845  -6.551  38.235  1.00  0.00     0.034 A 
HETATM   16  C14 UNK     1      21.637  -5.404  38.233  1.00  0.00     0.024 A 
HETATM   17 Cl1  UNK     1      21.326  -7.928  39.149  1.00  0.00    -0.084 Cl
HETATM   18  C12 UNK     1      21.246  -4.288  37.491  1.00  0.00     0.014 A 
ENDBRANCH   5  12
BRANCH   7  19
HETATM   19  O2  UNK     1      17.185   0.174  37.388  1.00  0.00    -0.355 OA
HETATM   20  C16 UNK     1      17.546   1.288  38.202  1.00  0.00     0.210 C 
ENDBRANCH   7  19
BRANCH   9  21
HETATM   21  O3  UNK     1      17.656   2.262  33.150  1.00  0.00    -0.356 OA
HETATM   22  C17 UNK     1      18.241   3.520  33.483  1.00  0.00     0.210 C 
ENDBRANCH   9  21
TORSDOF 3
ENDMDL
MODEL 5
REMARK VINA RESULT:      -7.2     15.155     17.079
REMARK  3 active torsions:
REMARK  status: ('A' for Active; 'I' for Inactive)
REMARK    1  A    between atoms: C5_10  and  O2_3 
REMARK    2  A    between atoms: C8_13  and  O3_4 
REMARK    3  A    between atoms: C3_8  and  C6_11 
ROOT
HETATM    1  O1  UNK     1      25.887  -5.084  38.844  1.00  0.00    -0.321 OA
HETATM    2  O4  UNK     1      26.125  -9.153  38.632  1.00  0.00    -0.286 OA
HETATM    3  C1  UNK     1      27.251  -7.086  38.684  1.00  0.00     0.082 A 
HETATM    4  C2  UNK     1      27.110  -5.701  38.769  1.00  0.00     0.094 A 
HETATM    5  C3  UNK     1      24.737  -7.221  38.738  1.00  0.00     0.048 A 
HETATM    6  C4  UNK     1      26.043  -7.932  38.676  1.00  0.00     0.200 A 
HETATM    7  C5  UNK     1      28.524  -7.660  38.613  1.00  0.00     0.087 A 
HETATM    8  C7  UNK     1      28.239  -4.882  38.782  1.00  0.00     0.075 A 
HETATM    9  C8  UNK     1      29.510  -5.453  38.710  1.00  0.00     0.073 A 
HETATM   10  C9  UNK     1      29.652  -6.838  38.625  1.00  0.00     0.074 A 
HETATM   11  C10 UNK     1      24.769  -5.881  38.814  1.00  0.00     0.159 A 
ENDROOT
BRANCH   5  12
HETATM   12  C6  UNK     1      23.454  -7.943  38.698  1.00  0.00    -0.020 A 
HETATM   13  C11 UNK     1      22.997  -8.493  37.498  1.00  0.00     0.014 A 
HETATM   14  C13 UNK     1      21.782  -9.177  37.460  1.00  0.00     0.024 A 
HETATM   15  C15 UNK     1      21.021  -9.312  38.622  1.00  0.00     0.034 A 
HETATM   16  C14 UNK     1      21.475  -8.763  39.821  1.00  0.00     0.024 A 
HETATM   17 Cl1  UNK     1      19.522 -10.156  38.574  1.00  0.00    -0.084 Cl
HETATM   18  C12 UNK     1      22.691  -8.080  39.858  1.00  0.00     0.014 A 
ENDBRANCH   5  12
BRANCH   7  19
HETATM   19  O2  UNK     1      28.719  -9.005  38.529  1.00  0.00    -0.355 OA
HETATM   20  C16 UNK     1      30.009  -9.449  38.115  1.00  0.00     0.210 C 
ENDBRANCH   7  19
BRANCH   9  21
HETATM   21  O3  UNK     1      30.614  -4.656  38.720  1.00  0.00    -0.356 OA
HETATM   22  C17 UNK     1      31.846  -5.247  38.310  1.00  0.00     0.210 C 
ENDBRANCH   9  21
TORSDOF 3
ENDMDL
MODEL 6
REMARK VINA RESULT:      -7.2      6.588     10.648
REMARK  3 active torsions:
REMARK  status: ('A' for Active; 'I' for Inactive)
REMARK    1  A    between atoms: C5_10  and  O2_3 
REMARK    2  A    between atoms: C8_13  and  O3_4 
REMARK    3  A    between atoms: C3_8  and  C6_11 
ROOT
HETATM    1  O1  UNK     1      18.455  -1.008  36.396  1.00  0.00    -0.321 OA
HETATM    2  O4  UNK     1      20.544  -3.645  34.086  1.00  0.00    -0.286 OA
HETATM    3  C1  UNK     1      19.369  -1.610  34.230  1.00  0.00     0.082 A 
HETATM    4  C2  UNK     1      18.672  -0.741  35.069  1.00  0.00     0.094 A 
HETATM    5  C3  UNK     1      19.625  -3.129  36.222  1.00  0.00     0.048 A 
HETATM    6  C4  UNK     1      19.901  -2.869  34.783  1.00  0.00     0.200 A 
HETATM    7  C5  UNK     1      19.562  -1.284  32.884  1.00  0.00     0.087 A 
HETATM    8  C7  UNK     1      18.163   0.458  34.568  1.00  0.00     0.075 A 
HETATM    9  C8  UNK     1      18.353   0.783  33.225  1.00  0.00     0.073 A 
HETATM   10  C9  UNK     1      19.050  -0.085  32.386  1.00  0.00     0.074 A 
HETATM   11  C10 UNK     1      18.936  -2.194  36.895  1.00  0.00     0.159 A 
ENDROOT
BRANCH   5  12
HETATM   12  C6  UNK     1      20.066  -4.366  36.889  1.00  0.00    -0.020 A 
HETATM   13  C11 UNK     1      21.257  -4.383  37.618  1.00  0.00     0.014 A 
HETATM   14  C13 UNK     1      21.674  -5.555  38.250  1.00  0.00     0.024 A 
HETATM   15  C15 UNK     1      20.901  -6.712  38.153  1.00  0.00     0.034 A 
HETATM   16  C14 UNK     1      19.711  -6.698  37.425  1.00  0.00     0.024 A 
HETATM   17 Cl1  UNK     1      21.416  -8.158  38.932  1.00  0.00    -0.084 Cl
HETATM   18  C12 UNK     1      19.294  -5.525  36.794  1.00  0.00     0.014 A 
ENDBRANCH   5  12
BRANCH   7  19
HETATM   19  O2  UNK     1      20.235  -2.095  32.022  1.00  0.00    -0.355 OA
HETATM   20  C16 UNK     1      20.143  -1.785  30.634  1.00  0.00     0.210 C 
ENDBRANCH   7  19
BRANCH   9  21
HETATM   21  O3  UNK     1      17.856   1.952  32.733  1.00  0.00    -0.356 OA
HETATM   22  C17 UNK     1      18.392   2.415  31.495  1.00  0.00     0.210 C 
ENDBRANCH   9  21
TORSDOF 3
ENDMDL
MODEL 7
REMARK VINA RESULT:      -7.1     14.096     17.751
REMARK  3 active torsions:
REMARK  status: ('A' for Active; 'I' for Inactive)
REMARK    1  A    between atoms: C5_10  and  O2_3 
REMARK    2  A    between atoms: C8_13  and  O3_4 
REMARK    3  A    between atoms: C3_8  and  C6_11 
ROOT
HETATM    1  O1  UNK     1      19.393   1.087  15.048  1.00  0.00    -0.321 OA
HETATM    2  O4  UNK     1      18.603  -1.840  17.780  1.00  0.00    -0.286 OA
HETATM    3  C1  UNK     1      19.051   0.432  17.361  1.00  0.00     0.082 A 
HETATM    4  C2  UNK     1      19.308   1.393  16.383  1.00  0.00     0.094 A 
HETATM    5  C3  UNK     1      18.981  -1.264  15.500  1.00  0.00     0.048 A 
HETATM    6  C4  UNK     1      18.860  -0.972  16.955  1.00  0.00     0.200 A 
HETATM    7  C5  UNK     1      18.973   0.803  18.706  1.00  0.00     0.087 A 
HETATM    8  C7  UNK     1      19.488   2.729  16.743  1.00  0.00     0.075 A 
HETATM    9  C8  UNK     1      19.412   3.100  18.086  1.00  0.00     0.073 A 
HETATM   10  C9  UNK     1      19.155   2.140  19.064  1.00  0.00     0.074 A 
HETATM   11  C10 UNK     1      19.235  -0.228  14.685  1.00  0.00     0.159 A 
ENDROOT
BRANCH   5  12
HETATM   12  C6  UNK     1      18.851  -2.630  14.966  1.00  0.00    -0.020 A 
HETATM   13  C11 UNK     1      17.807  -3.453  15.393  1.00  0.00     0.014 A 
HETATM   14  C13 UNK     1      17.685  -4.747  14.887  1.00  0.00     0.024 A 
HETATM   15  C15 UNK     1      18.607  -5.220  13.953  1.00  0.00     0.034 A 
HETATM   16  C14 UNK     1      19.650  -4.400  13.525  1.00  0.00     0.024 A 
HETATM   17 Cl1  UNK     1      18.455  -6.817  13.329  1.00  0.00    -0.084 Cl
HETATM   18  C12 UNK     1      19.772  -3.106  14.032  1.00  0.00     0.014 A 
ENDBRANCH   5  12
BRANCH   7  19
HETATM   19  O2  UNK     1      18.724  -0.093  19.701  1.00  0.00    -0.355 OA
HETATM   20  C16 UNK     1      19.370   0.131  20.952  1.00  0.00     0.210 C 
ENDBRANCH   7  19
BRANCH   9  21
HETATM   21  O3  UNK     1      19.590   4.403  18.441  1.00  0.00    -0.356 OA
HETATM   22  C17 UNK     1      20.921   4.914  18.387  1.00  0.00     0.210 C 
ENDBRANCH   9  21
TORSDOF 3
ENDMDL
MODEL 8
REMARK VINA RESULT:      -7.1      3.542      7.791
REMARK  3 active torsions:
REMARK  status: ('A' for Active; 'I' for Inactive)
REMARK    1  A    between atoms: C5_10  and  O2_3 
REMARK    2  A    between atoms: C8_13  and  O3_4 
REMARK    3  A    between atoms: C3_8  and  C6_11 
ROOT
HETATM    1  O1  UNK     1      19.600   8.294  33.511  1.00  0.00    -0.321 OA
HETATM    2  O4  UNK     1      16.095   6.798  32.052  1.00  0.00    -0.286 OA
HETATM    3  C1  UNK     1      17.218   8.562  33.133  1.00  0.00     0.082 A 
HETATM    4  C2  UNK     1      18.445   9.027  33.604  1.00  0.00     0.094 A 
HETATM    5  C3  UNK     1      18.420   6.460  32.442  1.00  0.00     0.048 A 
HETATM    6  C4  UNK     1      17.148   7.230  32.505  1.00  0.00     0.200 A 
HETATM    7  C5  UNK     1      16.072   9.354  33.254  1.00  0.00     0.087 A 
HETATM    8  C7  UNK     1      18.535  10.286  34.200  1.00  0.00     0.075 A 
HETATM    9  C8  UNK     1      17.393  11.077  34.322  1.00  0.00     0.073 A 
HETATM   10  C9  UNK     1      16.165  10.613  33.851  1.00  0.00     0.074 A 
HETATM   11  C10 UNK     1      19.519   7.046  32.943  1.00  0.00     0.159 A 
ENDROOT
BRANCH   5  12
HETATM   12  C6  UNK     1      18.482   5.102  31.875  1.00  0.00    -0.020 A 
HETATM   13  C11 UNK     1      18.846   4.916  30.540  1.00  0.00     0.014 A 
HETATM   14  C13 UNK     1      18.904   3.630  30.003  1.00  0.00     0.024 A 
HETATM   15  C15 UNK     1      18.599   2.527  30.802  1.00  0.00     0.034 A 
HETATM   16  C14 UNK     1      18.236   2.710  32.135  1.00  0.00     0.024 A 
HETATM   17 Cl1  UNK     1      18.671   0.940  30.139  1.00  0.00    -0.084 Cl
HETATM   18  C12 UNK     1      18.177   3.997  32.672  1.00  0.00     0.014 A 
ENDBRANCH   5  12
BRANCH   7  19
HETATM   19  O2  UNK     1      14.850   8.950  32.810  1.00  0.00    -0.355 OA
HETATM   20  C16 UNK     1      13.731   9.760  33.163  1.00  0.00     0.210 C 
ENDBRANCH   7  19
BRANCH   9  21
HETATM   21  O3  UNK     1      17.477  12.305  34.904  1.00  0.00    -0.356 OA
HETATM   22  C17 UNK     1      18.215  13.306  34.205  1.00  0.00     0.210 C 
ENDBRANCH   9  21
TORSDOF 3
ENDMDL
MODEL 9
REMARK VINA RESULT:      -6.9      4.345      8.148
REMARK  3 active torsions:
REMARK  status: ('A' for Active; 'I' for Inactive)
REMARK    1  A    between atoms: C5_10  and  O2_3 
REMARK    2  A    between atoms: C8_13  and  O3_4 
REMARK    3  A    between atoms: C3_8  and  C6_11 
ROOT
HETATM    1  O1  UNK     1      18.432   2.843  35.340  1.00  0.00    -0.321 OA
HETATM    2  O4  UNK     1      18.704  -0.193  32.626  1.00  0.00    -0.286 OA
HETATM    3  C1  UNK     1      18.396   2.106  33.027  1.00  0.00     0.082 A 
HETATM    4  C2  UNK     1      18.322   3.104  33.998  1.00  0.00     0.094 A 
HETATM    5  C3  UNK     1      18.698   0.466  34.915  1.00  0.00     0.048 A 
HETATM    6  C4  UNK     1      18.604   0.708  33.449  1.00  0.00     0.200 A 
HETATM    7  C5  UNK     1      18.278   2.432  31.673  1.00  0.00     0.087 A 
HETATM    8  C7  UNK     1      18.129   4.434  33.621  1.00  0.00     0.075 A 
HETATM    9  C8  UNK     1      18.010   4.761  32.270  1.00  0.00     0.073 A 
HETATM   10  C9  UNK     1      18.084   3.763  31.299  1.00  0.00     0.074 A 
HETATM   11  C10 UNK     1      18.604   1.535  35.721  1.00  0.00     0.159 A 
ENDROOT
BRANCH   5  12
HETATM   12  C6  UNK     1      18.866  -0.886  35.472  1.00  0.00    -0.020 A 
HETATM   13  C11 UNK     1      17.875  -1.437  36.287  1.00  0.00     0.014 A 
HETATM   14  C13 UNK     1      18.034  -2.718  36.815  1.00  0.00     0.024 A 
HETATM   15  C15 UNK     1      19.185  -3.451  36.528  1.00  0.00     0.034 A 
HETATM   16  C14 UNK     1      20.177  -2.905  35.714  1.00  0.00     0.024 A 
HETATM   17 Cl1  UNK     1      19.382  -5.033  37.180  1.00  0.00    -0.084 Cl
HETATM   18  C12 UNK     1      20.017  -1.623  35.186  1.00  0.00     0.014 A 
ENDBRANCH   5  12
BRANCH   7  19
HETATM   19  O2  UNK     1      18.344   1.498  30.684  1.00  0.00    -0.355 OA
HETATM   20  C16 UNK     1      18.151   1.953  29.347  1.00  0.00     0.210 C 
ENDBRANCH   7  19
BRANCH   9  21
HETATM   21  O3  UNK     1      17.820   6.057  31.900  1.00  0.00    -0.356 OA
HETATM   22  C17 UNK     1      16.640   6.702  32.377  1.00  0.00     0.210 C 
ENDBRANCH   9  21
TORSDOF 3
ENDMDL
MODEL 10
REMARK VINA RESULT:      -6.8     15.496     17.352
REMARK  3 active torsions:
REMARK  status: ('A' for Active; 'I' for Inactive)
REMARK    1  A    between atoms: C5_10  and  O2_3 
REMARK    2  A    between atoms: C8_13  and  O3_4 
REMARK    3  A    between atoms: C3_8  and  C6_11 
ROOT
HETATM    1  O1  UNK     1      27.585  -9.723  37.903  1.00  0.00    -0.321 OA
HETATM    2  O4  UNK     1      26.025  -6.043  38.727  1.00  0.00    -0.286 OA
HETATM    3  C1  UNK     1      27.939  -7.379  38.426  1.00  0.00     0.082 A 
HETATM    4  C2  UNK     1      28.416  -8.655  38.130  1.00  0.00     0.094 A 
HETATM    5  C3  UNK     1      25.619  -8.344  38.266  1.00  0.00     0.048 A 
HETATM    6  C4  UNK     1      26.484  -7.155  38.499  1.00  0.00     0.200 A 
HETATM    7  C5  UNK     1      28.835  -6.328  38.646  1.00  0.00     0.087 A 
HETATM    8  C7  UNK     1      29.790  -8.890  38.053  1.00  0.00     0.075 A 
HETATM    9  C8  UNK     1      30.684  -7.842  38.273  1.00  0.00     0.073 A 
HETATM   10  C9  UNK     1      30.208  -6.566  38.570  1.00  0.00     0.074 A 
HETATM   11  C10 UNK     1      26.232  -9.506  37.994  1.00  0.00     0.159 A 
ENDROOT
BRANCH   5  12
HETATM   12  C6  UNK     1      24.151  -8.267  38.348  1.00  0.00    -0.020 A 
HETATM   13  C11 UNK     1      23.366  -8.655  37.259  1.00  0.00     0.014 A 
HETATM   14  C13 UNK     1      21.976  -8.582  37.337  1.00  0.00     0.024 A 
HETATM   15  C15 UNK     1      21.366  -8.120  38.504  1.00  0.00     0.034 A 
HETATM   16  C14 UNK     1      22.147  -7.731  39.592  1.00  0.00     0.024 A 
HETATM   17 Cl1  UNK     1      19.650  -8.030  38.599  1.00  0.00    -0.084 Cl
HETATM   18  C12 UNK     1      23.538  -7.805  39.514  1.00  0.00     0.014 A 
ENDBRANCH   5  12
BRANCH   7  19
HETATM   19  O2  UNK     1      28.424  -5.063  38.939  1.00  0.00    -0.355 OA
HETATM   20  C16 UNK     1      29.438  -4.089  39.172  1.00  0.00     0.210 C 
ENDBRANCH   7  19
BRANCH   9  21
HETATM   21  O3  UNK     1      32.025  -8.068  38.201  1.00  0.00    -0.356 OA
HETATM   22  C17 UNK     1      32.850  -6.964  37.832  1.00  0.00     0.210 C 
ENDBRANCH   9  21
TORSDOF 3
ENDMDL
