MODEL 1
REMARK VINA RESULT:      -8.5      0.000      0.000
REMARK  7 active torsions:
REMARK  status: ('A' for Active; 'I' for Inactive)
REMARK    1  A    between atoms: C9_19  and  O2_5 
REMARK    2  A    between atoms: C20_30  and  O4_7 
REMARK    3  A    between atoms: C22_32  and  O5_8 
REMARK    4  A    between atoms: C5_15  and  N1_9 
REMARK    5  A    between atoms: C5_15  and  C6_16 
REMARK    6  A    between atoms: C14_24  and  C16_26 
REMARK    7  A    between atoms: C15_25  and  C17_27 
ROOT
HETATM    1  O1  UNK     1      18.676  -0.105  32.990  1.00  0.00    -0.303 OA
HETATM    2  O3  UNK     1      21.291  -3.194  32.582  1.00  0.00    -0.286 OA
HETATM    3  C6  UNK     1      19.010   0.547  30.747  1.00  0.00     0.038 A 
HETATM    4  C8  UNK     1      19.304  -0.321  31.793  1.00  0.00     0.101 A 
HETATM    5  C9  UNK     1      19.612   0.387  29.506  1.00  0.00     0.076 A 
HETATM    6  C10 UNK     1      20.207  -1.359  31.593  1.00  0.00     0.050 A 
HETATM    7  C11 UNK     1      20.518  -0.655  29.304  1.00  0.00     0.038 A 
HETATM    8  C12 UNK     1      20.818  -1.532  30.348  1.00  0.00     0.021 A 
HETATM    9  C13 UNK     1      20.502  -2.266  32.710  1.00  0.00     0.198 A 
HETATM   10  C14 UNK     1      19.795  -1.999  33.995  1.00  0.00     0.064 A 
HETATM   11  C15 UNK     1      18.942  -0.954  34.056  1.00  0.00     0.174 A 
ENDROOT
BRANCH  10  12
HETATM   12  C16 UNK     1      20.045  -2.865  35.139  1.00  0.00    -0.016 A 
HETATM   13  C18 UNK     1      19.560  -4.171  35.141  1.00  0.00     0.052 A 
HETATM   14  C20 UNK     1      19.800  -5.001  36.236  1.00  0.00     0.102 A 
HETATM   15  C22 UNK     1      20.524  -4.523  37.328  1.00  0.00     0.101 A 
HETATM   16  C21 UNK     1      21.008  -3.215  37.324  1.00  0.00     0.040 A 
HETATM   17  C19 UNK     1      20.768  -2.385  36.229  1.00  0.00     0.015 A 
BRANCH  14  18
HETATM   18  O4  UNK     1      19.320  -6.276  36.229  1.00  0.00    -0.353 OA
HETATM   19  C23 UNK     1      19.539  -7.045  35.049  1.00  0.00     0.210 C 
ENDBRANCH  14  18
BRANCH  15  20
HETATM   20  O5  UNK     1      20.763  -5.323  38.403  1.00  0.00    -0.353 OA
HETATM   21  C24 UNK     1      22.024  -5.990  38.448  1.00  0.00     0.210 C 
ENDBRANCH  15  20
ENDBRANCH  10  12
BRANCH  11  22
HETATM   22  C17 UNK     1      18.159  -0.560  35.278  1.00  0.00     0.440 C 
HETATM   23  F1  UNK     1      18.960   0.015  36.193  1.00  0.00    -0.164 F 
HETATM   24  F2  UNK     1      17.189   0.319  34.960  1.00  0.00    -0.164 F 
HETATM   25  F3  UNK     1      17.578  -1.635  35.845  1.00  0.00    -0.164 F 
ENDBRANCH  11  22
BRANCH   3  26
HETATM   26  C5  UNK     1      18.034   1.674  30.955  1.00  0.00     0.317 C 
BRANCH  26  27
HETATM   27  N1  UNK     1      18.687   2.870  31.483  1.00  0.00     0.096 N 
HETATM   28  C1  UNK     1      18.783   3.910  30.452  1.00  0.00     0.303 C 
HETATM   29  C3  UNK     1      19.465   5.165  31.004  1.00  0.00     0.302 C 
HETATM   30  N2  UNK     1      18.750   5.675  32.181  1.00  0.00     0.087 N 
HETATM   31  C4  UNK     1      18.653   4.635  33.212  1.00  0.00     0.302 C 
HETATM   32  C7  UNK     1      19.405   6.870  32.709  1.00  0.00     0.310 C 
HETATM   33  C2  UNK     1      17.969   3.380  32.659  1.00  0.00     0.303 C 
ENDBRANCH  26  27
ENDBRANCH   3  26
BRANCH   5  34
HETATM   34  O2  UNK     1      19.333   1.231  28.472  1.00  0.00    -0.360 OA
HETATM   35  H16 UNK     1      18.547   0.937  27.989  1.00  0.00     0.217 HD
ENDBRANCH   5  34
TORSDOF 7
ENDMDL
MODEL 2
REMARK VINA RESULT:      -8.5      5.914     10.315
REMARK  7 active torsions:
REMARK  status: ('A' for Active; 'I' for Inactive)
REMARK    1  A    between atoms: C9_19  and  O2_5 
REMARK    2  A    between atoms: C20_30  and  O4_7 
REMARK    3  A    between atoms: C22_32  and  O5_8 
REMARK    4  A    between atoms: C5_15  and  N1_9 
REMARK    5  A    between atoms: C5_15  and  C6_16 
REMARK    6  A    between atoms: C14_24  and  C16_26 
REMARK    7  A    between atoms: C15_25  and  C17_27 
ROOT
HETATM    1  O1  UNK     1      17.696   8.952  33.726  1.00  0.00    -0.303 OA
HETATM    2  O3  UNK     1      15.141   6.568  31.644  1.00  0.00    -0.286 OA
HETATM    3  C6  UNK     1      16.000  10.553  34.082  1.00  0.00     0.038 A 
HETATM    4  C8  UNK     1      16.396   9.336  33.538  1.00  0.00     0.101 A 
HETATM    5  C9  UNK     1      14.695  11.005  33.929  1.00  0.00     0.076 A 
HETATM    6  C10 UNK     1      15.476   8.564  32.836  1.00  0.00     0.050 A 
HETATM    7  C11 UNK     1      13.772  10.230  33.225  1.00  0.00     0.038 A 
HETATM    8  C12 UNK     1      14.161   9.007  32.676  1.00  0.00     0.021 A 
HETATM    9  C13 UNK     1      15.914   7.282  32.271  1.00  0.00     0.198 A 
HETATM   10  C14 UNK     1      17.337   6.898  32.501  1.00  0.00     0.064 A 
HETATM   11  C15 UNK     1      18.126   7.741  33.200  1.00  0.00     0.174 A 
ENDROOT
BRANCH  10  12
HETATM   12  C16 UNK     1      17.830   5.636  31.967  1.00  0.00    -0.016 A 
HETATM   13  C18 UNK     1      17.621   4.453  32.673  1.00  0.00     0.052 A 
HETATM   14  C20 UNK     1      18.092   3.244  32.161  1.00  0.00     0.102 A 
HETATM   15  C22 UNK     1      18.772   3.220  30.943  1.00  0.00     0.101 A 
HETATM   16  C21 UNK     1      18.981   4.406  30.238  1.00  0.00     0.040 A 
HETATM   17  C19 UNK     1      18.509   5.615  30.750  1.00  0.00     0.015 A 
BRANCH  14  18
HETATM   18  O4  UNK     1      17.886   2.094  32.860  1.00  0.00    -0.353 OA
HETATM   19  C23 UNK     1      18.243   2.100  34.241  1.00  0.00     0.210 C 
ENDBRANCH  14  18
BRANCH  15  20
HETATM   20  O5  UNK     1      19.238   2.047  30.434  1.00  0.00    -0.353 OA
HETATM   21  C24 UNK     1      18.558   1.517  29.298  1.00  0.00     0.210 C 
ENDBRANCH  15  20
ENDBRANCH  10  12
BRANCH  11  22
HETATM   22  C17 UNK     1      19.576   7.494  33.512  1.00  0.00     0.440 C 
HETATM   23  F1  UNK     1      19.712   6.455  34.357  1.00  0.00    -0.164 F 
HETATM   24  F2  UNK     1      20.265   7.212  32.389  1.00  0.00    -0.164 F 
HETATM   25  F3  UNK     1      20.137   8.576  34.084  1.00  0.00    -0.164 F 
ENDBRANCH  11  22
BRANCH   3  26
HETATM   26  C5  UNK     1      16.988  11.395  34.843  1.00  0.00     0.317 C 
BRANCH  26  27
HETATM   27  N1  UNK     1      17.326  12.623  34.125  1.00  0.00     0.096 N 
HETATM   28  C1  UNK     1      17.333  13.774  35.035  1.00  0.00     0.303 C 
HETATM   29  C3  UNK     1      17.688  15.061  34.284  1.00  0.00     0.302 C 
HETATM   30  N2  UNK     1      18.987  14.932  33.611  1.00  0.00     0.087 N 
HETATM   31  C4  UNK     1      18.981  13.780  32.702  1.00  0.00     0.302 C 
HETATM   32  C7  UNK     1      19.322  16.160  32.892  1.00  0.00     0.310 C 
HETATM   33  C2  UNK     1      18.625  12.493  33.454  1.00  0.00     0.303 C 
ENDBRANCH  26  27
ENDBRANCH   3  26
BRANCH   5  34
HETATM   34  O2  UNK     1      14.294  12.196  34.456  1.00  0.00    -0.360 OA
HETATM   35  H16 UNK     1      13.364  12.159  34.725  1.00  0.00     0.217 HD
ENDBRANCH   5  34
TORSDOF 7
ENDMDL
MODEL 3
REMARK VINA RESULT:      -8.4      5.881     10.284
REMARK  7 active torsions:
REMARK  status: ('A' for Active; 'I' for Inactive)
REMARK    1  A    between atoms: C9_19  and  O2_5 
REMARK    2  A    between atoms: C20_30  and  O4_7 
REMARK    3  A    between atoms: C22_32  and  O5_8 
REMARK    4  A    between atoms: C5_15  and  N1_9 
REMARK    5  A    between atoms: C5_15  and  C6_16 
REMARK    6  A    between atoms: C14_24  and  C16_26 
REMARK    7  A    between atoms: C15_25  and  C17_27 
ROOT
HETATM    1  O1  UNK     1      17.236   9.188  33.006  1.00  0.00    -0.303 OA
HETATM    2  O3  UNK     1      20.569   6.906  33.481  1.00  0.00    -0.286 OA
HETATM    3  C6  UNK     1      18.217  10.970  34.201  1.00  0.00     0.038 A 
HETATM    4  C8  UNK     1      18.314   9.680  33.689  1.00  0.00     0.101 A 
HETATM    5  C9  UNK     1      19.274  11.532  34.905  1.00  0.00     0.076 A 
HETATM    6  C10 UNK     1      19.481   8.949  33.884  1.00  0.00     0.050 A 
HETATM    7  C11 UNK     1      20.444  10.798  35.101  1.00  0.00     0.038 A 
HETATM    8  C12 UNK     1      20.551   9.504  34.590  1.00  0.00     0.021 A 
HETATM    9  C13 UNK     1      19.564   7.590  33.335  1.00  0.00     0.198 A 
HETATM   10  C14 UNK     1      18.369   7.091  32.594  1.00  0.00     0.064 A 
HETATM   11  C15 UNK     1      17.297   7.905  32.478  1.00  0.00     0.174 A 
ENDROOT
BRANCH  10  12
HETATM   12  C16 UNK     1      18.392   5.751  32.023  1.00  0.00    -0.016 A 
HETATM   13  C18 UNK     1      17.980   4.662  32.789  1.00  0.00     0.052 A 
HETATM   14  C20 UNK     1      18.000   3.380  32.243  1.00  0.00     0.102 A 
HETATM   15  C22 UNK     1      18.433   3.187  30.931  1.00  0.00     0.101 A 
HETATM   16  C21 UNK     1      18.845   4.279  30.166  1.00  0.00     0.040 A 
HETATM   17  C19 UNK     1      18.825   5.562  30.713  1.00  0.00     0.015 A 
BRANCH  14  18
HETATM   18  O4  UNK     1      17.598   2.321  33.000  1.00  0.00    -0.353 OA
HETATM   19  C23 UNK     1      18.273   2.116  34.239  1.00  0.00     0.210 C 
ENDBRANCH  14  18
BRANCH  15  20
HETATM   20  O5  UNK     1      18.458   1.940  30.387  1.00  0.00    -0.353 OA
HETATM   21  C24 UNK     1      18.137   1.829  29.001  1.00  0.00     0.210 C 
ENDBRANCH  15  20
ENDBRANCH  10  12
BRANCH  11  22
HETATM   22  C17 UNK     1      16.024   7.545  31.763  1.00  0.00     0.440 C 
HETATM   23  F1  UNK     1      15.078   8.478  31.977  1.00  0.00    -0.164 F 
HETATM   24  F2  UNK     1      16.231   7.456  30.435  1.00  0.00    -0.164 F 
HETATM   25  F3  UNK     1      15.550   6.360  32.192  1.00  0.00    -0.164 F 
ENDBRANCH  11  22
BRANCH   3  26
HETATM   26  C5  UNK     1      16.958  11.769  33.995  1.00  0.00     0.317 C 
BRANCH  26  27
HETATM   27  N1  UNK     1      16.102  11.751  35.179  1.00  0.00     0.096 N 
HETATM   28  C1  UNK     1      15.717  13.115  35.565  1.00  0.00     0.303 C 
HETATM   29  C3  UNK     1      14.819  13.098  36.805  1.00  0.00     0.302 C 
HETATM   30  N2  UNK     1      13.624  12.275  36.574  1.00  0.00     0.087 N 
HETATM   31  C4  UNK     1      14.008  10.912  36.187  1.00  0.00     0.302 C 
HETATM   32  C7  UNK     1      12.770  12.257  37.760  1.00  0.00     0.310 C 
HETATM   33  C2  UNK     1      14.907  10.929  34.947  1.00  0.00     0.303 C 
ENDBRANCH  26  27
ENDBRANCH   3  26
BRANCH   5  34
HETATM   34  O2  UNK     1      19.191  12.795  35.413  1.00  0.00    -0.360 OA
HETATM   35  H16 UNK     1      19.052  13.443  34.705  1.00  0.00     0.217 HD
ENDBRANCH   5  34
TORSDOF 7
ENDMDL
MODEL 4
REMARK VINA RESULT:      -8.0     10.913     13.371
REMARK  7 active torsions:
REMARK  status: ('A' for Active; 'I' for Inactive)
REMARK    1  A    between atoms: C9_19  and  O2_5 
REMARK    2  A    between atoms: C20_30  and  O4_7 
REMARK    3  A    between atoms: C22_32  and  O5_8 
REMARK    4  A    between atoms: C5_15  and  N1_9 
REMARK    5  A    between atoms: C5_15  and  C6_16 
REMARK    6  A    between atoms: C14_24  and  C16_26 
REMARK    7  A    between atoms: C15_25  and  C17_27 
ROOT
HETATM    1  O1  UNK     1      28.496  -8.109  38.538  1.00  0.00    -0.303 OA
HETATM    2  O3  UNK     1      25.647  -5.207  38.640  1.00  0.00    -0.286 OA
HETATM    3  C6  UNK     1      30.219  -6.496  38.545  1.00  0.00     0.038 A 
HETATM    4  C8  UNK     1      28.859  -6.790  38.560  1.00  0.00     0.101 A 
HETATM    5  C9  UNK     1      30.658  -5.179  38.565  1.00  0.00     0.076 A 
HETATM    6  C10 UNK     1      27.932  -5.754  38.595  1.00  0.00     0.050 A 
HETATM    7  C11 UNK     1      29.727  -4.139  38.600  1.00  0.00     0.038 A 
HETATM    8  C12 UNK     1      28.361  -4.424  38.615  1.00  0.00     0.021 A 
HETATM    9  C13 UNK     1      26.502  -6.085  38.610  1.00  0.00     0.198 A 
HETATM   10  C14 UNK     1      26.148  -7.533  38.590  1.00  0.00     0.064 A 
HETATM   11  C15 UNK     1      27.148  -8.440  38.555  1.00  0.00     0.174 A 
ENDROOT
BRANCH  10  12
HETATM   12  C16 UNK     1      24.745  -7.925  38.606  1.00  0.00    -0.016 A 
HETATM   13  C18 UNK     1      24.123  -8.330  37.427  1.00  0.00     0.052 A 
HETATM   14  C20 UNK     1      22.780  -8.707  37.443  1.00  0.00     0.102 A 
HETATM   15  C22 UNK     1      22.061  -8.677  38.639  1.00  0.00     0.101 A 
HETATM   16  C21 UNK     1      22.687  -8.271  39.818  1.00  0.00     0.040 A 
HETATM   17  C19 UNK     1      24.030  -7.894  39.802  1.00  0.00     0.015 A 
BRANCH  14  18
HETATM   18  O4  UNK     1      22.179  -9.099  36.285  1.00  0.00    -0.353 OA
HETATM   19  C23 UNK     1      22.535 -10.380  35.772  1.00  0.00     0.210 C 
ENDBRANCH  14  18
BRANCH  15  20
HETATM   20  O5  UNK     1      20.750  -9.041  38.666  1.00  0.00    -0.353 OA
HETATM   21  C24 UNK     1      19.823  -8.088  39.183  1.00  0.00     0.210 C 
ENDBRANCH  15  20
ENDBRANCH  10  12
BRANCH  11  22
HETATM   22  C17 UNK     1      26.950  -9.931  38.530  1.00  0.00     0.440 C 
HETATM   23  F1  UNK     1      26.332 -10.311  37.397  1.00  0.00    -0.164 F 
HETATM   24  F2  UNK     1      28.134 -10.571  38.597  1.00  0.00    -0.164 F 
HETATM   25  F3  UNK     1      26.199 -10.333  39.573  1.00  0.00    -0.164 F 
ENDBRANCH  11  22
BRANCH   3  26
HETATM   26  C5  UNK     1      31.230  -7.611  38.507  1.00  0.00     0.317 C 
BRANCH  26  27
HETATM   27  N1  UNK     1      31.549  -8.010  37.138  1.00  0.00     0.096 N 
HETATM   28  C1  UNK     1      32.982  -7.842  36.867  1.00  0.00     0.303 C 
HETATM   29  C3  UNK     1      33.318  -8.262  35.433  1.00  0.00     0.302 C 
HETATM   30  N2  UNK     1      32.909  -9.650  35.184  1.00  0.00     0.087 N 
HETATM   31  C4  UNK     1      31.477  -9.819  35.457  1.00  0.00     0.302 C 
HETATM   32  C7  UNK     1      33.228 -10.048  33.814  1.00  0.00     0.310 C 
HETATM   33  C2  UNK     1      31.141  -9.399  36.892  1.00  0.00     0.303 C 
ENDBRANCH  26  27
ENDBRANCH   3  26
BRANCH   5  34
HETATM   34  O2  UNK     1      31.987  -4.878  38.551  1.00  0.00    -0.360 OA
HETATM   35  H16 UNK     1      32.522  -5.667  38.725  1.00  0.00     0.217 HD
ENDBRANCH   5  34
TORSDOF 7
ENDMDL
MODEL 5
REMARK VINA RESULT:      -7.8     13.059     16.245
REMARK  7 active torsions:
REMARK  status: ('A' for Active; 'I' for Inactive)
REMARK    1  A    between atoms: C9_19  and  O2_5 
REMARK    2  A    between atoms: C20_30  and  O4_7 
REMARK    3  A    between atoms: C22_32  and  O5_8 
REMARK    4  A    between atoms: C5_15  and  N1_9 
REMARK    5  A    between atoms: C5_15  and  C6_16 
REMARK    6  A    between atoms: C14_24  and  C16_26 
REMARK    7  A    between atoms: C15_25  and  C17_27 
ROOT
HETATM    1  O1  UNK     1      31.353  -7.430  34.664  1.00  0.00    -0.303 OA
HETATM    2  O3  UNK     1      35.052  -5.783  34.272  1.00  0.00    -0.286 OA
HETATM    3  C6  UNK     1      30.646  -5.651  36.043  1.00  0.00     0.038 A 
HETATM    4  C8  UNK     1      31.649  -6.248  35.287  1.00  0.00     0.101 A 
HETATM    5  C9  UNK     1      30.877  -4.451  36.703  1.00  0.00     0.076 A 
HETATM    6  C10 UNK     1      32.894  -5.637  35.190  1.00  0.00     0.050 A 
HETATM    7  C11 UNK     1      32.126  -3.837  36.606  1.00  0.00     0.038 A 
HETATM    8  C12 UNK     1      33.139  -4.429  35.849  1.00  0.00     0.021 A 
HETATM    9  C13 UNK     1      33.939  -6.282  34.387  1.00  0.00     0.198 A 
HETATM   10  C14 UNK     1      33.576  -7.566  33.721  1.00  0.00     0.064 A 
HETATM   11  C15 UNK     1      32.329  -8.054  33.898  1.00  0.00     0.174 A 
ENDROOT
BRANCH  10  12
HETATM   12  C16 UNK     1      34.570  -8.254  32.908  1.00  0.00    -0.016 A 
HETATM   13  C18 UNK     1      34.691  -7.949  31.553  1.00  0.00     0.052 A 
HETATM   14  C20 UNK     1      35.644  -8.606  30.775  1.00  0.00     0.102 A 
HETATM   15  C22 UNK     1      36.473  -9.568  31.351  1.00  0.00     0.101 A 
HETATM   16  C21 UNK     1      36.349  -9.872  32.707  1.00  0.00     0.040 A 
HETATM   17  C19 UNK     1      35.396  -9.215  33.486  1.00  0.00     0.015 A 
BRANCH  14  18
HETATM   18  O4  UNK     1      35.753  -8.302  29.451  1.00  0.00    -0.353 OA
HETATM   19  C23 UNK     1      34.797  -7.391  28.913  1.00  0.00     0.210 C 
ENDBRANCH  14  18
BRANCH  15  20
HETATM   20  O5  UNK     1      37.405 -10.217  30.601  1.00  0.00    -0.353 OA
HETATM   21  C24 UNK     1      38.518 -10.780  31.294  1.00  0.00     0.210 C 
ENDBRANCH  15  20
ENDBRANCH  10  12
BRANCH  11  22
HETATM   22  C17 UNK     1      31.817  -9.332  33.294  1.00  0.00     0.440 C 
HETATM   23  F1  UNK     1      32.548 -10.382  33.710  1.00  0.00    -0.164 F 
HETATM   24  F2  UNK     1      30.535  -9.548  33.649  1.00  0.00    -0.164 F 
HETATM   25  F3  UNK     1      31.875  -9.286  31.949  1.00  0.00    -0.164 F 
ENDBRANCH  11  22
BRANCH   3  26
HETATM   26  C5  UNK     1      29.295  -6.306  36.153  1.00  0.00     0.317 C 
BRANCH  26  27
HETATM   27  N1  UNK     1      29.190  -7.141  37.348  1.00  0.00     0.096 N 
HETATM   28  C1  UNK     1      27.981  -6.810  38.111  1.00  0.00     0.303 C 
HETATM   29  C3  UNK     1      27.869  -7.685  39.363  1.00  0.00     0.302 C 
HETATM   30  N2  UNK     1      27.875  -9.110  39.007  1.00  0.00     0.087 N 
HETATM   31  C4  UNK     1      29.084  -9.442  38.243  1.00  0.00     0.302 C 
HETATM   32  C7  UNK     1      27.772  -9.944  40.204  1.00  0.00     0.310 C 
HETATM   33  C2  UNK     1      29.195  -8.565  36.991  1.00  0.00     0.303 C 
ENDBRANCH  26  27
ENDBRANCH   3  26
BRANCH   5  34
HETATM   34  O2  UNK     1      29.903  -3.856  37.448  1.00  0.00    -0.360 OA
HETATM   35  H16 UNK     1      29.364  -3.264  36.902  1.00  0.00     0.217 HD
ENDBRANCH   5  34
TORSDOF 7
ENDMDL
MODEL 6
REMARK VINA RESULT:      -7.8     12.367     15.508
REMARK  7 active torsions:
REMARK  status: ('A' for Active; 'I' for Inactive)
REMARK    1  A    between atoms: C9_19  and  O2_5 
REMARK    2  A    between atoms: C20_30  and  O4_7 
REMARK    3  A    between atoms: C22_32  and  O5_8 
REMARK    4  A    between atoms: C5_15  and  N1_9 
REMARK    5  A    between atoms: C5_15  and  C6_16 
REMARK    6  A    between atoms: C14_24  and  C16_26 
REMARK    7  A    between atoms: C15_25  and  C17_27 
ROOT
HETATM    1  O1  UNK     1      30.880  -7.696  36.405  1.00  0.00    -0.303 OA
HETATM    2  O3  UNK     1      32.640  -4.456  34.687  1.00  0.00    -0.286 OA
HETATM    3  C6  UNK     1      29.799  -6.334  37.999  1.00  0.00     0.038 A 
HETATM    4  C8  UNK     1      30.647  -6.443  36.903  1.00  0.00     0.101 A 
HETATM    5  C9  UNK     1      29.519  -5.092  38.556  1.00  0.00     0.076 A 
HETATM    6  C10 UNK     1      31.219  -5.298  36.359  1.00  0.00     0.050 A 
HETATM    7  C11 UNK     1      30.093  -3.944  38.010  1.00  0.00     0.038 A 
HETATM    8  C12 UNK     1      30.945  -4.043  36.909  1.00  0.00     0.021 A 
HETATM    9  C13 UNK     1      32.112  -5.435  35.201  1.00  0.00     0.198 A 
HETATM   10  C14 UNK     1      32.336  -6.816  34.686  1.00  0.00     0.064 A 
HETATM   11  C15 UNK     1      31.719  -7.844  35.308  1.00  0.00     0.174 A 
ENDROOT
BRANCH  10  12
HETATM   12  C16 UNK     1      33.209  -7.016  33.538  1.00  0.00    -0.016 A 
HETATM   13  C18 UNK     1      34.592  -7.021  33.708  1.00  0.00     0.052 A 
HETATM   14  C20 UNK     1      35.428  -7.214  32.609  1.00  0.00     0.102 A 
HETATM   15  C22 UNK     1      34.880  -7.402  31.340  1.00  0.00     0.101 A 
HETATM   16  C21 UNK     1      33.495  -7.396  31.172  1.00  0.00     0.040 A 
HETATM   17  C19 UNK     1      32.659  -7.203  32.271  1.00  0.00     0.015 A 
BRANCH  14  18
HETATM   18  O4  UNK     1      36.779  -7.214  32.785  1.00  0.00    -0.353 OA
HETATM   19  C23 UNK     1      37.263  -7.543  34.085  1.00  0.00     0.210 C 
ENDBRANCH  14  18
BRANCH  15  20
HETATM   20  O5  UNK     1      35.686  -7.590  30.259  1.00  0.00    -0.353 OA
HETATM   21  C24 UNK     1      35.099  -7.406  28.972  1.00  0.00     0.210 C 
ENDBRANCH  15  20
ENDBRANCH  10  12
BRANCH  11  22
HETATM   22  C17 UNK     1      31.847  -9.287  34.908  1.00  0.00     0.440 C 
HETATM   23  F1  UNK     1      31.273  -9.502  33.709  1.00  0.00    -0.164 F 
HETATM   24  F2  UNK     1      33.143  -9.646  34.822  1.00  0.00    -0.164 F 
HETATM   25  F3  UNK     1      31.251 -10.091  35.808  1.00  0.00    -0.164 F 
ENDBRANCH  11  22
BRANCH   3  26
HETATM   26  C5  UNK     1      29.174  -7.568  38.594  1.00  0.00     0.317 C 
BRANCH  26  27
HETATM   27  N1  UNK     1      27.996  -7.997  37.845  1.00  0.00     0.096 N 
HETATM   28  C1  UNK     1      28.241  -9.283  37.179  1.00  0.00     0.303 C 
HETATM   29  C3  UNK     1      27.006  -9.735  36.395  1.00  0.00     0.302 C 
HETATM   30  N2  UNK     1      25.833  -9.829  37.274  1.00  0.00     0.087 N 
HETATM   31  C4  UNK     1      25.589  -8.545  37.940  1.00  0.00     0.302 C 
HETATM   32  C7  UNK     1      24.655 -10.258  36.522  1.00  0.00     0.310 C 
HETATM   33  C2  UNK     1      26.825  -8.093  38.725  1.00  0.00     0.303 C 
ENDBRANCH  26  27
ENDBRANCH   3  26
BRANCH   5  34
HETATM   34  O2  UNK     1      28.690  -4.972  39.631  1.00  0.00    -0.360 OA
HETATM   35  H16 UNK     1      29.194  -4.786  40.437  1.00  0.00     0.217 HD
ENDBRANCH   5  34
TORSDOF 7
ENDMDL
MODEL 7
REMARK VINA RESULT:      -7.8     26.005     27.869
REMARK  7 active torsions:
REMARK  status: ('A' for Active; 'I' for Inactive)
REMARK    1  A    between atoms: C9_19  and  O2_5 
REMARK    2  A    between atoms: C20_30  and  O4_7 
REMARK    3  A    between atoms: C22_32  and  O5_8 
REMARK    4  A    between atoms: C5_15  and  N1_9 
REMARK    5  A    between atoms: C5_15  and  C6_16 
REMARK    6  A    between atoms: C14_24  and  C16_26 
REMARK    7  A    between atoms: C15_25  and  C17_27 
ROOT
HETATM    1  O1  UNK     1      10.927   8.250   9.474  1.00  0.00    -0.303 OA
HETATM    2  O3  UNK     1      13.792   7.368   6.724  1.00  0.00    -0.286 OA
HETATM    3  C6  UNK     1       9.307   7.042   8.257  1.00  0.00     0.038 A 
HETATM    4  C8  UNK     1      10.618   7.489   8.380  1.00  0.00     0.101 A 
HETATM    5  C9  UNK     1       8.924   6.265   7.171  1.00  0.00     0.076 A 
HETATM    6  C10 UNK     1      11.554   7.154   7.407  1.00  0.00     0.050 A 
HETATM    7  C11 UNK     1       9.863   5.929   6.194  1.00  0.00     0.038 A 
HETATM    8  C12 UNK     1      11.181   6.373   6.310  1.00  0.00     0.021 A 
HETATM    9  C13 UNK     1      12.933   7.636   7.556  1.00  0.00     0.198 A 
HETATM   10  C14 UNK     1      13.229   8.459   8.763  1.00  0.00     0.064 A 
HETATM   11  C15 UNK     1      12.227   8.712   9.632  1.00  0.00     0.174 A 
ENDROOT
BRANCH  10  12
HETATM   12  C16 UNK     1      14.580   8.963   8.968  1.00  0.00    -0.016 A 
HETATM   13  C18 UNK     1      14.995  10.124   8.318  1.00  0.00     0.052 A 
HETATM   14  C20 UNK     1      16.288  10.608   8.515  1.00  0.00     0.102 A 
HETATM   15  C22 UNK     1      17.165   9.930   9.362  1.00  0.00     0.101 A 
HETATM   16  C21 UNK     1      16.747   8.768  10.012  1.00  0.00     0.040 A 
HETATM   17  C19 UNK     1      15.454   8.284   9.815  1.00  0.00     0.015 A 
BRANCH  14  18
HETATM   18  O4  UNK     1      16.686  11.741   7.873  1.00  0.00    -0.353 OA
HETATM   19  C23 UNK     1      15.673  12.691   7.547  1.00  0.00     0.210 C 
ENDBRANCH  14  18
BRANCH  15  20
HETATM   20  O5  UNK     1      18.430  10.392   9.562  1.00  0.00    -0.353 OA
HETATM   21  C24 UNK     1      18.577  11.540  10.396  1.00  0.00     0.210 C 
ENDBRANCH  15  20
ENDBRANCH  10  12
BRANCH  11  22
HETATM   22  C17 UNK     1      12.371   9.524  10.890  1.00  0.00     0.440 C 
HETATM   23  F1  UNK     1      11.167   9.758  11.446  1.00  0.00    -0.164 F 
HETATM   24  F2  UNK     1      13.130   8.874  11.794  1.00  0.00    -0.164 F 
HETATM   25  F3  UNK     1      12.952  10.711  10.633  1.00  0.00    -0.164 F 
ENDBRANCH  11  22
BRANCH   3  26
HETATM   26  C5  UNK     1       8.288   7.399   9.305  1.00  0.00     0.317 C 
BRANCH  26  27
HETATM   27  N1  UNK     1       7.437   6.261   9.648  1.00  0.00     0.096 N 
HETATM   28  C1  UNK     1       8.220   5.199  10.290  1.00  0.00     0.303 C 
HETATM   29  C3  UNK     1       7.329   4.007  10.651  1.00  0.00     0.302 C 
HETATM   30  N2  UNK     1       6.223   4.425  11.521  1.00  0.00     0.087 N 
HETATM   31  C4  UNK     1       5.440   5.488  10.879  1.00  0.00     0.302 C 
HETATM   32  C7  UNK     1       5.372   3.286  11.861  1.00  0.00     0.310 C 
HETATM   33  C2  UNK     1       6.332   6.681  10.519  1.00  0.00     0.303 C 
ENDBRANCH  26  27
ENDBRANCH   3  26
BRANCH   5  34
HETATM   34  O2  UNK     1       7.643   5.821   7.038  1.00  0.00    -0.360 OA
HETATM   35  H16 UNK     1       7.190   6.284   6.317  1.00  0.00     0.217 HD
ENDBRANCH   5  34
TORSDOF 7
ENDMDL
MODEL 8
REMARK VINA RESULT:      -7.7     12.779     15.272
REMARK  7 active torsions:
REMARK  status: ('A' for Active; 'I' for Inactive)
REMARK    1  A    between atoms: C9_19  and  O2_5 
REMARK    2  A    between atoms: C20_30  and  O4_7 
REMARK    3  A    between atoms: C22_32  and  O5_8 
REMARK    4  A    between atoms: C5_15  and  N1_9 
REMARK    5  A    between atoms: C5_15  and  C6_16 
REMARK    6  A    between atoms: C14_24  and  C16_26 
REMARK    7  A    between atoms: C15_25  and  C17_27 
ROOT
HETATM    1  O1  UNK     1      32.705  -6.845  32.051  1.00  0.00    -0.303 OA
HETATM    2  O3  UNK     1      34.678  -7.432  35.559  1.00  0.00    -0.286 OA
HETATM    3  C6  UNK     1      34.399  -7.961  30.846  1.00  0.00     0.038 A 
HETATM    4  C8  UNK     1      33.902  -7.508  32.063  1.00  0.00     0.101 A 
HETATM    5  C9  UNK     1      35.609  -8.641  30.786  1.00  0.00     0.076 A 
HETATM    6  C10 UNK     1      34.622  -7.739  33.230  1.00  0.00     0.050 A 
HETATM    7  C11 UNK     1      36.332  -8.873  31.957  1.00  0.00     0.038 A 
HETATM    8  C12 UNK     1      35.840  -8.423  33.183  1.00  0.00     0.021 A 
HETATM    9  C13 UNK     1      34.079  -7.254  34.505  1.00  0.00     0.198 A 
HETATM   10  C14 UNK     1      32.772  -6.540  34.449  1.00  0.00     0.064 A 
HETATM   11  C15 UNK     1      32.175  -6.381  33.247  1.00  0.00     0.174 A 
ENDROOT
BRANCH  10  12
HETATM   12  C16 UNK     1      32.180  -6.037  35.681  1.00  0.00    -0.016 A 
HETATM   13  C18 UNK     1      31.447  -6.893  36.500  1.00  0.00     0.052 A 
HETATM   14  C20 UNK     1      30.881  -6.412  37.681  1.00  0.00     0.102 A 
HETATM   15  C22 UNK     1      31.050  -5.075  38.041  1.00  0.00     0.101 A 
HETATM   16  C21 UNK     1      31.784  -4.219  37.218  1.00  0.00     0.040 A 
HETATM   17  C19 UNK     1      32.349  -4.701  36.038  1.00  0.00     0.015 A 
BRANCH  14  18
HETATM   18  O4  UNK     1      30.164  -7.256  38.474  1.00  0.00    -0.353 OA
HETATM   19  C23 UNK     1      28.896  -7.685  37.985  1.00  0.00     0.210 C 
ENDBRANCH  14  18
BRANCH  15  20
HETATM   20  O5  UNK     1      30.502  -4.593  39.190  1.00  0.00    -0.353 OA
HETATM   21  C24 UNK     1      29.193  -4.032  39.100  1.00  0.00     0.210 C 
ENDBRANCH  15  20
ENDBRANCH  10  12
BRANCH  11  22
HETATM   22  C17 UNK     1      30.860  -5.686  33.031  1.00  0.00     0.440 C 
HETATM   23  F1  UNK     1      29.947  -6.102  33.928  1.00  0.00    -0.164 F 
HETATM   24  F2  UNK     1      30.998  -4.352  33.162  1.00  0.00    -0.164 F 
HETATM   25  F3  UNK     1      30.380  -5.937  31.798  1.00  0.00    -0.164 F 
ENDBRANCH  11  22
BRANCH   3  26
HETATM   26  C5  UNK     1      33.626  -7.715  29.578  1.00  0.00     0.317 C 
BRANCH  26  27
HETATM   27  N1  UNK     1      32.286  -8.296  29.636  1.00  0.00     0.096 N 
HETATM   28  C1  UNK     1      31.347  -7.524  28.814  1.00  0.00     0.303 C 
HETATM   29  C3  UNK     1      29.943  -8.133  28.872  1.00  0.00     0.302 C 
HETATM   30  N2  UNK     1      29.963  -9.537  28.444  1.00  0.00     0.087 N 
HETATM   31  C4  UNK     1      30.903 -10.310  29.265  1.00  0.00     0.302 C 
HETATM   32  C7  UNK     1      28.623 -10.117  28.504  1.00  0.00     0.310 C 
HETATM   33  C2  UNK     1      32.308  -9.700  29.206  1.00  0.00     0.303 C 
ENDBRANCH  26  27
ENDBRANCH   3  26
BRANCH   5  34
HETATM   34  O2  UNK     1      36.108  -9.090  29.600  1.00  0.00    -0.360 OA
HETATM   35  H16 UNK     1      37.037  -9.349  29.692  1.00  0.00     0.217 HD
ENDBRANCH   5  34
TORSDOF 7
ENDMDL
MODEL 9
REMARK VINA RESULT:      -7.6     11.580     14.473
REMARK  7 active torsions:
REMARK  status: ('A' for Active; 'I' for Inactive)
REMARK    1  A    between atoms: C9_19  and  O2_5 
REMARK    2  A    between atoms: C20_30  and  O4_7 
REMARK    3  A    between atoms: C22_32  and  O5_8 
REMARK    4  A    between atoms: C5_15  and  N1_9 
REMARK    5  A    between atoms: C5_15  and  C6_16 
REMARK    6  A    between atoms: C14_24  and  C16_26 
REMARK    7  A    between atoms: C15_25  and  C17_27 
ROOT
HETATM    1  O1  UNK     1      30.180  -6.050  35.083  1.00  0.00    -0.303 OA
HETATM    2  O3  UNK     1      33.553  -7.360  33.225  1.00  0.00    -0.286 OA
HETATM    3  C6  UNK     1      31.401  -5.474  37.017  1.00  0.00     0.038 A 
HETATM    4  C8  UNK     1      31.386  -5.992  35.726  1.00  0.00     0.101 A 
HETATM    5  C9  UNK     1      32.591  -5.386  37.729  1.00  0.00     0.076 A 
HETATM    6  C10 UNK     1      32.572  -6.424  35.144  1.00  0.00     0.050 A 
HETATM    7  C11 UNK     1      33.781  -5.820  37.144  1.00  0.00     0.038 A 
HETATM    8  C12 UNK     1      33.776  -6.340  35.849  1.00  0.00     0.021 A 
HETATM    9  C13 UNK     1      32.535  -6.966  33.780  1.00  0.00     0.198 A 
HETATM   10  C14 UNK     1      31.202  -7.009  33.112  1.00  0.00     0.064 A 
HETATM   11  C15 UNK     1      30.126  -6.558  33.791  1.00  0.00     0.174 A 
ENDROOT
BRANCH  10  12
HETATM   12  C16 UNK     1      31.100  -7.534  31.757  1.00  0.00    -0.016 A 
HETATM   13  C18 UNK     1      31.087  -8.911  31.544  1.00  0.00     0.052 A 
HETATM   14  C20 UNK     1      30.988  -9.414  30.247  1.00  0.00     0.102 A 
HETATM   15  C22 UNK     1      30.903  -8.538  29.164  1.00  0.00     0.101 A 
HETATM   16  C21 UNK     1      30.918  -7.160  29.380  1.00  0.00     0.040 A 
HETATM   17  C19 UNK     1      31.017  -6.657  30.677  1.00  0.00     0.015 A 
BRANCH  14  18
HETATM   18  O4  UNK     1      30.978 -10.762  30.048  1.00  0.00    -0.353 OA
HETATM   19  C23 UNK     1      30.505 -11.571  31.122  1.00  0.00     0.210 C 
ENDBRANCH  14  18
BRANCH  15  20
HETATM   20  O5  UNK     1      30.808  -9.017  27.893  1.00  0.00    -0.353 OA
HETATM   21  C24 UNK     1      29.674  -9.827  27.589  1.00  0.00     0.210 C 
ENDBRANCH  15  20
ENDBRANCH  10  12
BRANCH  11  22
HETATM   22  C17 UNK     1      28.722  -6.538  33.253  1.00  0.00     0.440 C 
HETATM   23  F1  UNK     1      28.403  -7.726  32.708  1.00  0.00    -0.164 F 
HETATM   24  F2  UNK     1      27.837  -6.277  34.236  1.00  0.00    -0.164 F 
HETATM   25  F3  UNK     1      28.583  -5.591  32.306  1.00  0.00    -0.164 F 
ENDBRANCH  11  22
BRANCH   3  26
HETATM   26  C5  UNK     1      30.122  -5.004  37.656  1.00  0.00     0.317 C 
BRANCH  26  27
HETATM   27  N1  UNK     1      29.142  -6.083  37.769  1.00  0.00     0.096 N 
HETATM   28  C1  UNK     1      29.718  -7.238  38.467  1.00  0.00     0.303 C 
HETATM   29  C3  UNK     1      28.692  -8.369  38.589  1.00  0.00     0.302 C 
HETATM   30  N2  UNK     1      27.481  -7.905  39.280  1.00  0.00     0.087 N 
HETATM   31  C4  UNK     1      26.906  -6.748  38.583  1.00  0.00     0.302 C 
HETATM   32  C7  UNK     1      26.502  -8.984  39.391  1.00  0.00     0.310 C 
HETATM   33  C2  UNK     1      27.933  -5.618  38.461  1.00  0.00     0.303 C 
ENDBRANCH  26  27
ENDBRANCH   3  26
BRANCH   5  34
HETATM   34  O2  UNK     1      32.619  -4.882  38.995  1.00  0.00    -0.360 OA
HETATM   35  H16 UNK     1      33.485  -4.494  39.193  1.00  0.00     0.217 HD
ENDBRANCH   5  34
TORSDOF 7
ENDMDL
MODEL 10
REMARK VINA RESULT:      -7.4     12.190     15.424
REMARK  7 active torsions:
REMARK  status: ('A' for Active; 'I' for Inactive)
REMARK    1  A    between atoms: C9_19  and  O2_5 
REMARK    2  A    between atoms: C20_30  and  O4_7 
REMARK    3  A    between atoms: C22_32  and  O5_8 
REMARK    4  A    between atoms: C5_15  and  N1_9 
REMARK    5  A    between atoms: C5_15  and  C6_16 
REMARK    6  A    between atoms: C14_24  and  C16_26 
REMARK    7  A    between atoms: C15_25  and  C17_27 
ROOT
HETATM    1  O1  UNK     1      31.506  -8.082  35.297  1.00  0.00    -0.303 OA
HETATM    2  O3  UNK     1      34.026  -6.887  32.335  1.00  0.00    -0.286 OA
HETATM    3  C6  UNK     1      32.773  -6.927  36.917  1.00  0.00     0.038 A 
HETATM    4  C8  UNK     1      32.585  -7.292  35.589  1.00  0.00     0.101 A 
HETATM    5  C9  UNK     1      33.848  -6.127  37.285  1.00  0.00     0.076 A 
HETATM    6  C10 UNK     1      33.481  -6.852  34.621  1.00  0.00     0.050 A 
HETATM    7  C11 UNK     1      34.747  -5.685  36.313  1.00  0.00     0.038 A 
HETATM    8  C12 UNK     1      34.566  -6.047  34.978  1.00  0.00     0.021 A 
HETATM    9  C13 UNK     1      33.264  -7.249  33.223  1.00  0.00     0.198 A 
HETATM   10  C14 UNK     1      32.076  -8.106  32.946  1.00  0.00     0.064 A 
HETATM   11  C15 UNK     1      31.284  -8.465  33.980  1.00  0.00     0.174 A 
ENDROOT
BRANCH  10  12
HETATM   12  C16 UNK     1      31.806  -8.530  31.579  1.00  0.00    -0.016 A 
HETATM   13  C18 UNK     1      32.378  -9.702  31.089  1.00  0.00     0.052 A 
HETATM   14  C20 UNK     1      32.119 -10.108  29.780  1.00  0.00     0.102 A 
HETATM   15  C22 UNK     1      31.287  -9.342  28.964  1.00  0.00     0.101 A 
HETATM   16  C21 UNK     1      30.715  -8.169  29.457  1.00  0.00     0.040 A 
HETATM   17  C19 UNK     1      30.975  -7.762  30.765  1.00  0.00     0.015 A 
BRANCH  14  18
HETATM   18  O4  UNK     1      32.685 -11.254  29.309  1.00  0.00    -0.353 OA
HETATM   19  C23 UNK     1      33.417 -12.047  30.241  1.00  0.00     0.210 C 
ENDBRANCH  14  18
BRANCH  15  20
HETATM   20  O5  UNK     1      31.027  -9.728  27.684  1.00  0.00    -0.353 OA
HETATM   21  C24 UNK     1      29.685 -10.104  27.380  1.00  0.00     0.210 C 
ENDBRANCH  15  20
ENDBRANCH  10  12
BRANCH  11  22
HETATM   22  C17 UNK     1      30.056  -9.323  33.859  1.00  0.00     0.440 C 
HETATM   23  F1  UNK     1      30.364 -10.527  33.344  1.00  0.00    -0.164 F 
HETATM   24  F2  UNK     1      29.488  -9.516  35.066  1.00  0.00    -0.164 F 
HETATM   25  F3  UNK     1      29.142  -8.744  33.056  1.00  0.00    -0.164 F 
ENDBRANCH  11  22
BRANCH   3  26
HETATM   26  C5  UNK     1      31.809  -7.399  37.973  1.00  0.00     0.317 C 
BRANCH  26  27
HETATM   27  N1  UNK     1      30.490  -6.789  37.816  1.00  0.00     0.096 N 
HETATM   28  C1  UNK     1      29.431  -7.733  38.195  1.00  0.00     0.303 C 
HETATM   29  C3  UNK     1      28.048  -7.095  38.033  1.00  0.00     0.302 C 
HETATM   30  N2  UNK     1      27.944  -5.863  38.826  1.00  0.00     0.087 N 
HETATM   31  C4  UNK     1      29.003  -4.920  38.449  1.00  0.00     0.302 C 
HETATM   32  C7  UNK     1      26.625  -5.254  38.667  1.00  0.00     0.310 C 
HETATM   33  C2  UNK     1      30.387  -5.559  38.611  1.00  0.00     0.303 C 
ENDBRANCH  26  27
ENDBRANCH   3  26
BRANCH   5  34
HETATM   34  O2  UNK     1      34.044  -5.762  38.584  1.00  0.00    -0.360 OA
HETATM   35  H16 UNK     1      34.933  -6.008  38.881  1.00  0.00     0.217 HD
ENDBRANCH   5  34
TORSDOF 7
ENDMDL
