MODEL 1
REMARK VINA RESULT:      -8.2      0.000      0.000
REMARK  2 active torsions:
REMARK  status: ('A' for Active; 'I' for Inactive)
REMARK    1  A    between atoms: C8_14  and  N1_5 
REMARK    2  A    between atoms: C1_7  and  C4_10 
ROOT
HETATM    1  O1  UNK     1      16.932   8.522  10.019  1.00  0.00    -0.291 OA
HETATM    2  O3  UNK     1      13.807  10.708  11.739  1.00  0.00    -0.274 OA
HETATM    3  O4  UNK     1      12.504   8.837  11.759  1.00  0.00    -0.259 OA
HETATM    4  N2  UNK     1      15.699   3.870   9.801  1.00  0.00    -0.191 NA
HETATM    5  C1  UNK     1      14.447   7.153  10.463  1.00  0.00     0.133 C 
HETATM    6  C2  UNK     1      14.676   8.610  10.818  1.00  0.00     0.068 A 
HETATM    7  C3  UNK     1      15.859   9.195  10.575  1.00  0.00     0.104 A 
HETATM    8  C5  UNK     1      15.738   6.449  10.057  1.00  0.00     0.088 C 
HETATM    9  C6  UNK     1      16.082  10.605  10.885  1.00  0.00     0.033 A 
HETATM   10  C7  UNK     1      13.573   9.364  11.470  1.00  0.00     0.298 A 
HETATM   11  C8  UNK     1      16.883   7.139   9.850  1.00  0.00     0.160 C 
HETATM   12  C9  UNK     1      15.039  11.326  11.457  1.00  0.00     0.092 A 
HETATM   13  C11 UNK     1      17.287  11.272  10.633  1.00  0.00     0.017 A 
HETATM   14  C14 UNK     1      15.163  12.678  11.781  1.00  0.00     0.038 A 
HETATM   15  C15 UNK     1      17.427  12.627  10.952  1.00  0.00     0.001 A 
HETATM   16  C16 UNK     1      15.717   5.025   9.915  1.00  0.00     0.100 C 
HETATM   17  C17 UNK     1      16.366  13.328  11.526  1.00  0.00     0.003 A 
ENDROOT
BRANCH   5  18
HETATM   18  C4  UNK     1      13.382   6.988   9.427  1.00  0.00     0.067 A 
HETATM   19  C10 UNK     1      13.293   7.391   8.133  1.00  0.00     0.036 A 
HETATM   20  C13 UNK     1      12.034   6.928   7.682  1.00  0.00     0.035 A 
HETATM   21  C12 UNK     1      11.461   6.278   8.751  1.00  0.00     0.049 A 
HETATM   22  O2  UNK     1      12.288   6.312   9.828  1.00  0.00    -0.319 OA
HETATM   23  C18 UNK     1      10.179   5.584   8.936  1.00  0.00     0.076 C 
ENDBRANCH   5  18
BRANCH  11  24
HETATM   24  N1  UNK     1      18.078   6.590   9.469  1.00  0.00    -0.379 N 
HETATM   25  H8  UNK     1      18.932   6.954   9.870  1.00  0.00     0.158 HD
HETATM   26  H9  UNK     1      18.112   5.833   8.799  1.00  0.00     0.158 HD
ENDBRANCH  11  24
TORSDOF 2
ENDMDL
MODEL 2
REMARK VINA RESULT:      -8.0      5.250      8.144
REMARK  2 active torsions:
REMARK  status: ('A' for Active; 'I' for Inactive)
REMARK    1  A    between atoms: C8_14  and  N1_5 
REMARK    2  A    between atoms: C1_7  and  C4_10 
ROOT
HETATM    1  O1  UNK     1       9.128   8.672  10.217  1.00  0.00    -0.291 OA
HETATM    2  O3  UNK     1       9.663   5.526   7.510  1.00  0.00    -0.274 OA
HETATM    3  O4  UNK     1       7.475   4.935   7.759  1.00  0.00    -0.259 OA
HETATM    4  N2  UNK     1       4.472   8.977  11.413  1.00  0.00    -0.191 NA
HETATM    5  C1  UNK     1       6.887   6.940   9.740  1.00  0.00     0.133 C 
HETATM    6  C2  UNK     1       8.235   6.770   9.066  1.00  0.00     0.068 A 
HETATM    7  C3  UNK     1       9.247   7.608   9.340  1.00  0.00     0.104 A 
HETATM    8  C5  UNK     1       6.792   8.250  10.517  1.00  0.00     0.088 C 
HETATM    9  C6  UNK     1      10.559   7.437   8.721  1.00  0.00     0.033 A 
HETATM   10  C7  UNK     1       8.400   5.676   8.073  1.00  0.00     0.298 A 
HETATM   11  C8  UNK     1       7.879   9.028  10.723  1.00  0.00     0.160 C 
HETATM   12  C9  UNK     1      10.730   6.389   7.821  1.00  0.00     0.092 A 
HETATM   13  C11 UNK     1      11.655   8.266   8.985  1.00  0.00     0.017 A 
HETATM   14  C14 UNK     1      11.950   6.149   7.187  1.00  0.00     0.038 A 
HETATM   15  C15 UNK     1      12.884   8.038   8.357  1.00  0.00     0.001 A 
HETATM   16  C16 UNK     1       5.511   8.651  11.013  1.00  0.00     0.100 C 
HETATM   17  C17 UNK     1      13.030   6.981   7.460  1.00  0.00     0.003 A 
ENDROOT
BRANCH   5  18
HETATM   18  C4  UNK     1       6.536   5.767  10.596  1.00  0.00     0.067 A 
HETATM   19  C10 UNK     1       7.141   5.206  11.675  1.00  0.00     0.036 A 
HETATM   20  C13 UNK     1       6.317   4.115  12.042  1.00  0.00     0.035 A 
HETATM   21  C12 UNK     1       5.273   4.107  11.147  1.00  0.00     0.049 A 
HETATM   22  O2  UNK     1       5.402   5.123  10.254  1.00  0.00    -0.319 OA
HETATM   23  C18 UNK     1       4.095   3.244  10.984  1.00  0.00     0.076 C 
ENDBRANCH   5  18
BRANCH  11  24
HETATM   24  N1  UNK     1       7.885  10.206  11.420  1.00  0.00    -0.379 N 
HETATM   25  H8  UNK     1       8.272  11.031  10.981  1.00  0.00     0.158 HD
HETATM   26  H9  UNK     1       7.512  10.256  12.359  1.00  0.00     0.158 HD
ENDBRANCH  11  24
TORSDOF 2
ENDMDL
MODEL 3
REMARK VINA RESULT:      -7.9     33.776     35.088
REMARK  2 active torsions:
REMARK  status: ('A' for Active; 'I' for Inactive)
REMARK    1  A    between atoms: C8_14  and  N1_5 
REMARK    2  A    between atoms: C1_7  and  C4_10 
ROOT
HETATM    1  O1  UNK     1      30.762  -5.386  38.283  1.00  0.00    -0.291 OA
HETATM    2  O3  UNK     1      31.551  -7.984  35.099  1.00  0.00    -0.274 OA
HETATM    3  O4  UNK     1      29.320  -8.400  34.882  1.00  0.00    -0.259 OA
HETATM    4  N2  UNK     1      25.999  -4.876  38.788  1.00  0.00    -0.191 NA
HETATM    5  C1  UNK     1      28.531  -6.771  37.121  1.00  0.00     0.133 C 
HETATM    6  C2  UNK     1      29.961  -6.935  36.641  1.00  0.00     0.068 A 
HETATM    7  C3  UNK     1      30.962  -6.266  37.235  1.00  0.00     0.104 A 
HETATM    8  C5  UNK     1      28.388  -5.633  38.128  1.00  0.00     0.088 C 
HETATM    9  C6  UNK     1      32.346  -6.438  36.802  1.00  0.00     0.033 A 
HETATM   10  C7  UNK     1      30.223  -7.826  35.481  1.00  0.00     0.298 A 
HETATM   11  C8  UNK     1      29.471  -5.017  38.655  1.00  0.00     0.160 C 
HETATM   12  C9  UNK     1      32.602  -7.303  35.742  1.00  0.00     0.092 A 
HETATM   13  C11 UNK     1      33.432  -5.784  37.397  1.00  0.00     0.017 A 
HETATM   14  C14 UNK     1      33.894  -7.531  35.266  1.00  0.00     0.038 A 
HETATM   15  C15 UNK     1      34.733  -6.002  36.931  1.00  0.00     0.001 A 
HETATM   16  C16 UNK     1      27.069  -5.215  38.493  1.00  0.00     0.100 C 
HETATM   17  C17 UNK     1      34.962  -6.874  35.868  1.00  0.00     0.003 A 
ENDROOT
BRANCH   5  18
HETATM   18  C4  UNK     1      27.967  -8.049  37.652  1.00  0.00     0.067 A 
HETATM   19  C10 UNK     1      26.998  -8.883  37.192  1.00  0.00     0.036 A 
HETATM   20  C13 UNK     1      26.923  -9.929  38.143  1.00  0.00     0.035 A 
HETATM   21  C12 UNK     1      27.860  -9.637  39.107  1.00  0.00     0.049 A 
HETATM   22  O2  UNK     1      28.507  -8.480  38.808  1.00  0.00    -0.319 OA
HETATM   23  C18 UNK     1      28.276 -10.314  40.343  1.00  0.00     0.076 C 
ENDBRANCH   5  18
BRANCH  11  24
HETATM   24  N1  UNK     1      29.432  -4.003  39.573  1.00  0.00    -0.379 N 
HETATM   25  H8  UNK     1      30.277  -3.769  40.078  1.00  0.00     0.158 HD
HETATM   26  H9  UNK     1      28.576  -3.492  39.748  1.00  0.00     0.158 HD
ENDBRANCH  11  24
TORSDOF 2
ENDMDL
MODEL 4
REMARK VINA RESULT:      -7.9     12.282     15.066
REMARK  2 active torsions:
REMARK  status: ('A' for Active; 'I' for Inactive)
REMARK    1  A    between atoms: C8_14  and  N1_5 
REMARK    2  A    between atoms: C1_7  and  C4_10 
ROOT
HETATM    1  O1  UNK     1      21.667  -5.828  14.990  1.00  0.00    -0.291 OA
HETATM    2  O3  UNK     1      21.170  -2.401  17.339  1.00  0.00    -0.274 OA
HETATM    3  O4  UNK     1      19.247  -1.908  16.219  1.00  0.00    -0.259 OA
HETATM    4  N2  UNK     1      17.809  -6.401  12.163  1.00  0.00    -0.191 NA
HETATM    5  C1  UNK     1      19.432  -4.126  14.393  1.00  0.00     0.133 C 
HETATM    6  C2  UNK     1      20.426  -3.845  15.504  1.00  0.00     0.068 A 
HETATM    7  C3  UNK     1      21.457  -4.676  15.725  1.00  0.00     0.104 A 
HETATM    8  C5  UNK     1      19.624  -5.513  13.785  1.00  0.00     0.088 C 
HETATM    9  C6  UNK     1      22.437  -4.400  16.772  1.00  0.00     0.033 A 
HETATM   10  C7  UNK     1      20.214  -2.648  16.360  1.00  0.00     0.298 A 
HETATM   11  C8  UNK     1      20.700  -6.274  14.091  1.00  0.00     0.160 C 
HETATM   12  C9  UNK     1      22.266  -3.258  17.550  1.00  0.00     0.092 A 
HETATM   13  C11 UNK     1      23.543  -5.217  17.034  1.00  0.00     0.017 A 
HETATM   14  C14 UNK     1      23.156  -2.915  18.568  1.00  0.00     0.038 A 
HETATM   15  C15 UNK     1      24.444  -4.887  18.051  1.00  0.00     0.001 A 
HETATM   16  C16 UNK     1      18.622  -6.003  12.889  1.00  0.00     0.100 C 
HETATM   17  C17 UNK     1      24.251  -3.738  18.817  1.00  0.00     0.003 A 
ENDROOT
BRANCH   5  18
HETATM   18  C4  UNK     1      19.444  -3.061  13.345  1.00  0.00     0.067 A 
HETATM   19  C10 UNK     1      18.655  -1.976  13.133  1.00  0.00     0.036 A 
HETATM   20  C13 UNK     1      19.177  -1.354  11.974  1.00  0.00     0.035 A 
HETATM   21  C12 UNK     1      20.249  -2.120  11.579  1.00  0.00     0.049 A 
HETATM   22  O2  UNK     1      20.418  -3.173  12.420  1.00  0.00    -0.319 OA
HETATM   23  C18 UNK     1      21.203  -2.017  10.466  1.00  0.00     0.076 C 
ENDBRANCH   5  18
BRANCH  11  24
HETATM   24  N1  UNK     1      20.957  -7.518  13.581  1.00  0.00    -0.379 N 
HETATM   25  H8  UNK     1      20.808  -8.327  14.169  1.00  0.00     0.158 HD
HETATM   26  H9  UNK     1      21.290  -7.632  12.632  1.00  0.00     0.158 HD
ENDBRANCH  11  24
TORSDOF 2
ENDMDL
MODEL 5
REMARK VINA RESULT:      -7.8     33.200     34.842
REMARK  2 active torsions:
REMARK  status: ('A' for Active; 'I' for Inactive)
REMARK    1  A    between atoms: C8_14  and  N1_5 
REMARK    2  A    between atoms: C1_7  and  C4_10 
ROOT
HETATM    1  O1  UNK     1      32.238  -6.611  37.118  1.00  0.00    -0.291 OA
HETATM    2  O3  UNK     1      29.912  -8.118  33.984  1.00  0.00    -0.274 OA
HETATM    3  O4  UNK     1      28.060  -7.140  34.883  1.00  0.00    -0.259 OA
HETATM    4  N2  UNK     1      29.536  -3.724  39.869  1.00  0.00    -0.191 NA
HETATM    5  C1  UNK     1      29.413  -6.103  37.204  1.00  0.00     0.133 C 
HETATM    6  C2  UNK     1      30.091  -6.881  36.092  1.00  0.00     0.068 A 
HETATM    7  C3  UNK     1      31.417  -7.093  36.116  1.00  0.00     0.104 A 
HETATM    8  C5  UNK     1      30.419  -5.440  38.139  1.00  0.00     0.088 C 
HETATM    9  C6  UNK     1      32.077  -7.865  35.067  1.00  0.00     0.033 A 
HETATM   10  C7  UNK     1      29.261  -7.373  34.961  1.00  0.00     0.298 A 
HETATM   11  C8  UNK     1      31.741  -5.718  38.067  1.00  0.00     0.160 C 
HETATM   12  C9  UNK     1      31.298  -8.364  34.026  1.00  0.00     0.092 A 
HETATM   13  C11 UNK     1      33.450  -8.137  35.051  1.00  0.00     0.017 A 
HETATM   14  C14 UNK     1      31.844  -9.116  32.986  1.00  0.00     0.038 A 
HETATM   15  C15 UNK     1      34.013  -8.889  34.015  1.00  0.00     0.001 A 
HETATM   16  C16 UNK     1      29.931  -4.492  39.095  1.00  0.00     0.100 C 
HETATM   17  C17 UNK     1      33.210  -9.377  32.984  1.00  0.00     0.003 A 
ENDROOT
BRANCH   5  18
HETATM   18  C4  UNK     1      28.432  -6.941  37.957  1.00  0.00     0.067 A 
HETATM   19  C10 UNK     1      27.125  -6.755  38.279  1.00  0.00     0.036 A 
HETATM   20  C13 UNK     1      26.749  -7.912  39.003  1.00  0.00     0.035 A 
HETATM   21  C12 UNK     1      27.870  -8.708  39.060  1.00  0.00     0.049 A 
HETATM   22  O2  UNK     1      28.909  -8.115  38.416  1.00  0.00    -0.319 OA
HETATM   23  C18 UNK     1      28.140 -10.023  39.658  1.00  0.00     0.076 C 
ENDBRANCH   5  18
BRANCH  11  24
HETATM   24  N1  UNK     1      32.706  -5.183  38.876  1.00  0.00    -0.379 N 
HETATM   25  H8  UNK     1      33.310  -5.807  39.394  1.00  0.00     0.158 HD
HETATM   26  H9  UNK     1      32.817  -4.180  38.958  1.00  0.00     0.158 HD
ENDBRANCH  11  24
TORSDOF 2
ENDMDL
MODEL 6
REMARK VINA RESULT:      -7.7     32.769     34.470
REMARK  2 active torsions:
REMARK  status: ('A' for Active; 'I' for Inactive)
REMARK    1  A    between atoms: C8_14  and  N1_5 
REMARK    2  A    between atoms: C1_7  and  C4_10 
ROOT
HETATM    1  O1  UNK     1      30.521  -5.226  37.108  1.00  0.00    -0.291 OA
HETATM    2  O3  UNK     1      30.642  -9.406  37.247  1.00  0.00    -0.274 OA
HETATM    3  O4  UNK     1      32.455  -9.403  35.864  1.00  0.00    -0.259 OA
HETATM    4  N2  UNK     1      34.338  -3.596  34.665  1.00  0.00    -0.191 NA
HETATM    5  C1  UNK     1      32.502  -6.547  35.503  1.00  0.00     0.133 C 
HETATM    6  C2  UNK     1      31.512  -7.283  36.386  1.00  0.00     0.068 A 
HETATM    7  C3  UNK     1      30.602  -6.607  37.105  1.00  0.00     0.104 A 
HETATM    8  C5  UNK     1      32.471  -5.039  35.736  1.00  0.00     0.088 C 
HETATM    9  C6  UNK     1      29.625  -7.306  37.935  1.00  0.00     0.033 A 
HETATM   10  C7  UNK     1      31.594  -8.766  36.462  1.00  0.00     0.298 A 
HETATM   11  C8  UNK     1      31.511  -4.462  36.494  1.00  0.00     0.160 C 
HETATM   12  C9  UNK     1      29.671  -8.696  37.977  1.00  0.00     0.092 A 
HETATM   13  C11 UNK     1      28.640  -6.655  38.687  1.00  0.00     0.017 A 
HETATM   14  C14 UNK     1      28.773  -9.444  38.739  1.00  0.00     0.038 A 
HETATM   15  C15 UNK     1      27.733  -7.391  39.456  1.00  0.00     0.001 A 
HETATM   16  C16 UNK     1      33.502  -4.242  35.144  1.00  0.00     0.100 C 
HETATM   17  C17 UNK     1      27.800  -8.783  39.482  1.00  0.00     0.003 A 
ENDROOT
BRANCH   5  18
HETATM   18  C4  UNK     1      32.325  -6.883  34.058  1.00  0.00     0.067 A 
HETATM   19  C10 UNK     1      33.165  -7.412  33.131  1.00  0.00     0.036 A 
HETATM   20  C13 UNK     1      32.406  -7.490  31.939  1.00  0.00     0.035 A 
HETATM   21  C12 UNK     1      31.159  -6.998  32.247  1.00  0.00     0.049 A 
HETATM   22  O2  UNK     1      31.104  -6.623  33.552  1.00  0.00    -0.319 OA
HETATM   23  C18 UNK     1      29.930  -6.810  31.464  1.00  0.00     0.076 C 
ENDBRANCH   5  18
BRANCH  11  24
HETATM   24  N1  UNK     1      31.400  -3.120  36.739  1.00  0.00    -0.379 N 
HETATM   25  H8  UNK     1      31.908  -2.723  37.519  1.00  0.00     0.158 HD
HETATM   26  H9  UNK     1      30.821  -2.530  36.155  1.00  0.00     0.158 HD
ENDBRANCH  11  24
TORSDOF 2
ENDMDL
MODEL 7
REMARK VINA RESULT:      -7.6     13.197     15.722
REMARK  2 active torsions:
REMARK  status: ('A' for Active; 'I' for Inactive)
REMARK    1  A    between atoms: C8_14  and  N1_5 
REMARK    2  A    between atoms: C1_7  and  C4_10 
ROOT
HETATM    1  O1  UNK     1      20.892  -2.616  15.397  1.00  0.00    -0.291 OA
HETATM    2  O3  UNK     1      22.711  -6.204  16.549  1.00  0.00    -0.274 OA
HETATM    3  O4  UNK     1      21.708  -7.276  14.806  1.00  0.00    -0.259 OA
HETATM    4  N2  UNK     1      18.553  -3.273  11.238  1.00  0.00    -0.191 NA
HETATM    5  C1  UNK     1      20.242  -4.973  13.891  1.00  0.00     0.133 C 
HETATM    6  C2  UNK     1      21.200  -4.968  15.067  1.00  0.00     0.068 A 
HETATM    7  C3  UNK     1      21.454  -3.833  15.737  1.00  0.00     0.104 A 
HETATM    8  C5  UNK     1      19.844  -3.562  13.467  1.00  0.00     0.088 C 
HETATM    9  C6  UNK     1      22.351  -3.821  16.890  1.00  0.00     0.033 A 
HETATM   10  C7  UNK     1      21.875  -6.240  15.439  1.00  0.00     0.298 A 
HETATM   11  C8  UNK     1      20.166  -2.483  14.215  1.00  0.00     0.160 C 
HETATM   12  C9  UNK     1      22.953  -5.018  17.268  1.00  0.00     0.092 A 
HETATM   13  C11 UNK     1      22.636  -2.674  17.639  1.00  0.00     0.017 A 
HETATM   14  C14 UNK     1      23.820  -5.099  18.359  1.00  0.00     0.038 A 
HETATM   15  C15 UNK     1      23.502  -2.739  18.736  1.00  0.00     0.001 A 
HETATM   16  C16 UNK     1      19.130  -3.402  12.236  1.00  0.00     0.100 C 
HETATM   17  C17 UNK     1      24.093  -3.950  19.094  1.00  0.00     0.003 A 
ENDROOT
BRANCH   5  18
HETATM   18  C4  UNK     1      19.044  -5.829  14.146  1.00  0.00     0.067 A 
HETATM   19  C10 UNK     1      18.428  -6.787  13.405  1.00  0.00     0.036 A 
HETATM   20  C13 UNK     1      17.342  -7.231  14.197  1.00  0.00     0.035 A 
HETATM   21  C12 UNK     1      17.392  -6.499  15.360  1.00  0.00     0.049 A 
HETATM   22  O2  UNK     1      18.439  -5.634  15.334  1.00  0.00    -0.319 OA
HETATM   23  C18 UNK     1      16.562  -6.479  16.573  1.00  0.00     0.076 C 
ENDBRANCH   5  18
BRANCH  11  24
HETATM   24  N1  UNK     1      19.835  -1.189  13.917  1.00  0.00    -0.379 N 
HETATM   25  H8  UNK     1      20.567  -0.491  13.891  1.00  0.00     0.158 HD
HETATM   26  H9  UNK     1      18.876  -0.928  13.725  1.00  0.00     0.158 HD
ENDBRANCH  11  24
TORSDOF 2
ENDMDL
MODEL 8
REMARK VINA RESULT:      -7.5     31.535     33.208
REMARK  2 active torsions:
REMARK  status: ('A' for Active; 'I' for Inactive)
REMARK    1  A    between atoms: C8_14  and  N1_5 
REMARK    2  A    between atoms: C1_7  and  C4_10 
ROOT
HETATM    1  O1  UNK     1      31.399  -5.274  34.138  1.00  0.00    -0.291 OA
HETATM    2  O3  UNK     1      27.547  -6.876  33.815  1.00  0.00    -0.274 OA
HETATM    3  O4  UNK     1      27.507  -7.244  36.064  1.00  0.00    -0.259 OA
HETATM    4  N2  UNK     1      32.626  -4.986  38.787  1.00  0.00    -0.191 NA
HETATM    5  C1  UNK     1      30.191  -6.310  36.529  1.00  0.00     0.133 C 
HETATM    6  C2  UNK     1      29.508  -6.316  35.175  1.00  0.00     0.068 A 
HETATM    7  C3  UNK     1      30.132  -5.826  34.092  1.00  0.00     0.104 A 
HETATM    8  C5  UNK     1      31.483  -5.499  36.518  1.00  0.00     0.088 C 
HETATM    9  C6  UNK     1      29.496  -5.853  32.777  1.00  0.00     0.033 A 
HETATM   10  C7  UNK     1      28.122  -6.847  35.081  1.00  0.00     0.298 A 
HETATM   11  C8  UNK     1      32.019  -5.040  35.364  1.00  0.00     0.160 C 
HETATM   12  C9  UNK     1      28.214  -6.387  32.676  1.00  0.00     0.092 A 
HETATM   13  C11 UNK     1      30.106  -5.377  31.611  1.00  0.00     0.017 A 
HETATM   14  C14 UNK     1      27.534  -6.457  31.460  1.00  0.00     0.038 A 
HETATM   15  C15 UNK     1      29.438  -5.440  30.384  1.00  0.00     0.001 A 
HETATM   16  C16 UNK     1      32.115  -5.216  37.772  1.00  0.00     0.100 C 
HETATM   17  C17 UNK     1      28.154  -5.979  30.309  1.00  0.00     0.003 A 
ENDROOT
BRANCH   5  18
HETATM   18  C4  UNK     1      30.414  -7.693  37.051  1.00  0.00     0.067 A 
HETATM   19  C10 UNK     1      30.196  -8.259  38.267  1.00  0.00     0.036 A 
HETATM   20  C13 UNK     1      30.611  -9.605  38.133  1.00  0.00     0.035 A 
HETATM   21  C12 UNK     1      31.050  -9.742  36.836  1.00  0.00     0.049 A 
HETATM   22  O2  UNK     1      30.930  -8.567  36.166  1.00  0.00    -0.319 OA
HETATM   23  C18 UNK     1      31.598 -10.873  36.074  1.00  0.00     0.076 C 
ENDBRANCH   5  18
BRANCH  11  24
HETATM   24  N1  UNK     1      33.179  -4.321  35.264  1.00  0.00    -0.379 N 
HETATM   25  H8  UNK     1      33.921  -4.672  34.673  1.00  0.00     0.158 HD
HETATM   26  H9  UNK     1      33.299  -3.453  35.771  1.00  0.00     0.158 HD
ENDBRANCH  11  24
TORSDOF 2
ENDMDL
MODEL 9
REMARK VINA RESULT:      -7.5     31.726     33.271
REMARK  2 active torsions:
REMARK  status: ('A' for Active; 'I' for Inactive)
REMARK    1  A    between atoms: C8_14  and  N1_5 
REMARK    2  A    between atoms: C1_7  and  C4_10 
ROOT
HETATM    1  O1  UNK     1      32.438  -4.678  35.856  1.00  0.00    -0.291 OA
HETATM    2  O3  UNK     1      29.450  -7.559  36.382  1.00  0.00    -0.274 OA
HETATM    3  O4  UNK     1      30.385  -8.833  34.739  1.00  0.00    -0.259 OA
HETATM    4  N2  UNK     1      35.691  -6.305  32.698  1.00  0.00    -0.191 NA
HETATM    5  C1  UNK     1      32.465  -6.947  34.098  1.00  0.00     0.133 C 
HETATM    6  C2  UNK     1      31.433  -6.748  35.192  1.00  0.00     0.068 A 
HETATM    7  C3  UNK     1      31.470  -5.658  35.975  1.00  0.00     0.104 A 
HETATM    8  C5  UNK     1      33.601  -5.933  34.184  1.00  0.00     0.088 C 
HETATM    9  C6  UNK     1      30.465  -5.439  37.012  1.00  0.00     0.033 A 
HETATM   10  C7  UNK     1      30.404  -7.800  35.398  1.00  0.00     0.298 A 
HETATM   11  C8  UNK     1      33.538  -4.873  35.022  1.00  0.00     0.160 C 
HETATM   12  C9  UNK     1      29.474  -6.401  37.182  1.00  0.00     0.092 A 
HETATM   13  C11 UNK     1      30.441  -4.312  37.842  1.00  0.00     0.017 A 
HETATM   14  C14 UNK     1      28.473  -6.271  38.145  1.00  0.00     0.038 A 
HETATM   15  C15 UNK     1      29.443  -4.167  38.812  1.00  0.00     0.001 A 
HETATM   16  C16 UNK     1      34.755  -6.138  33.363  1.00  0.00     0.100 C 
HETATM   17  C17 UNK     1      28.461  -5.146  38.963  1.00  0.00     0.003 A 
ENDROOT
BRANCH   5  18
HETATM   18  C4  UNK     1      31.844  -6.964  32.738  1.00  0.00     0.067 A 
HETATM   19  C10 UNK     1      31.976  -7.807  31.681  1.00  0.00     0.036 A 
HETATM   20  C13 UNK     1      31.124  -7.287  30.678  1.00  0.00     0.035 A 
HETATM   21  C12 UNK     1      30.543  -6.163  31.217  1.00  0.00     0.049 A 
HETATM   22  O2  UNK     1      30.983  -5.959  32.486  1.00  0.00    -0.319 OA
HETATM   23  C18 UNK     1      29.576  -5.184  30.699  1.00  0.00     0.076 C 
ENDBRANCH   5  18
BRANCH  11  24
HETATM   24  N1  UNK     1      34.502  -3.910  35.150  1.00  0.00    -0.379 N 
HETATM   25  H8  UNK     1      34.222  -2.967  35.383  1.00  0.00     0.158 HD
HETATM   26  H9  UNK     1      35.480  -4.132  35.015  1.00  0.00     0.158 HD
ENDBRANCH  11  24
TORSDOF 2
ENDMDL
MODEL 10
REMARK VINA RESULT:      -7.3      2.928      6.618
REMARK  2 active torsions:
REMARK  status: ('A' for Active; 'I' for Inactive)
REMARK    1  A    between atoms: C8_14  and  N1_5 
REMARK    2  A    between atoms: C1_7  and  C4_10 
ROOT
HETATM    1  O1  UNK     1      11.191   8.992  10.198  1.00  0.00    -0.291 OA
HETATM    2  O3  UNK     1      13.382   6.185   8.001  1.00  0.00    -0.274 OA
HETATM    3  O4  UNK     1      15.225   6.626   9.267  1.00  0.00    -0.259 OA
HETATM    4  N2  UNK     1      13.887  10.629  13.839  1.00  0.00    -0.191 NA
HETATM    5  C1  UNK     1      13.976   8.695  10.834  1.00  0.00     0.133 C 
HETATM    6  C2  UNK     1      13.272   7.893   9.755  1.00  0.00     0.068 A 
HETATM    7  C3  UNK     1      11.969   8.088   9.499  1.00  0.00     0.104 A 
HETATM    8  C5  UNK     1      12.998   9.503  11.681  1.00  0.00     0.088 C 
HETATM    9  C6  UNK     1      11.288   7.344   8.442  1.00  0.00     0.033 A 
HETATM   10  C7  UNK     1      14.050   6.867   9.012  1.00  0.00     0.298 A 
HETATM   11  C8  UNK     1      11.695   9.622  11.335  1.00  0.00     0.160 C 
HETATM   12  C9  UNK     1      12.022   6.411   7.716  1.00  0.00     0.092 A 
HETATM   13  C11 UNK     1       9.938   7.520   8.117  1.00  0.00     0.017 A 
HETATM   14  C14 UNK     1      11.453   5.660   6.686  1.00  0.00     0.038 A 
HETATM   15  C15 UNK     1       9.353   6.775   7.088  1.00  0.00     0.001 A 
HETATM   16  C16 UNK     1      13.489  10.126  12.873  1.00  0.00     0.100 C 
HETATM   17  C17 UNK     1      10.110   5.846   6.374  1.00  0.00     0.003 A 
ENDROOT
BRANCH   5  18
HETATM   18  C4  UNK     1      15.061   9.556  10.275  1.00  0.00     0.067 A 
HETATM   19  C10 UNK     1      16.354   9.754  10.643  1.00  0.00     0.036 A 
HETATM   20  C13 UNK     1      16.868  10.692   9.716  1.00  0.00     0.035 A 
HETATM   21  C12 UNK     1      15.834  10.986   8.857  1.00  0.00     0.049 A 
HETATM   22  O2  UNK     1      14.719  10.289   9.198  1.00  0.00    -0.319 OA
HETATM   23  C18 UNK     1      15.716  11.874   7.692  1.00  0.00     0.076 C 
ENDBRANCH   5  18
BRANCH  11  24
HETATM   24  N1  UNK     1      10.757  10.339  12.027  1.00  0.00    -0.379 N 
HETATM   25  H8  UNK     1       9.778  10.142  11.868  1.00  0.00     0.158 HD
HETATM   26  H9  UNK     1      11.033  11.055  12.687  1.00  0.00     0.158 HD
ENDBRANCH  11  24
TORSDOF 2
ENDMDL
