MODEL 1
REMARK VINA RESULT:      -8.7      0.000      0.000
REMARK  3 active torsions:
REMARK  status: ('A' for Active; 'I' for Inactive)
REMARK    1  A    between atoms: C5_10  and  N1_5 
REMARK       I    between atoms: C6_11  and  N1_5 
REMARK    2  A    between atoms: C1_6  and  C5_10 
REMARK    3  A    between atoms: C6_11  and  C7_12 
ROOT
HETATM    1  O2  UNK     1      18.927   0.336  32.266  1.00  0.00    -0.274 OA
HETATM    2  O4  UNK     1      18.015   2.421  32.472  1.00  0.00    -0.259 OA
HETATM    3  C7  UNK     1      18.974   1.885  30.373  1.00  0.00     0.108 A 
HETATM    4  C8  UNK     1      19.606   0.981  29.614  1.00  0.00     0.037 A 
HETATM    5  C9  UNK     1      19.939  -0.327  30.157  1.00  0.00    -0.001 A 
HETATM    6  C10 UNK     1      19.592  -0.619  31.472  1.00  0.00     0.089 A 
HETATM    7  C11 UNK     1      18.595   1.596  31.774  1.00  0.00     0.304 A 
HETATM    8  C12 UNK     1      20.599  -1.300  29.403  1.00  0.00     0.014 A 
HETATM    9  C13 UNK     1      19.882  -1.852  32.051  1.00  0.00     0.038 A 
HETATM   10  C14 UNK     1      20.897  -2.542  29.971  1.00  0.00     0.001 A 
HETATM   11  C15 UNK     1      20.540  -2.817  31.292  1.00  0.00     0.003 A 
ENDROOT
BRANCH   3  12
HETATM   12  C6  UNK     1      18.680   3.174  29.736  1.00  0.00     0.257 C 
HETATM   13  O3  UNK     1      18.029   3.230  28.694  1.00  0.00    -0.267 OA
HETATM   14  N1  UNK     1      19.209   4.248  30.428  1.00  0.00    -0.354 N 
HETATM   15  H10 UNK     1      19.753   4.096  31.271  1.00  0.00     0.162 HD
BRANCH  14  16
HETATM   16  C5  UNK     1      19.054   5.618  29.993  1.00  0.00     0.155 C 
BRANCH  16  17
HETATM   17  C1  UNK     1      18.706   6.504  31.174  1.00  0.00     0.139 C 
HETATM   18  O1  UNK     1      17.494   6.040  31.792  1.00  0.00    -0.384 OA
HETATM   19  C4  UNK     1      17.655   6.112  33.217  1.00  0.00     0.168 C 
HETATM   20  C3  UNK     1      18.944   6.860  33.479  1.00  0.00     0.029 C 
HETATM   21  C2  UNK     1      19.764   6.502  32.264  1.00  0.00     0.035 C 
ENDBRANCH  16  17
ENDBRANCH  14  16
ENDBRANCH   3  12
TORSDOF 3
ENDMDL
MODEL 2
REMARK VINA RESULT:      -8.6      1.484      6.696
REMARK  3 active torsions:
REMARK  status: ('A' for Active; 'I' for Inactive)
REMARK    1  A    between atoms: C5_10  and  N1_5 
REMARK       I    between atoms: C6_11  and  N1_5 
REMARK    2  A    between atoms: C1_6  and  C5_10 
REMARK    3  A    between atoms: C6_11  and  C7_12 
ROOT
HETATM    1  O2  UNK     1      18.067   3.616  33.571  1.00  0.00    -0.274 OA
HETATM    2  O4  UNK     1      18.223   1.418  32.970  1.00  0.00    -0.259 OA
HETATM    3  C7  UNK     1      18.297   3.007  31.214  1.00  0.00     0.108 A 
HETATM    4  C8  UNK     1      18.267   4.294  30.850  1.00  0.00     0.037 A 
HETATM    5  C9  UNK     1      18.133   5.337  31.855  1.00  0.00    -0.001 A 
HETATM    6  C10 UNK     1      18.036   4.974  33.194  1.00  0.00     0.089 A 
HETATM    7  C11 UNK     1      18.195   2.596  32.632  1.00  0.00     0.304 A 
HETATM    8  C12 UNK     1      18.098   6.693  31.521  1.00  0.00     0.014 A 
HETATM    9  C13 UNK     1      17.905   5.923  34.205  1.00  0.00     0.038 A 
HETATM   10  C14 UNK     1      17.966   7.658  32.525  1.00  0.00     0.001 A 
HETATM   11  C15 UNK     1      17.871   7.273  33.863  1.00  0.00     0.003 A 
ENDROOT
BRANCH   3  12
HETATM   12  C6  UNK     1      18.436   2.029  30.128  1.00  0.00     0.257 C 
HETATM   13  O3  UNK     1      17.527   1.847  29.321  1.00  0.00    -0.267 OA
HETATM   14  N1  UNK     1      19.658   1.381  30.143  1.00  0.00    -0.354 N 
HETATM   15  H10 UNK     1      20.339   1.587  30.867  1.00  0.00     0.162 HD
BRANCH  14  16
HETATM   16  C5  UNK     1      20.026   0.373  29.174  1.00  0.00     0.155 C 
BRANCH  16  17
HETATM   17  C1  UNK     1      20.822  -0.730  29.845  1.00  0.00     0.139 C 
HETATM   18  O1  UNK     1      20.935  -0.462  31.253  1.00  0.00    -0.384 OA
HETATM   19  C4  UNK     1      20.750  -1.696  31.965  1.00  0.00     0.168 C 
HETATM   20  C3  UNK     1      20.741  -2.804  30.934  1.00  0.00     0.029 C 
HETATM   21  C2  UNK     1      20.177  -2.100  29.725  1.00  0.00     0.035 C 
ENDBRANCH  16  17
ENDBRANCH  14  16
ENDBRANCH   3  12
TORSDOF 3
ENDMDL
MODEL 3
REMARK VINA RESULT:      -8.3      1.546      7.186
REMARK  3 active torsions:
REMARK  status: ('A' for Active; 'I' for Inactive)
REMARK    1  A    between atoms: C5_10  and  N1_5 
REMARK       I    between atoms: C6_11  and  N1_5 
REMARK    2  A    between atoms: C1_6  and  C5_10 
REMARK    3  A    between atoms: C6_11  and  C7_12 
ROOT
HETATM    1  O2  UNK     1      19.606   6.617  31.721  1.00  0.00    -0.274 OA
HETATM    2  O4  UNK     1      20.148   5.132  30.072  1.00  0.00    -0.259 OA
HETATM    3  C7  UNK     1      18.432   4.477  31.568  1.00  0.00     0.108 A 
HETATM    4  C8  UNK     1      17.681   4.781  32.633  1.00  0.00     0.037 A 
HETATM    5  C9  UNK     1      17.858   6.054  33.315  1.00  0.00    -0.001 A 
HETATM    6  C10 UNK     1      18.818   6.943  32.843  1.00  0.00     0.089 A 
HETATM    7  C11 UNK     1      19.459   5.407  31.048  1.00  0.00     0.304 A 
HETATM    8  C12 UNK     1      17.098   6.414  34.430  1.00  0.00     0.014 A 
HETATM    9  C13 UNK     1      19.037   8.178  33.450  1.00  0.00     0.038 A 
HETATM   10  C14 UNK     1      17.307   7.649  35.051  1.00  0.00     0.001 A 
HETATM   11  C15 UNK     1      18.274   8.529  34.561  1.00  0.00     0.003 A 
ENDROOT
BRANCH   3  12
HETATM   12  C6  UNK     1      18.178   3.171  30.948  1.00  0.00     0.257 C 
HETATM   13  O3  UNK     1      17.037   2.721  30.868  1.00  0.00    -0.267 OA
HETATM   14  N1  UNK     1      19.333   2.556  30.499  1.00  0.00    -0.354 N 
HETATM   15  H10 UNK     1      20.235   3.002  30.632  1.00  0.00     0.162 HD
BRANCH  14  16
HETATM   16  C5  UNK     1      19.336   1.261  29.856  1.00  0.00     0.155 C 
BRANCH  16  17
HETATM   17  C1  UNK     1      20.098   0.260  30.703  1.00  0.00     0.139 C 
HETATM   18  O1  UNK     1      19.359  -0.028  31.902  1.00  0.00    -0.384 OA
HETATM   19  C4  UNK     1      19.441  -1.439  32.158  1.00  0.00     0.168 C 
HETATM   20  C3  UNK     1      20.459  -2.004  31.191  1.00  0.00     0.029 C 
HETATM   21  C2  UNK     1      20.319  -1.074  30.012  1.00  0.00     0.035 C 
ENDBRANCH  16  17
ENDBRANCH  14  16
ENDBRANCH   3  12
TORSDOF 3
ENDMDL
MODEL 4
REMARK VINA RESULT:      -8.2      1.352      2.243
REMARK  3 active torsions:
REMARK  status: ('A' for Active; 'I' for Inactive)
REMARK    1  A    between atoms: C5_10  and  N1_5 
REMARK       I    between atoms: C6_11  and  N1_5 
REMARK    2  A    between atoms: C1_6  and  C5_10 
REMARK    3  A    between atoms: C6_11  and  C7_12 
ROOT
HETATM    1  O2  UNK     1      19.037   0.645  28.615  1.00  0.00    -0.274 OA
HETATM    2  O4  UNK     1      18.085   2.676  28.183  1.00  0.00    -0.259 OA
HETATM    3  C7  UNK     1      18.673   2.237  30.436  1.00  0.00     0.108 A 
HETATM    4  C8  UNK     1      19.198   1.384  31.323  1.00  0.00     0.037 A 
HETATM    5  C9  UNK     1      19.683   0.083  30.890  1.00  0.00    -0.001 A 
HETATM    6  C10 UNK     1      19.591  -0.257  29.545  1.00  0.00     0.089 A 
HETATM    7  C11 UNK     1      18.564   1.897  28.999  1.00  0.00     0.304 A 
HETATM    8  C12 UNK     1      20.238  -0.839  31.781  1.00  0.00     0.014 A 
HETATM    9  C13 UNK     1      20.036  -1.487  29.066  1.00  0.00     0.038 A 
HETATM   10  C14 UNK     1      20.689  -2.078  31.315  1.00  0.00     0.001 A 
HETATM   11  C15 UNK     1      20.588  -2.401  29.961  1.00  0.00     0.003 A 
ENDROOT
BRANCH   3  12
HETATM   12  C6  UNK     1      18.213   3.525  30.968  1.00  0.00     0.257 C 
HETATM   13  O3  UNK     1      17.525   3.578  31.985  1.00  0.00    -0.267 OA
HETATM   14  N1  UNK     1      18.635   4.602  30.209  1.00  0.00    -0.354 N 
HETATM   15  H10 UNK     1      19.186   4.452  29.370  1.00  0.00     0.162 HD
BRANCH  14  16
HETATM   16  C5  UNK     1      18.305   5.972  30.534  1.00  0.00     0.155 C 
BRANCH  16  17
HETATM   17  C1  UNK     1      19.391   6.579  31.399  1.00  0.00     0.139 C 
HETATM   18  O1  UNK     1      18.987   6.558  32.778  1.00  0.00    -0.384 OA
HETATM   19  C4  UNK     1      20.119   6.178  33.577  1.00  0.00     0.168 C 
HETATM   20  C3  UNK     1      21.325   6.181  32.663  1.00  0.00     0.029 C 
HETATM   21  C2  UNK     1      20.709   5.826  31.333  1.00  0.00     0.035 C 
ENDBRANCH  16  17
ENDBRANCH  14  16
ENDBRANCH   3  12
TORSDOF 3
ENDMDL
MODEL 5
REMARK VINA RESULT:      -7.9     22.058     24.015
REMARK  3 active torsions:
REMARK  status: ('A' for Active; 'I' for Inactive)
REMARK    1  A    between atoms: C5_10  and  N1_5 
REMARK       I    between atoms: C6_11  and  N1_5 
REMARK    2  A    between atoms: C1_6  and  C5_10 
REMARK    3  A    between atoms: C6_11  and  C7_12 
ROOT
HETATM    1  O2  UNK     1      11.158   7.180   9.472  1.00  0.00    -0.274 OA
HETATM    2  O4  UNK     1      12.921   7.389  10.911  1.00  0.00    -0.259 OA
HETATM    3  C7  UNK     1      13.404   6.520   8.761  1.00  0.00     0.108 A 
HETATM    4  C8  UNK     1      12.946   6.164   7.554  1.00  0.00     0.037 A 
HETATM    5  C9  UNK     1      11.533   6.301   7.237  1.00  0.00    -0.001 A 
HETATM    6  C10 UNK     1      10.671   6.806   8.204  1.00  0.00     0.089 A 
HETATM    7  C11 UNK     1      12.505   7.060   9.806  1.00  0.00     0.304 A 
HETATM    8  C12 UNK     1      11.012   5.942   5.992  1.00  0.00     0.014 A 
HETATM    9  C13 UNK     1       9.308   6.962   7.963  1.00  0.00     0.038 A 
HETATM   10  C14 UNK     1       9.646   6.092   5.735  1.00  0.00     0.001 A 
HETATM   11  C15 UNK     1       8.796   6.602   6.719  1.00  0.00     0.003 A 
ENDROOT
BRANCH   3  12
HETATM   12  C6  UNK     1      14.844   6.346   8.985  1.00  0.00     0.257 C 
HETATM   13  O3  UNK     1      15.426   5.336   8.596  1.00  0.00    -0.267 OA
HETATM   14  N1  UNK     1      15.415   7.411   9.658  1.00  0.00    -0.354 N 
HETATM   15  H10 UNK     1      14.842   8.194   9.958  1.00  0.00     0.162 HD
BRANCH  14  16
HETATM   16  C5  UNK     1      16.820   7.466   9.996  1.00  0.00     0.155 C 
BRANCH  16  17
HETATM   17  C1  UNK     1      17.227   8.895  10.298  1.00  0.00     0.139 C 
HETATM   18  O1  UNK     1      17.870   9.473   9.149  1.00  0.00    -0.384 OA
HETATM   19  C4  UNK     1      17.401  10.822   8.999  1.00  0.00     0.168 C 
HETATM   20  C3  UNK     1      16.602  11.153  10.241  1.00  0.00     0.029 C 
HETATM   21  C2  UNK     1      16.055   9.802  10.629  1.00  0.00     0.035 C 
ENDBRANCH  16  17
ENDBRANCH  14  16
ENDBRANCH   3  12
TORSDOF 3
ENDMDL
MODEL 6
REMARK VINA RESULT:      -7.9      6.546     10.669
REMARK  3 active torsions:
REMARK  status: ('A' for Active; 'I' for Inactive)
REMARK    1  A    between atoms: C5_10  and  N1_5 
REMARK       I    between atoms: C6_11  and  N1_5 
REMARK    2  A    between atoms: C1_6  and  C5_10 
REMARK    3  A    between atoms: C6_11  and  C7_12 
ROOT
HETATM    1  O2  UNK     1      19.415  -1.013  34.625  1.00  0.00    -0.274 OA
HETATM    2  O4  UNK     1      20.597  -2.817  33.872  1.00  0.00    -0.259 OA
HETATM    3  C7  UNK     1      19.777  -2.937  36.091  1.00  0.00     0.108 A 
HETATM    4  C8  UNK     1      19.095  -2.347  37.080  1.00  0.00     0.037 A 
HETATM    5  C9  UNK     1      18.523  -1.023  36.887  1.00  0.00    -0.001 A 
HETATM    6  C10 UNK     1      18.697  -0.386  35.663  1.00  0.00     0.089 A 
HETATM    7  C11 UNK     1      19.975  -2.279  34.780  1.00  0.00     0.304 A 
HETATM    8  C12 UNK     1      17.805  -0.369  37.891  1.00  0.00     0.014 A 
HETATM    9  C13 UNK     1      18.175   0.881  35.414  1.00  0.00     0.038 A 
HETATM   10  C14 UNK     1      17.276   0.904  37.656  1.00  0.00     0.001 A 
HETATM   11  C15 UNK     1      17.460   1.527  36.420  1.00  0.00     0.003 A 
ENDROOT
BRANCH   3  12
HETATM   12  C6  UNK     1      20.314  -4.272  36.381  1.00  0.00     0.257 C 
HETATM   13  O3  UNK     1      21.204  -4.427  37.214  1.00  0.00    -0.267 OA
HETATM   14  N1  UNK     1      19.716  -5.267  35.629  1.00  0.00    -0.354 N 
HETATM   15  H10 UNK     1      19.000  -5.034  34.948  1.00  0.00     0.162 HD
BRANCH  14  16
HETATM   16  C5  UNK     1      20.080  -6.662  35.737  1.00  0.00     0.155 C 
BRANCH  16  17
HETATM   17  C1  UNK     1      19.251  -7.336  36.812  1.00  0.00     0.139 C 
HETATM   18  O1  UNK     1      18.813  -8.626  36.355  1.00  0.00    -0.384 OA
HETATM   19  C4  UNK     1      18.939  -9.559  37.440  1.00  0.00     0.168 C 
HETATM   20  C3  UNK     1      19.263  -8.753  38.680  1.00  0.00     0.029 C 
HETATM   21  C2  UNK     1      20.016  -7.581  38.102  1.00  0.00     0.035 C 
ENDBRANCH  16  17
ENDBRANCH  14  16
ENDBRANCH   3  12
TORSDOF 3
ENDMDL
MODEL 7
REMARK VINA RESULT:      -7.8     22.420     24.402
REMARK  3 active torsions:
REMARK  status: ('A' for Active; 'I' for Inactive)
REMARK    1  A    between atoms: C5_10  and  N1_5 
REMARK       I    between atoms: C6_11  and  N1_5 
REMARK    2  A    between atoms: C1_6  and  C5_10 
REMARK    3  A    between atoms: C6_11  and  C7_12 
ROOT
HETATM    1  O2  UNK     1      14.111   5.107   9.154  1.00  0.00    -0.274 OA
HETATM    2  O4  UNK     1      12.349   4.047   8.157  1.00  0.00    -0.259 OA
HETATM    3  C7  UNK     1      12.492   6.392   7.846  1.00  0.00     0.108 A 
HETATM    4  C8  UNK     1      13.154   7.528   8.092  1.00  0.00     0.037 A 
HETATM    5  C9  UNK     1      14.361   7.512   8.904  1.00  0.00    -0.001 A 
HETATM    6  C10 UNK     1      14.812   6.301   9.417  1.00  0.00     0.089 A 
HETATM    7  C11 UNK     1      12.952   5.090   8.382  1.00  0.00     0.304 A 
HETATM    8  C12 UNK     1      15.084   8.674   9.186  1.00  0.00     0.014 A 
HETATM    9  C13 UNK     1      15.960   6.217  10.201  1.00  0.00     0.038 A 
HETATM   10  C14 UNK     1      16.238   8.606   9.972  1.00  0.00     0.001 A 
HETATM   11  C15 UNK     1      16.675   7.380  10.478  1.00  0.00     0.003 A 
ENDROOT
BRANCH   3  12
HETATM   12  C6  UNK     1      11.287   6.510   7.016  1.00  0.00     0.257 C 
HETATM   13  O3  UNK     1      11.358   6.892   5.850  1.00  0.00    -0.267 OA
HETATM   14  N1  UNK     1      10.133   6.155   7.692  1.00  0.00    -0.354 N 
HETATM   15  H10 UNK     1      10.176   5.871   8.665  1.00  0.00     0.162 HD
BRANCH  14  16
HETATM   16  C5  UNK     1       8.821   6.193   7.084  1.00  0.00     0.155 C 
BRANCH  16  17
HETATM   17  C1  UNK     1       7.753   5.969   8.135  1.00  0.00     0.139 C 
HETATM   18  O1  UNK     1       7.406   4.575   8.190  1.00  0.00    -0.384 OA
HETATM   19  C4  UNK     1       7.259   4.197   9.568  1.00  0.00     0.168 C 
HETATM   20  C3  UNK     1       7.304   5.473  10.382  1.00  0.00     0.029 C 
HETATM   21  C2  UNK     1       8.194   6.350   9.538  1.00  0.00     0.035 C 
ENDBRANCH  16  17
ENDBRANCH  14  16
ENDBRANCH   3  12
TORSDOF 3
ENDMDL
MODEL 8
REMARK VINA RESULT:      -7.7      7.240      9.334
REMARK  3 active torsions:
REMARK  status: ('A' for Active; 'I' for Inactive)
REMARK    1  A    between atoms: C5_10  and  N1_5 
REMARK       I    between atoms: C6_11  and  N1_5 
REMARK    2  A    between atoms: C1_6  and  C5_10 
REMARK    3  A    between atoms: C6_11  and  C7_12 
ROOT
HETATM    1  O2  UNK     1      19.255  -7.144  37.841  1.00  0.00    -0.274 OA
HETATM    2  O4  UNK     1      17.745  -6.001  36.563  1.00  0.00    -0.259 OA
HETATM    3  C7  UNK     1      19.817  -4.928  36.971  1.00  0.00     0.108 A 
HETATM    4  C8  UNK     1      21.022  -4.977  37.550  1.00  0.00     0.037 A 
HETATM    5  C9  UNK     1      21.417  -6.143  38.326  1.00  0.00    -0.001 A 
HETATM    6  C10 UNK     1      20.522  -7.200  38.453  1.00  0.00     0.089 A 
HETATM    7  C11 UNK     1      18.849  -6.041  37.093  1.00  0.00     0.304 A 
HETATM    8  C12 UNK     1      22.664  -6.236  38.948  1.00  0.00     0.014 A 
HETATM    9  C13 UNK     1      20.838  -8.345  39.182  1.00  0.00     0.038 A 
HETATM   10  C14 UNK     1      22.995  -7.379  39.683  1.00  0.00     0.001 A 
HETATM   11  C15 UNK     1      22.084  -8.430  39.799  1.00  0.00     0.003 A 
ENDROOT
BRANCH   3  12
HETATM   12  C6  UNK     1      19.512  -3.711  36.209  1.00  0.00     0.257 C 
HETATM   13  O3  UNK     1      20.269  -3.313  35.326  1.00  0.00    -0.267 OA
HETATM   14  N1  UNK     1      18.329  -3.112  36.604  1.00  0.00    -0.354 N 
HETATM   15  H10 UNK     1      17.783  -3.509  37.362  1.00  0.00     0.162 HD
BRANCH  14  16
HETATM   16  C5  UNK     1      17.822  -1.900  36.002  1.00  0.00     0.155 C 
BRANCH  16  17
HETATM   17  C1  UNK     1      18.356  -0.688  36.739  1.00  0.00     0.139 C 
HETATM   18  O1  UNK     1      19.144   0.118  35.848  1.00  0.00    -0.384 OA
HETATM   19  C4  UNK     1      18.837   1.500  36.094  1.00  0.00     0.168 C 
HETATM   20  C3  UNK     1      17.984   1.546  37.343  1.00  0.00     0.029 C 
HETATM   21  C2  UNK     1      17.266   0.221  37.280  1.00  0.00     0.035 C 
ENDBRANCH  16  17
ENDBRANCH  14  16
ENDBRANCH   3  12
TORSDOF 3
ENDMDL
MODEL 9
REMARK VINA RESULT:      -7.7      3.060      7.064
REMARK  3 active torsions:
REMARK  status: ('A' for Active; 'I' for Inactive)
REMARK    1  A    between atoms: C5_10  and  N1_5 
REMARK       I    between atoms: C6_11  and  N1_5 
REMARK    2  A    between atoms: C1_6  and  C5_10 
REMARK    3  A    between atoms: C6_11  and  C7_12 
ROOT
HETATM    1  O2  UNK     1      18.946   2.544  30.717  1.00  0.00    -0.274 OA
HETATM    2  O4  UNK     1      18.730   0.424  31.539  1.00  0.00    -0.259 OA
HETATM    3  C7  UNK     1      18.145   2.194  33.001  1.00  0.00     0.108 A 
HETATM    4  C8  UNK     1      18.029   3.513  33.192  1.00  0.00     0.037 A 
HETATM    5  C9  UNK     1      18.374   4.441  32.126  1.00  0.00    -0.001 A 
HETATM    6  C10 UNK     1      18.825   3.934  30.912  1.00  0.00     0.089 A 
HETATM    7  C11 UNK     1      18.624   1.632  31.718  1.00  0.00     0.304 A 
HETATM    8  C12 UNK     1      18.269   5.826  32.280  1.00  0.00     0.014 A 
HETATM    9  C13 UNK     1      19.172   4.769  29.851  1.00  0.00     0.038 A 
HETATM   10  C14 UNK     1      18.614   6.676  31.225  1.00  0.00     0.001 A 
HETATM   11  C15 UNK     1      19.064   6.148  30.014  1.00  0.00     0.003 A 
ENDROOT
BRANCH   3  12
HETATM   12  C6  UNK     1      17.772   1.340  34.135  1.00  0.00     0.257 C 
HETATM   13  O3  UNK     1      16.645   0.854  34.215  1.00  0.00    -0.267 OA
HETATM   14  N1  UNK     1      18.801   1.173  35.044  1.00  0.00    -0.354 N 
HETATM   15  H10 UNK     1      19.692   1.636  34.898  1.00  0.00     0.162 HD
BRANCH  14  16
HETATM   16  C5  UNK     1      18.670   0.376  36.243  1.00  0.00     0.155 C 
BRANCH  16  17
HETATM   17  C1  UNK     1      18.881  -1.090  35.920  1.00  0.00     0.139 C 
HETATM   18  O1  UNK     1      20.235  -1.306  35.488  1.00  0.00    -0.384 OA
HETATM   19  C4  UNK     1      20.714  -2.521  36.084  1.00  0.00     0.168 C 
HETATM   20  C3  UNK     1      19.524  -3.192  36.736  1.00  0.00     0.029 C 
HETATM   21  C2  UNK     1      18.666  -2.009  37.111  1.00  0.00     0.035 C 
ENDBRANCH  16  17
ENDBRANCH  14  16
ENDBRANCH   3  12
TORSDOF 3
ENDMDL
MODEL 10
REMARK VINA RESULT:      -7.7     14.847     16.755
REMARK  3 active torsions:
REMARK  status: ('A' for Active; 'I' for Inactive)
REMARK    1  A    between atoms: C5_10  and  N1_5 
REMARK       I    between atoms: C6_11  and  N1_5 
REMARK    2  A    between atoms: C1_6  and  C5_10 
REMARK    3  A    between atoms: C6_11  and  C7_12 
ROOT
HETATM    1  O2  UNK     1      19.520  -2.111  12.779  1.00  0.00    -0.274 OA
HETATM    2  O4  UNK     1      19.350  -0.319  14.187  1.00  0.00    -0.259 OA
HETATM    3  C7  UNK     1      18.518  -2.386  14.993  1.00  0.00     0.108 A 
HETATM    4  C8  UNK     1      18.307  -3.687  14.766  1.00  0.00     0.037 A 
HETATM    5  C9  UNK     1      18.702  -4.284  13.499  1.00  0.00    -0.001 A 
HETATM    6  C10 UNK     1      19.300  -3.480  12.534  1.00  0.00     0.089 A 
HETATM    7  C11 UNK     1      19.153  -1.511  13.981  1.00  0.00     0.304 A 
HETATM    8  C12 UNK     1      18.500  -5.637  13.218  1.00  0.00     0.014 A 
HETATM    9  C13 UNK     1      19.702  -3.990  11.301  1.00  0.00     0.038 A 
HETATM   10  C14 UNK     1      18.897  -6.163  11.985  1.00  0.00     0.001 A 
HETATM   11  C15 UNK     1      19.497  -5.340  11.029  1.00  0.00     0.003 A 
ENDROOT
BRANCH   3  12
HETATM   12  C6  UNK     1      18.086  -1.878  16.301  1.00  0.00     0.257 C 
HETATM   13  O3  UNK     1      16.948  -2.088  16.716  1.00  0.00    -0.267 OA
HETATM   14  N1  UNK     1      19.079  -1.171  16.957  1.00  0.00    -0.354 N 
HETATM   15  H10 UNK     1      19.984  -1.034  16.519  1.00  0.00     0.162 HD
BRANCH  14  16
HETATM   16  C5  UNK     1      18.888  -0.572  18.259  1.00  0.00     0.155 C 
BRANCH  16  17
HETATM   17  C1  UNK     1      19.505   0.812  18.291  1.00  0.00     0.139 C 
HETATM   18  O1  UNK     1      19.525   1.369  16.965  1.00  0.00    -0.384 OA
HETATM   19  C4  UNK     1      19.154   2.754  17.049  1.00  0.00     0.168 C 
HETATM   20  C3  UNK     1      19.118   3.114  18.518  1.00  0.00     0.029 C 
HETATM   21  C2  UNK     1      18.735   1.799  19.152  1.00  0.00     0.035 C 
ENDBRANCH  16  17
ENDBRANCH  14  16
ENDBRANCH   3  12
TORSDOF 3
ENDMDL
