MODEL 1
REMARK VINA RESULT:     -10.8      0.000      0.000
REMARK  6 active torsions:
REMARK  status: ('A' for Active; 'I' for Inactive)
REMARK    1  A    between atoms: C19_27  and  O4_5 
REMARK    2  A    between atoms: C5_13  and  N1_6 
REMARK    3  A    between atoms: C6_14  and  N2_7 
REMARK    4  A    between atoms: C17_25  and  N3_8 
REMARK       I    between atoms: C9_17  and  N3_8 
REMARK    5  A    between atoms: C5_13  and  C7_15 
REMARK    6  A    between atoms: C6_14  and  C9_17 
ROOT
HETATM    1  N1  UNK     1      19.282  -3.157  36.244  1.00  0.00     0.096 N 
HETATM    2  N2  UNK     1      18.291  -0.543  35.505  1.00  0.00     0.100 N 
HETATM    3  C1  UNK     1      20.023  -2.296  35.314  1.00  0.00     0.303 C 
HETATM    4  C2  UNK     1      18.499  -2.344  37.184  1.00  0.00     0.303 C 
HETATM    5  C3  UNK     1      19.071  -1.357  34.564  1.00  0.00     0.303 C 
HETATM    6  C4  UNK     1      17.549  -1.405  36.434  1.00  0.00     0.303 C 
ENDROOT
BRANCH   2   7
HETATM    7  C6  UNK     1      17.383   0.351  34.789  1.00  0.00     0.375 C 
BRANCH   7   8
HETATM    8  C9  UNK     1      18.149   1.573  34.312  1.00  0.00     0.250 C 
HETATM    9  O2  UNK     1      19.055   2.080  34.965  1.00  0.00    -0.271 OA
HETATM   10  N3  UNK     1      17.669   1.988  33.071  1.00  0.00    -0.323 N 
HETATM   11  H15 UNK     1      16.908   1.457  32.655  1.00  0.00     0.169 HD
BRANCH  10  12
HETATM   12  C17 UNK     1      18.117   3.084  32.296  1.00  0.00     0.070 A 
HETATM   13  C19 UNK     1      18.400   2.927  30.940  1.00  0.00     0.095 A 
HETATM   14  C21 UNK     1      18.841   4.016  30.188  1.00  0.00     0.041 A 
HETATM   15  C23 UNK     1      19.000   5.263  30.793  1.00  0.00     0.026 A 
HETATM   16  C22 UNK     1      18.718   5.419  32.150  1.00  0.00     0.036 A 
HETATM   17  C20 UNK     1      18.276   4.331  32.902  1.00  0.00     0.056 A 
HETATM   18 Cl1  UNK     1      18.914   6.958  32.897  1.00  0.00    -0.084 Cl
BRANCH  13  19
HETATM   19  O4  UNK     1      18.251   1.717  30.329  1.00  0.00    -0.354 OA
HETATM   20  C24 UNK     1      17.961   1.728  28.933  1.00  0.00     0.210 C 
ENDBRANCH  13  19
ENDBRANCH  10  12
ENDBRANCH   7   8
ENDBRANCH   2   7
BRANCH   1  21
HETATM   21  C5  UNK     1      20.191  -4.050  36.961  1.00  0.00     0.312 C 
BRANCH  21  22
HETATM   22  C7  UNK     1      20.182  -5.429  36.400  1.00  0.00    -0.011 A 
HETATM   23  C10 UNK     1      20.267  -5.642  35.080  1.00  0.00     0.092 A 
HETATM   24  C13 UNK     1      20.262  -6.987  34.481  1.00  0.00     0.288 A 
HETATM   25  O1  UNK     1      20.163  -8.058  35.355  1.00  0.00    -0.275 OA
HETATM   26  O3  UNK     1      20.342  -7.143  33.267  1.00  0.00    -0.260 OA
HETATM   27  C11 UNK     1      20.072  -7.866  36.748  1.00  0.00     0.090 A 
HETATM   28  C8  UNK     1      20.077  -6.585  37.302  1.00  0.00     0.006 A 
HETATM   29  C14 UNK     1      19.976  -9.018  37.533  1.00  0.00     0.045 A 
HETATM   30  C12 UNK     1      19.982  -6.479  38.696  1.00  0.00     0.015 A 
HETATM   31  C16 UNK     1      19.886  -7.623  39.496  1.00  0.00     0.007 A 
HETATM   32  C15 UNK     1      19.882  -8.891  38.915  1.00  0.00    -0.059 A 
HETATM   33  C18 UNK     1      19.779 -10.106  39.773  1.00  0.00     0.048 C 
ENDBRANCH  21  22
ENDBRANCH   1  21
TORSDOF 6
ENDMDL
MODEL 2
REMARK VINA RESULT:     -10.2      2.105      2.631
REMARK  6 active torsions:
REMARK  status: ('A' for Active; 'I' for Inactive)
REMARK    1  A    between atoms: C19_27  and  O4_5 
REMARK    2  A    between atoms: C5_13  and  N1_6 
REMARK    3  A    between atoms: C6_14  and  N2_7 
REMARK    4  A    between atoms: C17_25  and  N3_8 
REMARK       I    between atoms: C9_17  and  N3_8 
REMARK    5  A    between atoms: C5_13  and  C7_15 
REMARK    6  A    between atoms: C6_14  and  C9_17 
ROOT
HETATM    1  N1  UNK     1      19.515  -3.440  36.509  1.00  0.00     0.096 N 
HETATM    2  N2  UNK     1      18.749  -0.685  36.085  1.00  0.00     0.100 N 
HETATM    3  C1  UNK     1      20.429  -2.484  35.870  1.00  0.00     0.303 C 
HETATM    4  C2  UNK     1      18.615  -2.747  37.439  1.00  0.00     0.303 C 
HETATM    5  C3  UNK     1      19.647  -1.379  35.153  1.00  0.00     0.303 C 
HETATM    6  C4  UNK     1      17.835  -1.640  36.722  1.00  0.00     0.303 C 
ENDROOT
BRANCH   2   7
HETATM    7  C6  UNK     1      18.003   0.369  35.399  1.00  0.00     0.375 C 
BRANCH   7   8
HETATM    8  C9  UNK     1      17.924   0.050  33.916  1.00  0.00     0.250 C 
HETATM    9  O2  UNK     1      17.238  -0.865  33.474  1.00  0.00    -0.271 OA
HETATM   10  N3  UNK     1      18.720   0.935  33.190  1.00  0.00    -0.323 N 
HETATM   11  H15 UNK     1      19.231   1.647  33.707  1.00  0.00     0.169 HD
BRANCH  10  12
HETATM   12  C17 UNK     1      18.915   0.969  31.789  1.00  0.00     0.070 A 
HETATM   13  C19 UNK     1      18.330   1.970  31.015  1.00  0.00     0.095 A 
HETATM   14  C21 UNK     1      18.530   1.991  29.634  1.00  0.00     0.041 A 
HETATM   15  C23 UNK     1      19.315   1.009  29.028  1.00  0.00     0.026 A 
HETATM   16  C22 UNK     1      19.898   0.007  29.803  1.00  0.00     0.036 A 
HETATM   17  C20 UNK     1      19.699  -0.013  31.183  1.00  0.00     0.056 A 
HETATM   18 Cl1  UNK     1      20.867  -1.204  29.055  1.00  0.00    -0.084 Cl
BRANCH  13  19
HETATM   19  O4  UNK     1      17.560   2.939  31.586  1.00  0.00    -0.354 OA
HETATM   20  C24 UNK     1      18.155   4.223  31.754  1.00  0.00     0.210 C 
ENDBRANCH  13  19
ENDBRANCH  10  12
ENDBRANCH   7   8
ENDBRANCH   2   7
BRANCH   1  21
HETATM   21  C5  UNK     1      20.262  -4.492  37.196  1.00  0.00     0.312 C 
BRANCH  21  22
HETATM   22  C7  UNK     1      20.212  -5.787  36.462  1.00  0.00    -0.011 A 
HETATM   23  C10 UNK     1      20.364  -5.837  35.131  1.00  0.00     0.092 A 
HETATM   24  C13 UNK     1      20.322  -7.093  34.364  1.00  0.00     0.288 A 
HETATM   25  O1  UNK     1      20.114  -8.257  35.086  1.00  0.00    -0.275 OA
HETATM   26  O3  UNK     1      20.466  -7.099  33.146  1.00  0.00    -0.260 OA
HETATM   27  C11 UNK     1      19.950  -8.237  36.485  1.00  0.00     0.090 A 
HETATM   28  C8  UNK     1      19.992  -7.038  37.200  1.00  0.00     0.006 A 
HETATM   29  C14 UNK     1      19.746  -9.470  37.109  1.00  0.00     0.045 A 
HETATM   30  C12 UNK     1      19.820  -7.104  38.589  1.00  0.00     0.015 A 
HETATM   31  C16 UNK     1      19.615  -8.331  39.228  1.00  0.00     0.007 A 
HETATM   32  C15 UNK     1      19.577  -9.513  38.489  1.00  0.00    -0.059 A 
HETATM   33  C18 UNK     1      19.358 -10.818  39.176  1.00  0.00     0.048 C 
ENDBRANCH  21  22
ENDBRANCH   1  21
TORSDOF 6
ENDMDL
MODEL 3
REMARK VINA RESULT:      -9.7      2.699      3.639
REMARK  6 active torsions:
REMARK  status: ('A' for Active; 'I' for Inactive)
REMARK    1  A    between atoms: C19_27  and  O4_5 
REMARK    2  A    between atoms: C5_13  and  N1_6 
REMARK    3  A    between atoms: C6_14  and  N2_7 
REMARK    4  A    between atoms: C17_25  and  N3_8 
REMARK       I    between atoms: C9_17  and  N3_8 
REMARK    5  A    between atoms: C5_13  and  C7_15 
REMARK    6  A    between atoms: C6_14  and  C9_17 
ROOT
HETATM    1  N1  UNK     1      19.595  -4.124  36.474  1.00  0.00     0.096 N 
HETATM    2  N2  UNK     1      18.673  -1.548  35.542  1.00  0.00     0.100 N 
HETATM    3  C1  UNK     1      18.258  -3.623  36.817  1.00  0.00     0.303 C 
HETATM    4  C2  UNK     1      20.031  -3.580  35.181  1.00  0.00     0.303 C 
HETATM    5  C3  UNK     1      18.238  -2.091  36.835  1.00  0.00     0.303 C 
HETATM    6  C4  UNK     1      20.009  -2.048  35.199  1.00  0.00     0.303 C 
ENDROOT
BRANCH   2   7
HETATM    7  C6  UNK     1      18.654  -0.086  35.560  1.00  0.00     0.375 C 
BRANCH   7   8
HETATM    8  C9  UNK     1      18.018   0.428  34.280  1.00  0.00     0.250 C 
HETATM    9  O2  UNK     1      16.806   0.574  34.158  1.00  0.00    -0.271 OA
HETATM   10  N3  UNK     1      19.000   0.692  33.327  1.00  0.00    -0.323 N 
HETATM   11  H15 UNK     1      19.969   0.520  33.583  1.00  0.00     0.169 HD
BRANCH  10  12
HETATM   12  C17 UNK     1      18.816   1.181  32.012  1.00  0.00     0.070 A 
HETATM   13  C19 UNK     1      18.285   2.452  31.794  1.00  0.00     0.095 A 
HETATM   14  C21 UNK     1      18.109   2.922  30.492  1.00  0.00     0.041 A 
HETATM   15  C23 UNK     1      18.462   2.119  29.407  1.00  0.00     0.026 A 
HETATM   16  C22 UNK     1      18.991   0.847  29.625  1.00  0.00     0.036 A 
HETATM   17  C20 UNK     1      19.169   0.378  30.927  1.00  0.00     0.056 A 
HETATM   18 Cl1  UNK     1      19.427  -0.143  28.287  1.00  0.00    -0.084 Cl
BRANCH  13  19
HETATM   19  O4  UNK     1      17.934   3.253  32.840  1.00  0.00    -0.354 OA
HETATM   20  C24 UNK     1      18.260   4.637  32.734  1.00  0.00     0.210 C 
ENDBRANCH  13  19
ENDBRANCH  10  12
ENDBRANCH   7   8
ENDBRANCH   2   7
BRANCH   1  21
HETATM   21  C5  UNK     1      19.612  -5.586  36.454  1.00  0.00     0.312 C 
BRANCH  21  22
HETATM   22  C7  UNK     1      20.849  -6.142  37.069  1.00  0.00    -0.011 A 
HETATM   23  C10 UNK     1      21.535  -5.453  37.991  1.00  0.00     0.092 A 
HETATM   24  C13 UNK     1      22.762  -5.962  38.627  1.00  0.00     0.288 A 
HETATM   25  O1  UNK     1      23.196  -7.215  38.226  1.00  0.00    -0.275 OA
HETATM   26  O3  UNK     1      23.363  -5.303  39.468  1.00  0.00    -0.260 OA
HETATM   27  C11 UNK     1      22.496  -7.964  37.259  1.00  0.00     0.090 A 
HETATM   28  C8  UNK     1      21.335  -7.468  36.664  1.00  0.00     0.006 A 
HETATM   29  C14 UNK     1      23.026  -9.215  36.932  1.00  0.00     0.045 A 
HETATM   30  C12 UNK     1      20.698  -8.274  35.710  1.00  0.00     0.015 A 
HETATM   31  C16 UNK     1      21.216  -9.529  35.373  1.00  0.00     0.007 A 
HETATM   32  C15 UNK     1      22.379  -9.998  35.982  1.00  0.00    -0.059 A 
HETATM   33  C18 UNK     1      22.926 -11.337  35.617  1.00  0.00     0.048 C 
ENDBRANCH  21  22
ENDBRANCH   1  21
TORSDOF 6
ENDMDL
MODEL 4
REMARK VINA RESULT:      -9.7      5.729     12.748
REMARK  6 active torsions:
REMARK  status: ('A' for Active; 'I' for Inactive)
REMARK    1  A    between atoms: C19_27  and  O4_5 
REMARK    2  A    between atoms: C5_13  and  N1_6 
REMARK    3  A    between atoms: C6_14  and  N2_7 
REMARK    4  A    between atoms: C17_25  and  N3_8 
REMARK       I    between atoms: C9_17  and  N3_8 
REMARK    5  A    between atoms: C5_13  and  C7_15 
REMARK    6  A    between atoms: C6_14  and  C9_17 
ROOT
HETATM    1  N1  UNK     1      18.316   6.325  32.262  1.00  0.00     0.096 N 
HETATM    2  N2  UNK     1      19.023   4.218  30.413  1.00  0.00     0.100 N 
HETATM    3  C1  UNK     1      18.122   4.911  32.607  1.00  0.00     0.303 C 
HETATM    4  C2  UNK     1      19.438   6.476  31.327  1.00  0.00     0.303 C 
HETATM    5  C3  UNK     1      17.900   4.068  31.347  1.00  0.00     0.303 C 
HETATM    6  C4  UNK     1      19.217   5.632  30.068  1.00  0.00     0.303 C 
ENDROOT
BRANCH   2   7
HETATM    7  C6  UNK     1      18.810   3.414  29.210  1.00  0.00     0.375 C 
BRANCH   7   8
HETATM    8  C9  UNK     1      18.517   1.978  29.608  1.00  0.00     0.250 C 
HETATM    9  O2  UNK     1      17.520   1.376  29.220  1.00  0.00    -0.271 OA
HETATM   10  N3  UNK     1      19.524   1.493  30.439  1.00  0.00    -0.323 N 
HETATM   11  H15 UNK     1      20.292   2.119  30.670  1.00  0.00     0.169 HD
BRANCH  10  12
HETATM   12  C17 UNK     1      19.618   0.206  31.020  1.00  0.00     0.070 A 
HETATM   13  C19 UNK     1      19.028  -0.060  32.255  1.00  0.00     0.095 A 
HETATM   14  C21 UNK     1      19.129  -1.334  32.817  1.00  0.00     0.041 A 
HETATM   15  C23 UNK     1      19.821  -2.341  32.143  1.00  0.00     0.026 A 
HETATM   16  C22 UNK     1      20.411  -2.074  30.908  1.00  0.00     0.036 A 
HETATM   17  C20 UNK     1      20.310  -0.801  30.346  1.00  0.00     0.056 A 
HETATM   18 Cl1  UNK     1      21.264  -3.316  30.076  1.00  0.00    -0.084 Cl
BRANCH  13  19
HETATM   19  O4  UNK     1      18.348   0.909  32.930  1.00  0.00    -0.354 OA
HETATM   20  C24 UNK     1      18.219   0.747  34.341  1.00  0.00     0.210 C 
ENDBRANCH  13  19
ENDBRANCH  10  12
ENDBRANCH   7   8
ENDBRANCH   2   7
BRANCH   1  21
HETATM   21  C5  UNK     1      18.531   7.127  33.465  1.00  0.00     0.312 C 
BRANCH  21  22
HETATM   22  C7  UNK     1      17.396   8.052  33.734  1.00  0.00    -0.011 A 
HETATM   23  C10 UNK     1      16.134   7.603  33.792  1.00  0.00     0.092 A 
HETATM   24  C13 UNK     1      14.981   8.480  34.055  1.00  0.00     0.288 A 
HETATM   25  O1  UNK     1      15.252   9.825  34.246  1.00  0.00    -0.275 OA
HETATM   26  O3  UNK     1      13.840   8.033  34.101  1.00  0.00    -0.260 OA
HETATM   27  C11 UNK     1      16.568  10.327  34.192  1.00  0.00     0.090 A 
HETATM   28  C8  UNK     1      17.652   9.484  33.941  1.00  0.00     0.006 A 
HETATM   29  C14 UNK     1      16.723  11.700  34.399  1.00  0.00     0.045 A 
HETATM   30  C12 UNK     1      18.928  10.061  33.902  1.00  0.00     0.015 A 
HETATM   31  C16 UNK     1      19.100  11.434  34.108  1.00  0.00     0.007 A 
HETATM   32  C15 UNK     1      17.998  12.252  34.356  1.00  0.00    -0.059 A 
HETATM   33  C18 UNK     1      18.189  13.715  34.575  1.00  0.00     0.048 C 
ENDBRANCH  21  22
ENDBRANCH   1  21
TORSDOF 6
ENDMDL
MODEL 5
REMARK VINA RESULT:      -9.4      1.873      2.442
REMARK  6 active torsions:
REMARK  status: ('A' for Active; 'I' for Inactive)
REMARK    1  A    between atoms: C19_27  and  O4_5 
REMARK    2  A    between atoms: C5_13  and  N1_6 
REMARK    3  A    between atoms: C6_14  and  N2_7 
REMARK    4  A    between atoms: C17_25  and  N3_8 
REMARK       I    between atoms: C9_17  and  N3_8 
REMARK    5  A    between atoms: C5_13  and  C7_15 
REMARK    6  A    between atoms: C6_14  and  C9_17 
ROOT
HETATM    1  N1  UNK     1      19.583  -3.788  36.484  1.00  0.00     0.096 N 
HETATM    2  N2  UNK     1      18.436  -1.179  35.996  1.00  0.00     0.100 N 
HETATM    3  C1  UNK     1      18.181  -3.498  36.811  1.00  0.00     0.303 C 
HETATM    4  C2  UNK     1      20.030  -2.956  35.359  1.00  0.00     0.303 C 
HETATM    5  C3  UNK     1      17.991  -2.009  37.122  1.00  0.00     0.303 C 
HETATM    6  C4  UNK     1      19.837  -1.468  35.669  1.00  0.00     0.303 C 
ENDROOT
BRANCH   2   7
HETATM    7  C6  UNK     1      18.255   0.241  36.294  1.00  0.00     0.375 C 
BRANCH   7   8
HETATM    8  C9  UNK     1      17.678   0.943  35.077  1.00  0.00     0.250 C 
HETATM    9  O2  UNK     1      16.573   0.672  34.619  1.00  0.00    -0.271 OA
HETATM   10  N3  UNK     1      18.575   1.900  34.603  1.00  0.00    -0.323 N 
HETATM   11  H15 UNK     1      19.457   2.008  35.097  1.00  0.00     0.169 HD
BRANCH  10  12
HETATM   12  C17 UNK     1      18.410   2.760  33.492  1.00  0.00     0.070 A 
HETATM   13  C19 UNK     1      18.467   2.261  32.192  1.00  0.00     0.095 A 
HETATM   14  C21 UNK     1      18.304   3.121  31.105  1.00  0.00     0.041 A 
HETATM   15  C23 UNK     1      18.084   4.482  31.320  1.00  0.00     0.026 A 
HETATM   16  C22 UNK     1      18.028   4.982  32.621  1.00  0.00     0.036 A 
HETATM   17  C20 UNK     1      18.191   4.121  33.707  1.00  0.00     0.056 A 
HETATM   18 Cl1  UNK     1      17.757   6.661  32.887  1.00  0.00    -0.084 Cl
BRANCH  13  19
HETATM   19  O4  UNK     1      18.681   0.935  31.959  1.00  0.00    -0.354 OA
HETATM   20  C24 UNK     1      19.475   0.595  30.826  1.00  0.00     0.210 C 
ENDBRANCH  13  19
ENDBRANCH  10  12
ENDBRANCH   7   8
ENDBRANCH   2   7
BRANCH   1  21
HETATM   21  C5  UNK     1      19.762  -5.207  36.184  1.00  0.00     0.312 C 
BRANCH  21  22
HETATM   22  C7  UNK     1      20.609  -5.893  37.199  1.00  0.00    -0.011 A 
HETATM   23  C10 UNK     1      21.712  -5.310  37.690  1.00  0.00     0.092 A 
HETATM   24  C13 UNK     1      22.578  -5.949  38.695  1.00  0.00     0.288 A 
HETATM   25  O1  UNK     1      22.205  -7.211  39.128  1.00  0.00    -0.275 OA
HETATM   26  O3  UNK     1      23.580  -5.385  39.121  1.00  0.00    -0.260 OA
HETATM   27  C11 UNK     1      21.051  -7.849  38.630  1.00  0.00     0.090 A 
HETATM   28  C8  UNK     1      20.239  -7.231  37.677  1.00  0.00     0.006 A 
HETATM   29  C14 UNK     1      20.771  -9.121  39.137  1.00  0.00     0.045 A 
HETATM   30  C12 UNK     1      19.110  -7.933  37.233  1.00  0.00     0.015 A 
HETATM   31  C16 UNK     1      18.816  -9.207  37.732  1.00  0.00     0.007 A 
HETATM   32  C15 UNK     1      19.646  -9.800  38.683  1.00  0.00    -0.059 A 
HETATM   33  C18 UNK     1      19.327 -11.158  39.210  1.00  0.00     0.048 C 
ENDBRANCH  21  22
ENDBRANCH   1  21
TORSDOF 6
ENDMDL
MODEL 6
REMARK VINA RESULT:      -9.3      4.937      8.198
REMARK  6 active torsions:
REMARK  status: ('A' for Active; 'I' for Inactive)
REMARK    1  A    between atoms: C19_27  and  O4_5 
REMARK    2  A    between atoms: C5_13  and  N1_6 
REMARK    3  A    between atoms: C6_14  and  N2_7 
REMARK    4  A    between atoms: C17_25  and  N3_8 
REMARK       I    between atoms: C9_17  and  N3_8 
REMARK    5  A    between atoms: C5_13  and  C7_15 
REMARK    6  A    between atoms: C6_14  and  C9_17 
ROOT
HETATM    1  N1  UNK     1      18.862   3.735  31.291  1.00  0.00     0.096 N 
HETATM    2  N2  UNK     1      19.232   6.390  32.375  1.00  0.00     0.100 N 
HETATM    3  C1  UNK     1      17.948   4.279  32.303  1.00  0.00     0.303 C 
HETATM    4  C2  UNK     1      19.433   4.818  30.479  1.00  0.00     0.303 C 
HETATM    5  C3  UNK     1      18.663   5.306  33.187  1.00  0.00     0.303 C 
HETATM    6  C4  UNK     1      20.146   5.846  31.363  1.00  0.00     0.303 C 
ENDROOT
BRANCH   2   7
HETATM    7  C6  UNK     1      19.914   7.368  33.219  1.00  0.00     0.375 C 
BRANCH   7   8
HETATM    8  C9  UNK     1      18.908   8.022  34.150  1.00  0.00     0.250 C 
HETATM    9  O2  UNK     1      18.999   7.955  35.372  1.00  0.00    -0.271 OA
HETATM   10  N3  UNK     1      17.924   8.678  33.413  1.00  0.00    -0.323 N 
HETATM   11  H15 UNK     1      17.990   8.643  32.398  1.00  0.00     0.169 HD
BRANCH  10  12
HETATM   12  C17 UNK     1      16.815   9.403  33.908  1.00  0.00     0.070 A 
HETATM   13  C19 UNK     1      15.560   8.803  34.005  1.00  0.00     0.095 A 
HETATM   14  C21 UNK     1      14.474   9.530  34.495  1.00  0.00     0.041 A 
HETATM   15  C23 UNK     1      14.644  10.859  34.887  1.00  0.00     0.026 A 
HETATM   16  C22 UNK     1      15.900  11.459  34.789  1.00  0.00     0.036 A 
HETATM   17  C20 UNK     1      16.985  10.731  34.300  1.00  0.00     0.056 A 
HETATM   18 Cl1  UNK     1      16.110  13.097  35.273  1.00  0.00    -0.084 Cl
BRANCH  13  19
HETATM   19  O4  UNK     1      15.372   7.507  33.628  1.00  0.00    -0.354 OA
HETATM   20  C24 UNK     1      14.735   7.284  32.372  1.00  0.00     0.210 C 
ENDBRANCH  13  19
ENDBRANCH  10  12
ENDBRANCH   7   8
ENDBRANCH   2   7
BRANCH   1  21
HETATM   21  C5  UNK     1      18.177   2.758  30.446  1.00  0.00     0.312 C 
BRANCH  21  22
HETATM   22  C7  UNK     1      18.859   1.434  30.453  1.00  0.00    -0.011 A 
HETATM   23  C10 UNK     1      19.459   0.957  29.352  1.00  0.00     0.092 A 
HETATM   24  C13 UNK     1      20.145  -0.345  29.312  1.00  0.00     0.288 A 
HETATM   25  O1  UNK     1      20.150  -1.083  30.485  1.00  0.00    -0.275 OA
HETATM   26  O3  UNK     1      20.683  -0.748  28.287  1.00  0.00    -0.260 OA
HETATM   27  C11 UNK     1      19.529  -0.608  31.657  1.00  0.00     0.090 A 
HETATM   28  C8  UNK     1      18.881   0.628  31.681  1.00  0.00     0.006 A 
HETATM   29  C14 UNK     1      19.596  -1.437  32.780  1.00  0.00     0.045 A 
HETATM   30  C12 UNK     1      18.287   1.028  32.886  1.00  0.00     0.015 A 
HETATM   31  C16 UNK     1      18.347   0.210  34.019  1.00  0.00     0.007 A 
HETATM   32  C15 UNK     1      19.000  -1.021  33.966  1.00  0.00    -0.059 A 
HETATM   33  C18 UNK     1      19.059  -1.888  35.178  1.00  0.00     0.048 C 
ENDBRANCH  21  22
ENDBRANCH   1  21
TORSDOF 6
ENDMDL
MODEL 7
REMARK VINA RESULT:      -9.2      6.315      9.933
REMARK  6 active torsions:
REMARK  status: ('A' for Active; 'I' for Inactive)
REMARK    1  A    between atoms: C19_27  and  O4_5 
REMARK    2  A    between atoms: C5_13  and  N1_6 
REMARK    3  A    between atoms: C6_14  and  N2_7 
REMARK    4  A    between atoms: C17_25  and  N3_8 
REMARK       I    between atoms: C9_17  and  N3_8 
REMARK    5  A    between atoms: C5_13  and  C7_15 
REMARK    6  A    between atoms: C6_14  and  C9_17 
ROOT
HETATM    1  N1  UNK     1      18.485   4.949  32.554  1.00  0.00     0.096 N 
HETATM    2  N2  UNK     1      18.640   7.752  33.245  1.00  0.00     0.100 N 
HETATM    3  C1  UNK     1      17.275   5.735  32.826  1.00  0.00     0.303 C 
HETATM    4  C2  UNK     1      19.547   5.810  32.016  1.00  0.00     0.303 C 
HETATM    5  C3  UNK     1      17.580   6.890  33.784  1.00  0.00     0.303 C 
HETATM    6  C4  UNK     1      19.850   6.966  32.973  1.00  0.00     0.303 C 
ENDROOT
BRANCH   2   7
HETATM    7  C6  UNK     1      18.931   8.853  34.161  1.00  0.00     0.375 C 
BRANCH   7   8
HETATM    8  C9  UNK     1      18.115  10.071  33.762  1.00  0.00     0.250 C 
HETATM    9  O2  UNK     1      17.030   9.982  33.196  1.00  0.00    -0.271 OA
HETATM   10  N3  UNK     1      18.778  11.238  34.136  1.00  0.00    -0.323 N 
HETATM   11  H15 UNK     1      19.677  11.145  34.602  1.00  0.00     0.169 HD
BRANCH  10  12
HETATM   12  C17 UNK     1      18.350  12.573  33.942  1.00  0.00     0.070 A 
HETATM   13  C19 UNK     1      17.350  13.122  34.743  1.00  0.00     0.095 A 
HETATM   14  C21 UNK     1      16.937  14.440  34.541  1.00  0.00     0.041 A 
HETATM   15  C23 UNK     1      17.525  15.208  33.535  1.00  0.00     0.026 A 
HETATM   16  C22 UNK     1      18.525  14.658  32.733  1.00  0.00     0.036 A 
HETATM   17  C20 UNK     1      18.938  13.341  32.936  1.00  0.00     0.056 A 
HETATM   18 Cl1  UNK     1      19.250  15.606  31.493  1.00  0.00    -0.084 Cl
BRANCH  13  19
HETATM   19  O4  UNK     1      16.763  12.389  35.731  1.00  0.00    -0.354 OA
HETATM   20  C24 UNK     1      15.379  12.085  35.577  1.00  0.00     0.210 C 
ENDBRANCH  13  19
ENDBRANCH  10  12
ENDBRANCH   7   8
ENDBRANCH   2   7
BRANCH   1  21
HETATM   21  C5  UNK     1      18.194   3.848  31.636  1.00  0.00     0.312 C 
BRANCH  21  22
HETATM   22  C7  UNK     1      18.379   2.518  32.278  1.00  0.00    -0.011 A 
HETATM   23  C10 UNK     1      18.043   2.313  33.559  1.00  0.00     0.092 A 
HETATM   24  C13 UNK     1      18.208   1.015  34.236  1.00  0.00     0.288 A 
HETATM   25  O1  UNK     1      18.738  -0.018  33.480  1.00  0.00    -0.275 OA
HETATM   26  O3  UNK     1      17.889   0.865  35.410  1.00  0.00    -0.260 OA
HETATM   27  C11 UNK     1      19.101   0.167  32.131  1.00  0.00     0.090 A 
HETATM   28  C8  UNK     1      18.939   1.403  31.503  1.00  0.00     0.006 A 
HETATM   29  C14 UNK     1      19.626  -0.945  31.466  1.00  0.00     0.045 A 
HETATM   30  C12 UNK     1      19.325   1.504  30.159  1.00  0.00     0.015 A 
HETATM   31  C16 UNK     1      19.852   0.400  29.480  1.00  0.00     0.007 A 
HETATM   32  C15 UNK     1      20.002  -0.823  30.133  1.00  0.00    -0.059 A 
HETATM   33  C18 UNK     1      20.565  -1.995  29.403  1.00  0.00     0.048 C 
ENDBRANCH  21  22
ENDBRANCH   1  21
TORSDOF 6
ENDMDL
MODEL 8
REMARK VINA RESULT:      -9.1     14.415     17.426
REMARK  6 active torsions:
REMARK  status: ('A' for Active; 'I' for Inactive)
REMARK    1  A    between atoms: C19_27  and  O4_5 
REMARK    2  A    between atoms: C5_13  and  N1_6 
REMARK    3  A    between atoms: C6_14  and  N2_7 
REMARK    4  A    between atoms: C17_25  and  N3_8 
REMARK       I    between atoms: C9_17  and  N3_8 
REMARK    5  A    between atoms: C5_13  and  C7_15 
REMARK    6  A    between atoms: C6_14  and  C9_17 
ROOT
HETATM    1  N1  UNK     1      32.167  -6.063  35.962  1.00  0.00     0.096 N 
HETATM    2  N2  UNK     1      34.800  -6.562  34.876  1.00  0.00     0.100 N 
HETATM    3  C1  UNK     1      33.074  -4.959  35.623  1.00  0.00     0.303 C 
HETATM    4  C2  UNK     1      32.431  -7.226  35.104  1.00  0.00     0.303 C 
HETATM    5  C3  UNK     1      34.536  -5.401  35.736  1.00  0.00     0.303 C 
HETATM    6  C4  UNK     1      33.894  -7.666  35.215  1.00  0.00     0.303 C 
ENDROOT
BRANCH   2   7
HETATM    7  C6  UNK     1      36.195  -6.983  34.985  1.00  0.00     0.375 C 
BRANCH   7   8
HETATM    8  C9  UNK     1      36.593  -7.746  33.734  1.00  0.00     0.250 C 
HETATM    9  O2  UNK     1      36.593  -7.233  32.619  1.00  0.00    -0.271 OA
HETATM   10  N3  UNK     1      36.942  -9.056  34.058  1.00  0.00    -0.323 N 
HETATM   11  H15 UNK     1      36.892  -9.332  35.036  1.00  0.00     0.169 HD
BRANCH  10  12
HETATM   12  C17 UNK     1      37.366 -10.079  33.178  1.00  0.00     0.070 A 
HETATM   13  C19 UNK     1      36.472 -11.054  32.737  1.00  0.00     0.095 A 
HETATM   14  C21 UNK     1      36.904 -12.057  31.869  1.00  0.00     0.041 A 
HETATM   15  C23 UNK     1      38.233 -12.085  31.443  1.00  0.00     0.026 A 
HETATM   16  C22 UNK     1      39.127 -11.111  31.884  1.00  0.00     0.036 A 
HETATM   17  C20 UNK     1      38.695 -10.107  32.751  1.00  0.00     0.056 A 
HETATM   18 Cl1  UNK     1      40.766 -11.146  31.358  1.00  0.00    -0.084 Cl
BRANCH  13  19
HETATM   19  O4  UNK     1      35.170 -11.044  33.141  1.00  0.00    -0.354 OA
HETATM   20  C24 UNK     1      34.222 -10.452  32.257  1.00  0.00     0.210 C 
ENDBRANCH  13  19
ENDBRANCH  10  12
ENDBRANCH   7   8
ENDBRANCH   2   7
BRANCH   1  21
HETATM   21  C5  UNK     1      30.772  -5.642  35.850  1.00  0.00     0.312 C 
BRANCH  21  22
HETATM   22  C7  UNK     1      30.086  -5.613  37.172  1.00  0.00    -0.011 A 
HETATM   23  C10 UNK     1      30.111  -4.516  37.942  1.00  0.00     0.092 A 
HETATM   24  C13 UNK     1      29.448  -4.440  39.255  1.00  0.00     0.288 A 
HETATM   25  O1  UNK     1      28.778  -5.576  39.680  1.00  0.00    -0.275 OA
HETATM   26  O3  UNK     1      29.492  -3.419  39.932  1.00  0.00    -0.260 OA
HETATM   27  C11 UNK     1      28.735  -6.744  38.893  1.00  0.00     0.090 A 
HETATM   28  C8  UNK     1      29.368  -6.801  37.651  1.00  0.00     0.006 A 
HETATM   29  C14 UNK     1      28.030  -7.829  39.422  1.00  0.00     0.045 A 
HETATM   30  C12 UNK     1      29.278  -8.000  36.930  1.00  0.00     0.015 A 
HETATM   31  C16 UNK     1      28.576  -9.095  37.446  1.00  0.00     0.007 A 
HETATM   32  C15 UNK     1      27.954  -9.009  38.691  1.00  0.00    -0.059 A 
HETATM   33  C18 UNK     1      27.207 -10.180  39.234  1.00  0.00     0.048 C 
ENDBRANCH  21  22
ENDBRANCH   1  21
TORSDOF 6
ENDMDL
MODEL 9
REMARK VINA RESULT:      -9.0     11.907     13.860
REMARK  6 active torsions:
REMARK  status: ('A' for Active; 'I' for Inactive)
REMARK    1  A    between atoms: C19_27  and  O4_5 
REMARK    2  A    between atoms: C5_13  and  N1_6 
REMARK    3  A    between atoms: C6_14  and  N2_7 
REMARK    4  A    between atoms: C17_25  and  N3_8 
REMARK       I    between atoms: C9_17  and  N3_8 
REMARK    5  A    between atoms: C5_13  and  C7_15 
REMARK    6  A    between atoms: C6_14  and  C9_17 
ROOT
HETATM    1  N1  UNK     1      32.353  -6.695  36.368  1.00  0.00     0.096 N 
HETATM    2  N2  UNK     1      33.353  -6.884  33.662  1.00  0.00     0.100 N 
HETATM    3  C1  UNK     1      33.490  -7.561  36.035  1.00  0.00     0.303 C 
HETATM    4  C2  UNK     1      32.293  -5.550  35.451  1.00  0.00     0.303 C 
HETATM    5  C3  UNK     1      33.410  -8.030  34.578  1.00  0.00     0.303 C 
HETATM    6  C4  UNK     1      32.215  -6.019  33.995  1.00  0.00     0.303 C 
ENDROOT
BRANCH   2   7
HETATM    7  C6  UNK     1      33.275  -7.333  32.273  1.00  0.00     0.375 C 
BRANCH   7   8
HETATM    8  C9  UNK     1      31.967  -8.072  32.052  1.00  0.00     0.250 C 
HETATM    9  O2  UNK     1      31.770  -9.206  32.478  1.00  0.00    -0.271 OA
HETATM   10  N3  UNK     1      31.081  -7.278  31.327  1.00  0.00    -0.323 N 
HETATM   11  H15 UNK     1      31.395  -6.352  31.046  1.00  0.00     0.169 HD
BRANCH  10  12
HETATM   12  C17 UNK     1      29.766  -7.605  30.919  1.00  0.00     0.070 A 
HETATM   13  C19 UNK     1      28.665  -6.980  31.504  1.00  0.00     0.095 A 
HETATM   14  C21 UNK     1      27.374  -7.312  31.093  1.00  0.00     0.041 A 
HETATM   15  C23 UNK     1      27.184  -8.270  30.096  1.00  0.00     0.026 A 
HETATM   16  C22 UNK     1      28.285  -8.894  29.512  1.00  0.00     0.036 A 
HETATM   17  C20 UNK     1      29.576  -8.562  29.922  1.00  0.00     0.056 A 
HETATM   18 Cl1  UNK     1      28.051 -10.076  28.282  1.00  0.00    -0.084 Cl
BRANCH  13  19
HETATM   19  O4  UNK     1      28.828  -6.042  32.479  1.00  0.00    -0.354 OA
HETATM   20  C24 UNK     1      28.535  -6.439  33.816  1.00  0.00     0.210 C 
ENDBRANCH  13  19
ENDBRANCH  10  12
ENDBRANCH   7   8
ENDBRANCH   2   7
BRANCH   1  21
HETATM   21  C5  UNK     1      32.432  -6.246  37.757  1.00  0.00     0.312 C 
BRANCH  21  22
HETATM   22  C7  UNK     1      31.088  -5.984  38.341  1.00  0.00    -0.011 A 
HETATM   23  C10 UNK     1      30.725  -4.751  38.722  1.00  0.00     0.092 A 
HETATM   24  C13 UNK     1      29.407  -4.445  39.303  1.00  0.00     0.288 A 
HETATM   25  O1  UNK     1      28.528  -5.506  39.447  1.00  0.00    -0.275 OA
HETATM   26  O3  UNK     1      29.111  -3.304  39.640  1.00  0.00    -0.260 OA
HETATM   27  C11 UNK     1      28.881  -6.813  39.056  1.00  0.00     0.090 A 
HETATM   28  C8  UNK     1      30.134  -7.089  38.506  1.00  0.00     0.006 A 
HETATM   29  C14 UNK     1      27.915  -7.805  39.248  1.00  0.00     0.045 A 
HETATM   30  C12 UNK     1      30.407  -8.415  38.143  1.00  0.00     0.015 A 
HETATM   31  C16 UNK     1      29.450  -9.419  38.329  1.00  0.00     0.007 A 
HETATM   32  C15 UNK     1      28.207  -9.115  38.881  1.00  0.00    -0.059 A 
HETATM   33  C18 UNK     1      27.192 -10.190  39.076  1.00  0.00     0.048 C 
ENDBRANCH  21  22
ENDBRANCH   1  21
TORSDOF 6
ENDMDL
MODEL 10
REMARK VINA RESULT:      -8.9     10.171     13.412
REMARK  6 active torsions:
REMARK  status: ('A' for Active; 'I' for Inactive)
REMARK    1  A    between atoms: C19_27  and  O4_5 
REMARK    2  A    between atoms: C5_13  and  N1_6 
REMARK    3  A    between atoms: C6_14  and  N2_7 
REMARK    4  A    between atoms: C17_25  and  N3_8 
REMARK       I    between atoms: C9_17  and  N3_8 
REMARK    5  A    between atoms: C5_13  and  C7_15 
REMARK    6  A    between atoms: C6_14  and  C9_17 
ROOT
HETATM    1  N1  UNK     1      26.844  -9.379  37.461  1.00  0.00     0.096 N 
HETATM    2  N2  UNK     1      29.711  -9.097  37.705  1.00  0.00     0.100 N 
HETATM    3  C1  UNK     1      27.484  -9.203  38.771  1.00  0.00     0.303 C 
HETATM    4  C2  UNK     1      27.639  -8.731  36.410  1.00  0.00     0.303 C 
HETATM    5  C3  UNK     1      28.916  -9.747  38.755  1.00  0.00     0.303 C 
HETATM    6  C4  UNK     1      29.071  -9.274  36.396  1.00  0.00     0.303 C 
ENDROOT
BRANCH   2   7
HETATM    7  C6  UNK     1      31.077  -9.617  37.690  1.00  0.00     0.375 C 
BRANCH   7   8
HETATM    8  C9  UNK     1      32.057  -8.462  37.580  1.00  0.00     0.250 C 
HETATM    9  O2  UNK     1      32.466  -7.847  38.560  1.00  0.00    -0.271 OA
HETATM   10  N3  UNK     1      32.393  -8.241  36.246  1.00  0.00    -0.323 N 
HETATM   11  H15 UNK     1      31.968  -8.842  35.543  1.00  0.00     0.169 HD
BRANCH  10  12
HETATM   12  C17 UNK     1      33.272  -7.260  35.729  1.00  0.00     0.070 A 
HETATM   13  C19 UNK     1      32.815  -5.973  35.449  1.00  0.00     0.095 A 
HETATM   14  C21 UNK     1      33.693  -5.015  34.939  1.00  0.00     0.041 A 
HETATM   15  C23 UNK     1      35.028  -5.346  34.708  1.00  0.00     0.026 A 
HETATM   16  C22 UNK     1      35.485  -6.634  34.987  1.00  0.00     0.036 A 
HETATM   17  C20 UNK     1      34.607  -7.591  35.498  1.00  0.00     0.056 A 
HETATM   18 Cl1  UNK     1      37.133  -7.043  34.702  1.00  0.00    -0.084 Cl
BRANCH  13  19
HETATM   19  O4  UNK     1      31.514  -5.628  35.668  1.00  0.00    -0.354 OA
HETATM   20  C24 UNK     1      31.238  -4.843  36.825  1.00  0.00     0.210 C 
ENDBRANCH  13  19
ENDBRANCH  10  12
ENDBRANCH   7   8
ENDBRANCH   2   7
BRANCH   1  21
HETATM   21  C5  UNK     1      25.479  -8.857  37.476  1.00  0.00     0.312 C 
BRANCH  21  22
HETATM   22  C7  UNK     1      24.514  -9.786  36.824  1.00  0.00    -0.011 A 
HETATM   23  C10 UNK     1      24.925 -10.935  36.270  1.00  0.00     0.092 A 
HETATM   24  C13 UNK     1      24.009 -11.884  35.615  1.00  0.00     0.288 A 
HETATM   25  O1  UNK     1      22.668 -11.538  35.591  1.00  0.00    -0.275 OA
HETATM   26  O3  UNK     1      24.422 -12.926  35.119  1.00  0.00    -0.260 OA
HETATM   27  C11 UNK     1      22.205 -10.337  36.165  1.00  0.00     0.090 A 
HETATM   28  C8  UNK     1      23.086  -9.447  36.782  1.00  0.00     0.006 A 
HETATM   29  C14 UNK     1      20.833 -10.092  36.082  1.00  0.00     0.045 A 
HETATM   30  C12 UNK     1      22.547  -8.274  37.329  1.00  0.00     0.015 A 
HETATM   31  C16 UNK     1      21.174  -8.014  37.253  1.00  0.00     0.007 A 
HETATM   32  C15 UNK     1      20.318  -8.922  36.630  1.00  0.00    -0.059 A 
HETATM   33  C18 UNK     1      18.856  -8.638  36.553  1.00  0.00     0.048 C 
ENDBRANCH  21  22
ENDBRANCH   1  21
TORSDOF 6
ENDMDL
