MODEL 1
REMARK VINA RESULT:      -9.3      0.000      0.000
REMARK  3 active torsions:
REMARK  status: ('A' for Active; 'I' for Inactive)
REMARK    1  A    between atoms: C10_15  and  O2_2 
REMARK    2  A    between atoms: C5_10  and  N1_5 
REMARK       I    between atoms: C6_11  and  N1_5 
REMARK    3  A    between atoms: C2_7  and  C6_11 
ROOT
HETATM    1  O3  UNK     1      21.369  -4.552  37.110  1.00  0.00    -0.267 OA
HETATM    2  N1  UNK     1      19.119  -5.243  37.039  1.00  0.00    -0.320 N 
HETATM    3  C6  UNK     1      20.173  -4.351  36.904  1.00  0.00     0.262 C 
HETATM    4  H3  UNK     1      18.182  -4.927  36.804  1.00  0.00     0.169 HD
ENDROOT
BRANCH   3   5
HETATM    5  C2  UNK     1      19.724  -3.027  36.457  1.00  0.00     0.108 A 
HETATM    6  C4  UNK     1      19.019  -2.312  37.341  1.00  0.00     0.037 A 
HETATM    7  C1  UNK     1      18.530  -0.987  36.990  1.00  0.00    -0.001 A 
HETATM    8  C3  UNK     1      18.808  -0.481  35.725  1.00  0.00     0.089 A 
HETATM    9  C7  UNK     1      17.792  -0.206  37.882  1.00  0.00     0.014 A 
HETATM   10  O1  UNK     1      19.551  -1.239  34.798  1.00  0.00    -0.274 OA
HETATM   11  C9  UNK     1      18.369   0.780  35.326  1.00  0.00     0.038 A 
HETATM   12  C8  UNK     1      20.031  -2.508  35.105  1.00  0.00     0.304 A 
HETATM   13  O4  UNK     1      20.676  -3.161  34.292  1.00  0.00    -0.259 OA
HETATM   14  C13 UNK     1      17.632   1.552  36.221  1.00  0.00     0.003 A 
HETATM   15  C11 UNK     1      17.344   1.061  37.496  1.00  0.00     0.001 A 
ENDBRANCH   3   5
BRANCH   2  16
HETATM   16  C5  UNK     1      19.180  -6.599  37.446  1.00  0.00     0.068 A 
HETATM   17  C10 UNK     1      18.763  -7.599  36.585  1.00  0.00     0.095 A 
HETATM   18  C14 UNK     1      18.830  -8.930  37.001  1.00  0.00     0.039 A 
HETATM   19  C16 UNK     1      19.313  -9.240  38.272  1.00  0.00     0.003 A 
HETATM   20  C15 UNK     1      19.729  -8.220  39.127  1.00  0.00     0.002 A 
HETATM   21  C12 UNK     1      19.663  -6.890  38.712  1.00  0.00     0.032 A 
BRANCH  17  22
HETATM   22  O2  UNK     1      18.288  -7.319  35.338  1.00  0.00    -0.354 OA
HETATM   23  C17 UNK     1      16.890  -7.495  35.123  1.00  0.00     0.210 C 
ENDBRANCH  17  22
ENDBRANCH   2  16
TORSDOF 3
ENDMDL
MODEL 2
REMARK VINA RESULT:      -9.2      6.141      9.148
REMARK  3 active torsions:
REMARK  status: ('A' for Active; 'I' for Inactive)
REMARK    1  A    between atoms: C10_15  and  O2_2 
REMARK    2  A    between atoms: C5_10  and  N1_5 
REMARK       I    between atoms: C6_11  and  N1_5 
REMARK    3  A    between atoms: C2_7  and  C6_11 
ROOT
HETATM    1  O3  UNK     1      17.153   2.494  30.484  1.00  0.00    -0.267 OA
HETATM    2  N1  UNK     1      19.428   2.156  30.991  1.00  0.00    -0.320 N 
HETATM    3  C6  UNK     1      18.241   2.871  30.917  1.00  0.00     0.262 C 
HETATM    4  H3  UNK     1      20.241   2.607  31.401  1.00  0.00     0.169 HD
ENDROOT
BRANCH   3   5
HETATM    5  C2  UNK     1      18.383   4.236  31.439  1.00  0.00     0.108 A 
HETATM    6  C4  UNK     1      17.754   4.496  32.591  1.00  0.00     0.037 A 
HETATM    7  C1  UNK     1      17.836   5.820  33.188  1.00  0.00    -0.001 A 
HETATM    8  C3  UNK     1      18.575   6.805  32.542  1.00  0.00     0.089 A 
HETATM    9  C7  UNK     1      17.197   6.137  34.389  1.00  0.00     0.014 A 
HETATM   10  O1  UNK     1      19.235   6.525  31.329  1.00  0.00    -0.274 OA
HETATM   11  C9  UNK     1      18.693   8.094  33.060  1.00  0.00     0.038 A 
HETATM   12  C8  UNK     1      19.175   5.268  30.735  1.00  0.00     0.304 A 
HETATM   13  O4  UNK     1      19.752   5.033  29.678  1.00  0.00    -0.259 OA
HETATM   14  C13 UNK     1      18.052   8.400  34.258  1.00  0.00     0.003 A 
HETATM   15  C11 UNK     1      17.306   7.424  34.922  1.00  0.00     0.001 A 
ENDBRANCH   3   5
BRANCH   2  16
HETATM   16  C5  UNK     1      19.659   0.820  30.582  1.00  0.00     0.068 A 
HETATM   17  C10 UNK     1      19.589  -0.208  31.508  1.00  0.00     0.095 A 
HETATM   18  C14 UNK     1      19.819  -1.520  31.090  1.00  0.00     0.039 A 
HETATM   19  C16 UNK     1      20.117  -1.784  29.753  1.00  0.00     0.003 A 
HETATM   20  C15 UNK     1      20.183  -0.737  28.834  1.00  0.00     0.002 A 
HETATM   21  C12 UNK     1      19.952   0.574  29.250  1.00  0.00     0.032 A 
BRANCH  17  22
HETATM   22  O2  UNK     1      19.301   0.028  32.819  1.00  0.00    -0.354 OA
HETATM   23  C17 UNK     1      18.509  -0.948  33.493  1.00  0.00     0.210 C 
ENDBRANCH  17  22
ENDBRANCH   2  16
TORSDOF 3
ENDMDL
MODEL 3
REMARK VINA RESULT:      -9.1     19.560     21.885
REMARK  3 active torsions:
REMARK  status: ('A' for Active; 'I' for Inactive)
REMARK    1  A    between atoms: C10_15  and  O2_2 
REMARK    2  A    between atoms: C5_10  and  N1_5 
REMARK       I    between atoms: C6_11  and  N1_5 
REMARK    3  A    between atoms: C2_7  and  C6_11 
ROOT
HETATM    1  O3  UNK     1      17.056  -1.696  17.081  1.00  0.00    -0.267 OA
HETATM    2  N1  UNK     1      19.181  -0.681  17.051  1.00  0.00    -0.320 N 
HETATM    3  C6  UNK     1      18.159  -1.492  16.576  1.00  0.00     0.262 C 
HETATM    4  H3  UNK     1      20.031  -0.599  16.499  1.00  0.00     0.169 HD
ENDROOT
BRANCH   3   5
HETATM    5  C2  UNK     1      18.515  -2.151  15.314  1.00  0.00     0.108 A 
HETATM    6  C4  UNK     1      18.218  -3.452  15.222  1.00  0.00     0.037 A 
HETATM    7  C1  UNK     1      18.532  -4.192  14.010  1.00  0.00    -0.001 A 
HETATM    8  C3  UNK     1      19.144  -3.525  12.954  1.00  0.00     0.089 A 
HETATM    9  C7  UNK     1      18.239  -5.550  13.869  1.00  0.00     0.014 A 
HETATM   10  O1  UNK     1      19.454  -2.154  13.057  1.00  0.00    -0.274 OA
HETATM   11  C9  UNK     1      19.472  -4.175  11.765  1.00  0.00     0.038 A 
HETATM   12  C8  UNK     1      19.166  -1.421  14.203  1.00  0.00     0.304 A 
HETATM   13  O4  UNK     1      19.440  -0.228  14.284  1.00  0.00    -0.259 OA
HETATM   14  C13 UNK     1      19.177  -5.531  11.635  1.00  0.00     0.003 A 
HETATM   15  C11 UNK     1      18.561  -6.217  12.684  1.00  0.00     0.001 A 
ENDBRANCH   3   5
BRANCH   2  16
HETATM   16  C5  UNK     1      19.186   0.102  18.231  1.00  0.00     0.068 A 
HETATM   17  C10 UNK     1      18.906   1.456  18.164  1.00  0.00     0.095 A 
HETATM   18  C14 UNK     1      18.915   2.214  19.336  1.00  0.00     0.039 A 
HETATM   19  C16 UNK     1      19.206   1.606  20.558  1.00  0.00     0.003 A 
HETATM   20  C15 UNK     1      19.486   0.241  20.608  1.00  0.00     0.002 A 
HETATM   21  C12 UNK     1      19.476  -0.517  19.437  1.00  0.00     0.032 A 
BRANCH  17  22
HETATM   22  O2  UNK     1      18.620   2.070  16.981  1.00  0.00    -0.354 OA
HETATM   23  C17 UNK     1      19.611   2.946  16.450  1.00  0.00     0.210 C 
ENDBRANCH  17  22
ENDBRANCH   2  16
TORSDOF 3
ENDMDL
MODEL 4
REMARK VINA RESULT:      -8.8      7.834     11.564
REMARK  3 active torsions:
REMARK  status: ('A' for Active; 'I' for Inactive)
REMARK    1  A    between atoms: C10_15  and  O2_2 
REMARK    2  A    between atoms: C5_10  and  N1_5 
REMARK       I    between atoms: C6_11  and  N1_5 
REMARK    3  A    between atoms: C2_7  and  C6_11 
ROOT
HETATM    1  O3  UNK     1      17.611   3.331  32.885  1.00  0.00    -0.267 OA
HETATM    2  N1  UNK     1      18.686   4.834  31.426  1.00  0.00    -0.320 N 
HETATM    3  C6  UNK     1      18.260   3.592  31.873  1.00  0.00     0.262 C 
HETATM    4  H3  UNK     1      19.197   4.885  30.548  1.00  0.00     0.169 HD
ENDROOT
BRANCH   3   5
HETATM    5  C2  UNK     1      18.673   2.508  30.973  1.00  0.00     0.108 A 
HETATM    6  C4  UNK     1      19.097   1.382  31.559  1.00  0.00     0.037 A 
HETATM    7  C1  UNK     1      19.527   0.252  30.751  1.00  0.00    -0.001 A 
HETATM    8  C3  UNK     1      19.489   0.362  29.365  1.00  0.00     0.089 A 
HETATM    9  C7  UNK     1      19.976  -0.942  31.320  1.00  0.00     0.014 A 
HETATM   10  O1  UNK     1      19.041   1.550  28.754  1.00  0.00    -0.274 OA
HETATM   11  C9  UNK     1      19.888  -0.683  28.534  1.00  0.00     0.038 A 
HETATM   12  C8  UNK     1      18.624   2.647  29.501  1.00  0.00     0.304 A 
HETATM   13  O4  UNK     1      18.237   3.678  28.960  1.00  0.00    -0.259 OA
HETATM   14  C13 UNK     1      20.335  -1.870  29.110  1.00  0.00     0.003 A 
HETATM   15  C11 UNK     1      20.379  -2.000  30.500  1.00  0.00     0.001 A 
ENDBRANCH   3   5
BRANCH   2  16
HETATM   16  C5  UNK     1      18.469   6.094  32.036  1.00  0.00     0.068 A 
HETATM   17  C10 UNK     1      19.406   6.605  32.919  1.00  0.00     0.095 A 
HETATM   18  C14 UNK     1      19.178   7.848  33.512  1.00  0.00     0.039 A 
HETATM   19  C16 UNK     1      18.015   8.560  33.216  1.00  0.00     0.003 A 
HETATM   20  C15 UNK     1      17.082   8.030  32.325  1.00  0.00     0.002 A 
HETATM   21  C12 UNK     1      17.310   6.789  31.731  1.00  0.00     0.032 A 
BRANCH  17  22
HETATM   22  O2  UNK     1      20.548   5.926  33.223  1.00  0.00    -0.354 OA
HETATM   23  C17 UNK     1      21.731   6.302  32.520  1.00  0.00     0.210 C 
ENDBRANCH  17  22
ENDBRANCH   2  16
TORSDOF 3
ENDMDL
MODEL 5
REMARK VINA RESULT:      -8.8      1.426      7.049
REMARK  3 active torsions:
REMARK  status: ('A' for Active; 'I' for Inactive)
REMARK    1  A    between atoms: C10_15  and  O2_2 
REMARK    2  A    between atoms: C5_10  and  N1_5 
REMARK       I    between atoms: C6_11  and  N1_5 
REMARK    3  A    between atoms: C2_7  and  C6_11 
ROOT
HETATM    1  O3  UNK     1      20.972  -3.292  37.732  1.00  0.00    -0.267 OA
HETATM    2  N1  UNK     1      18.901  -3.319  36.611  1.00  0.00    -0.320 N 
HETATM    3  C6  UNK     1      20.039  -3.873  37.180  1.00  0.00     0.262 C 
HETATM    4  H3  UNK     1      18.205  -3.942  36.211  1.00  0.00     0.169 HD
ENDROOT
BRANCH   3   5
HETATM    5  C2  UNK     1      20.057  -5.337  37.067  1.00  0.00     0.108 A 
HETATM    6  C4  UNK     1      19.980  -6.019  38.216  1.00  0.00     0.037 A 
HETATM    7  C1  UNK     1      19.990  -7.473  38.207  1.00  0.00    -0.001 A 
HETATM    8  C3  UNK     1      20.082  -8.138  36.989  1.00  0.00     0.089 A 
HETATM    9  C7  UNK     1      19.910  -8.226  39.381  1.00  0.00     0.014 A 
HETATM   10  O1  UNK     1      20.163  -7.414  35.783  1.00  0.00    -0.274 OA
HETATM   11  C9  UNK     1      20.098  -9.530  36.911  1.00  0.00     0.038 A 
HETATM   12  C8  UNK     1      20.155  -6.023  35.760  1.00  0.00     0.304 A 
HETATM   13  O4  UNK     1      20.227  -5.401  34.706  1.00  0.00    -0.259 OA
HETATM   14  C13 UNK     1      20.019 -10.272  38.087  1.00  0.00     0.003 A 
HETATM   15  C11 UNK     1      19.925  -9.622  39.320  1.00  0.00     0.001 A 
ENDBRANCH   3   5
BRANCH   2  16
HETATM   16  C5  UNK     1      18.551  -1.948  36.538  1.00  0.00     0.068 A 
HETATM   17  C10 UNK     1      18.901  -1.203  35.425  1.00  0.00     0.095 A 
HETATM   18  C14 UNK     1      18.550   0.147  35.368  1.00  0.00     0.039 A 
HETATM   19  C16 UNK     1      17.855   0.732  36.426  1.00  0.00     0.003 A 
HETATM   20  C15 UNK     1      17.510  -0.032  37.541  1.00  0.00     0.002 A 
HETATM   21  C12 UNK     1      17.860  -1.382  37.598  1.00  0.00     0.032 A 
BRANCH  17  22
HETATM   22  O2  UNK     1      19.580  -1.755  34.379  1.00  0.00    -0.354 OA
HETATM   23  C17 UNK     1      19.138  -1.413  33.068  1.00  0.00     0.210 C 
ENDBRANCH  17  22
ENDBRANCH   2  16
TORSDOF 3
ENDMDL
MODEL 6
REMARK VINA RESULT:      -8.8      6.966     11.460
REMARK  3 active torsions:
REMARK  status: ('A' for Active; 'I' for Inactive)
REMARK    1  A    between atoms: C10_15  and  O2_2 
REMARK    2  A    between atoms: C5_10  and  N1_5 
REMARK       I    between atoms: C6_11  and  N1_5 
REMARK    3  A    between atoms: C2_7  and  C6_11 
ROOT
HETATM    1  O3  UNK     1      18.653   4.675  30.177  1.00  0.00    -0.267 OA
HETATM    2  N1  UNK     1      17.775   4.606  32.361  1.00  0.00    -0.320 N 
HETATM    3  C6  UNK     1      18.369   4.087  31.219  1.00  0.00     0.262 C 
HETATM    4  H3  UNK     1      17.628   3.988  33.155  1.00  0.00     0.169 HD
ENDROOT
BRANCH   3   5
HETATM    5  C2  UNK     1      18.663   2.654  31.350  1.00  0.00     0.108 A 
HETATM    6  C4  UNK     1      19.230   2.068  30.290  1.00  0.00     0.037 A 
HETATM    7  C1  UNK     1      19.559   0.652  30.324  1.00  0.00    -0.001 A 
HETATM    8  C3  UNK     1      19.273  -0.078  31.473  1.00  0.00     0.089 A 
HETATM    9  C7  UNK     1      20.153  -0.001  29.241  1.00  0.00     0.014 A 
HETATM   10  O1  UNK     1      18.676   0.545  32.586  1.00  0.00    -0.274 OA
HETATM   11  C9  UNK     1      19.563  -1.438  31.570  1.00  0.00     0.038 A 
HETATM   12  C8  UNK     1      18.350   1.898  32.583  1.00  0.00     0.304 A 
HETATM   13  O4  UNK     1      17.829   2.432  33.556  1.00  0.00    -0.259 OA
HETATM   14  C13 UNK     1      20.154  -2.081  30.485  1.00  0.00     0.003 A 
HETATM   15  C11 UNK     1      20.449  -1.365  29.323  1.00  0.00     0.001 A 
ENDBRANCH   3   5
BRANCH   2  16
HETATM   16  C5  UNK     1      17.360   5.941  32.589  1.00  0.00     0.068 A 
HETATM   17  C10 UNK     1      18.157   6.796  33.330  1.00  0.00     0.095 A 
HETATM   18  C14 UNK     1      17.734   8.109  33.546  1.00  0.00     0.039 A 
HETATM   19  C16 UNK     1      16.520   8.547  33.018  1.00  0.00     0.003 A 
HETATM   20  C15 UNK     1      15.728   7.672  32.273  1.00  0.00     0.002 A 
HETATM   21  C12 UNK     1      16.151   6.360  32.056  1.00  0.00     0.032 A 
BRANCH  17  22
HETATM   22  O2  UNK     1      19.347   6.390  33.856  1.00  0.00    -0.354 OA
HETATM   23  C17 UNK     1      20.515   6.624  33.073  1.00  0.00     0.210 C 
ENDBRANCH  17  22
ENDBRANCH   2  16
TORSDOF 3
ENDMDL
MODEL 7
REMARK VINA RESULT:      -8.8      1.430      2.570
REMARK  3 active torsions:
REMARK  status: ('A' for Active; 'I' for Inactive)
REMARK    1  A    between atoms: C10_15  and  O2_2 
REMARK    2  A    between atoms: C5_10  and  N1_5 
REMARK       I    between atoms: C6_11  and  N1_5 
REMARK    3  A    between atoms: C2_7  and  C6_11 
ROOT
HETATM    1  O3  UNK     1      20.144  -5.322  35.371  1.00  0.00    -0.267 OA
HETATM    2  N1  UNK     1      20.092  -4.899  37.687  1.00  0.00    -0.320 N 
HETATM    3  C6  UNK     1      19.995  -4.579  36.340  1.00  0.00     0.262 C 
HETATM    4  H3  UNK     1      19.915  -4.170  38.373  1.00  0.00     0.169 HD
ENDROOT
BRANCH   3   5
HETATM    5  C2  UNK     1      19.671  -3.163  36.129  1.00  0.00     0.108 A 
HETATM    6  C4  UNK     1      18.915  -2.583  37.069  1.00  0.00     0.037 A 
HETATM    7  C1  UNK     1      18.542  -1.182  36.948  1.00  0.00    -0.001 A 
HETATM    8  C3  UNK     1      18.983  -0.461  35.843  1.00  0.00     0.089 A 
HETATM    9  C7  UNK     1      17.757  -0.535  37.905  1.00  0.00     0.014 A 
HETATM   10  O1  UNK     1      19.779  -1.078  34.857  1.00  0.00    -0.274 OA
HETATM   11  C9  UNK     1      18.661   0.883  35.668  1.00  0.00     0.038 A 
HETATM   12  C8  UNK     1      20.151  -2.415  34.946  1.00  0.00     0.304 A 
HETATM   13  O4  UNK     1      20.843  -2.944  34.083  1.00  0.00    -0.259 OA
HETATM   14  C13 UNK     1      17.876   1.520  36.626  1.00  0.00     0.003 A 
HETATM   15  C11 UNK     1      17.425   0.813  37.743  1.00  0.00     0.001 A 
ENDBRANCH   3   5
BRANCH   2  16
HETATM   16  C5  UNK     1      20.386  -6.163  38.256  1.00  0.00     0.068 A 
HETATM   17  C10 UNK     1      21.687  -6.475  38.612  1.00  0.00     0.095 A 
HETATM   18  C14 UNK     1      21.962  -7.724  39.172  1.00  0.00     0.039 A 
HETATM   19  C16 UNK     1      20.930  -8.643  39.366  1.00  0.00     0.003 A 
HETATM   20  C15 UNK     1      19.625  -8.313  39.001  1.00  0.00     0.002 A 
HETATM   21  C12 UNK     1      19.351  -7.064  38.443  1.00  0.00     0.032 A 
BRANCH  17  22
HETATM   22  O2  UNK     1      22.710  -5.592  38.432  1.00  0.00    -0.354 OA
HETATM   23  C17 UNK     1      23.915  -5.841  39.152  1.00  0.00     0.210 C 
ENDBRANCH  17  22
ENDBRANCH   2  16
TORSDOF 3
ENDMDL
MODEL 8
REMARK VINA RESULT:      -8.8      5.502      8.618
REMARK  3 active torsions:
REMARK  status: ('A' for Active; 'I' for Inactive)
REMARK    1  A    between atoms: C10_15  and  O2_2 
REMARK    2  A    between atoms: C5_10  and  N1_5 
REMARK       I    between atoms: C6_11  and  N1_5 
REMARK    3  A    between atoms: C2_7  and  C6_11 
ROOT
HETATM    1  O3  UNK     1      17.549   2.092  30.119  1.00  0.00    -0.267 OA
HETATM    2  N1  UNK     1      19.352   1.379  31.457  1.00  0.00    -0.320 N 
HETATM    3  C6  UNK     1      18.310   2.215  31.078  1.00  0.00     0.262 C 
HETATM    4  H3  UNK     1      19.877   1.609  32.297  1.00  0.00     0.169 HD
ENDROOT
BRANCH   3   5
HETATM    5  C2  UNK     1      18.164   3.362  31.982  1.00  0.00     0.108 A 
HETATM    6  C4  UNK     1      17.979   4.553  31.400  1.00  0.00     0.037 A 
HETATM    7  C1  UNK     1      17.823   5.749  32.212  1.00  0.00    -0.001 A 
HETATM    8  C3  UNK     1      17.870   5.633  33.598  1.00  0.00     0.089 A 
HETATM    9  C7  UNK     1      17.628   7.012  31.649  1.00  0.00     0.014 A 
HETATM   10  O1  UNK     1      18.063   4.376  34.204  1.00  0.00    -0.274 OA
HETATM   11  C9  UNK     1      17.727   6.740  34.433  1.00  0.00     0.038 A 
HETATM   12  C8  UNK     1      18.216   3.215  33.453  1.00  0.00     0.304 A 
HETATM   13  O4  UNK     1      18.385   2.125  33.989  1.00  0.00    -0.259 OA
HETATM   14  C13 UNK     1      17.534   7.995  33.862  1.00  0.00     0.003 A 
HETATM   15  C11 UNK     1      17.483   8.132  32.473  1.00  0.00     0.001 A 
ENDBRANCH   3   5
BRANCH   2  16
HETATM   16  C5  UNK     1      19.778   0.187  30.823  1.00  0.00     0.068 A 
HETATM   17  C10 UNK     1      19.781  -1.007  31.525  1.00  0.00     0.095 A 
HETATM   18  C14 UNK     1      20.204  -2.174  30.886  1.00  0.00     0.039 A 
HETATM   19  C16 UNK     1      20.618  -2.130  29.555  1.00  0.00     0.003 A 
HETATM   20  C15 UNK     1      20.608  -0.919  28.862  1.00  0.00     0.002 A 
HETATM   21  C12 UNK     1      20.185   0.247  29.499  1.00  0.00     0.032 A 
BRANCH  17  22
HETATM   22  O2  UNK     1      19.381  -1.073  32.826  1.00  0.00    -0.354 OA
HETATM   23  C17 UNK     1      19.945  -2.110  33.625  1.00  0.00     0.210 C 
ENDBRANCH  17  22
ENDBRANCH   2  16
TORSDOF 3
ENDMDL
MODEL 9
REMARK VINA RESULT:      -8.7      7.958     11.595
REMARK  3 active torsions:
REMARK  status: ('A' for Active; 'I' for Inactive)
REMARK    1  A    between atoms: C10_15  and  O2_2 
REMARK    2  A    between atoms: C5_10  and  N1_5 
REMARK       I    between atoms: C6_11  and  N1_5 
REMARK    3  A    between atoms: C2_7  and  C6_11 
ROOT
HETATM    1  O3  UNK     1      17.573   3.611  32.919  1.00  0.00    -0.267 OA
HETATM    2  N1  UNK     1      19.026   5.020  31.715  1.00  0.00    -0.320 N 
HETATM    3  C6  UNK     1      18.368   3.834  32.007  1.00  0.00     0.262 C 
HETATM    4  H3  UNK     1      19.637   5.049  30.903  1.00  0.00     0.169 HD
ENDROOT
BRANCH   3   5
HETATM    5  C2  UNK     1      18.714   2.762  31.066  1.00  0.00     0.108 A 
HETATM    6  C4  UNK     1      19.099   1.601  31.608  1.00  0.00     0.037 A 
HETATM    7  C1  UNK     1      19.463   0.478  30.757  1.00  0.00    -0.001 A 
HETATM    8  C3  UNK     1      19.404   0.635  29.376  1.00  0.00     0.089 A 
HETATM    9  C7  UNK     1      19.869  -0.752  31.280  1.00  0.00     0.014 A 
HETATM   10  O1  UNK     1      18.998   1.860  28.811  1.00  0.00    -0.274 OA
HETATM   11  C9  UNK     1      19.739  -0.400  28.505  1.00  0.00     0.038 A 
HETATM   12  C8  UNK     1      18.644   2.950  29.600  1.00  0.00     0.304 A 
HETATM   13  O4  UNK     1      18.293   4.013  29.099  1.00  0.00    -0.259 OA
HETATM   14  C13 UNK     1      20.144  -1.623  29.035  1.00  0.00     0.003 A 
HETATM   15  C11 UNK     1      20.208  -1.799  30.419  1.00  0.00     0.001 A 
ENDBRANCH   3   5
BRANCH   2  16
HETATM   16  C5  UNK     1      18.931   6.254  32.405  1.00  0.00     0.068 A 
HETATM   17  C10 UNK     1      17.778   7.013  32.309  1.00  0.00     0.095 A 
HETATM   18  C14 UNK     1      17.700   8.227  32.995  1.00  0.00     0.039 A 
HETATM   19  C16 UNK     1      18.778   8.662  33.766  1.00  0.00     0.003 A 
HETATM   20  C15 UNK     1      19.933   7.885  33.852  1.00  0.00     0.002 A 
HETATM   21  C12 UNK     1      20.010   6.672  33.168  1.00  0.00     0.032 A 
BRANCH  17  22
HETATM   22  O2  UNK     1      16.713   6.607  31.560  1.00  0.00    -0.354 OA
HETATM   23  C17 UNK     1      15.419   7.007  32.005  1.00  0.00     0.210 C 
ENDBRANCH  17  22
ENDBRANCH   2  16
TORSDOF 3
ENDMDL
MODEL 10
REMARK VINA RESULT:      -8.4     19.862     21.405
REMARK  3 active torsions:
REMARK  status: ('A' for Active; 'I' for Inactive)
REMARK    1  A    between atoms: C10_15  and  O2_2 
REMARK    2  A    between atoms: C5_10  and  N1_5 
REMARK       I    between atoms: C6_11  and  N1_5 
REMARK    3  A    between atoms: C2_7  and  C6_11 
ROOT
HETATM    1  O3  UNK     1      17.720  -3.234  15.910  1.00  0.00    -0.267 OA
HETATM    2  N1  UNK     1      19.887  -3.140  14.993  1.00  0.00    -0.320 N 
HETATM    3  C6  UNK     1      18.762  -2.641  15.634  1.00  0.00     0.262 C 
HETATM    4  H3  UNK     1      20.684  -2.523  14.859  1.00  0.00     0.169 HD
ENDROOT
BRANCH   3   5
HETATM    5  C2  UNK     1      18.912  -1.226  15.994  1.00  0.00     0.108 A 
HETATM    6  C4  UNK     1      18.786  -0.930  17.293  1.00  0.00     0.037 A 
HETATM    7  C1  UNK     1      18.919   0.445  17.748  1.00  0.00    -0.001 A 
HETATM    8  C3  UNK     1      19.177   1.441  16.812  1.00  0.00     0.089 A 
HETATM    9  C7  UNK     1      18.796   0.799  19.094  1.00  0.00     0.014 A 
HETATM   10  O1  UNK     1      19.308   1.124  15.446  1.00  0.00    -0.274 OA
HETATM   11  C9  UNK     1      19.314   2.778  17.183  1.00  0.00     0.038 A 
HETATM   12  C8  UNK     1      19.186  -0.182  14.982  1.00  0.00     0.304 A 
HETATM   13  O4  UNK     1      19.302  -0.450  13.790  1.00  0.00    -0.259 OA
HETATM   14  C13 UNK     1      19.189   3.122  18.527  1.00  0.00     0.003 A 
HETATM   15  C11 UNK     1      18.931   2.135  19.480  1.00  0.00     0.001 A 
ENDBRANCH   3   5
BRANCH   2  16
HETATM   16  C5  UNK     1      20.094  -4.455  14.508  1.00  0.00     0.068 A 
HETATM   17  C10 UNK     1      19.480  -4.865  13.337  1.00  0.00     0.095 A 
HETATM   18  C14 UNK     1      19.694  -6.164  12.872  1.00  0.00     0.039 A 
HETATM   19  C16 UNK     1      20.517  -7.034  13.587  1.00  0.00     0.003 A 
HETATM   20  C15 UNK     1      21.127  -6.605  14.766  1.00  0.00     0.002 A 
HETATM   21  C12 UNK     1      20.915  -5.307  15.230  1.00  0.00     0.032 A 
BRANCH  17  22
HETATM   22  O2  UNK     1      18.672  -4.031  12.622  1.00  0.00    -0.354 OA
HETATM   23  C17 UNK     1      19.208  -3.484  11.420  1.00  0.00     0.210 C 
ENDBRANCH  17  22
ENDBRANCH   2  16
TORSDOF 3
ENDMDL
