MODEL 1
REMARK VINA RESULT:     -10.2      0.000      0.000
REMARK  8 active torsions:
REMARK  status: ('A' for Active; 'I' for Inactive)
REMARK    1  A    between atoms: C1_8  and  O1_1 
REMARK    2  A    between atoms: C24_31  and  O6_6 
REMARK    3  A    between atoms: C6_13  and  N1_7 
REMARK    4  A    between atoms: C1_8  and  C5_12 
REMARK    5  A    between atoms: C10_17  and  C5_12 
REMARK    6  A    between atoms: C6_13  and  C9_16 
REMARK    7  A    between atoms: C13_20  and  C9_16 
REMARK    8  A    between atoms: C10_17  and  C14_21 
ROOT
HETATM    1  O2  UNK     1      17.872   2.231  33.003  1.00  0.00    -0.269 OA
HETATM    2  N1  UNK     1      18.874   0.167  32.446  1.00  0.00    -0.314 N 
HETATM    3  C1  UNK     1      18.725   1.802  30.739  1.00  0.00     0.175 A 
HETATM    4  C2  UNK     1      19.365   0.534  30.247  1.00  0.00     0.013 A 
HETATM    5  C3  UNK     1      19.430  -0.393  31.287  1.00  0.00     0.047 A 
HETATM    6  C4  UNK     1      18.423   1.475  32.215  1.00  0.00     0.264 A 
HETATM    7  C7  UNK     1      19.847   0.222  28.988  1.00  0.00     0.013 A 
HETATM    8  C8  UNK     1      19.976  -1.653  31.108  1.00  0.00     0.030 A 
HETATM    9  C11 UNK     1      20.402  -1.045  28.789  1.00  0.00     0.001 A 
HETATM   10  C12 UNK     1      20.466  -1.974  29.841  1.00  0.00     0.002 A 
ENDROOT
BRANCH   3  11
HETATM   11  O1  UNK     1      17.499   2.015  30.068  1.00  0.00    -0.375 OA
HETATM   12  H9  UNK     1      16.837   1.397  30.421  1.00  0.00     0.211 HD
ENDBRANCH   3  11
BRANCH   3  13
HETATM   13  C5  UNK     1      19.628   3.022  30.619  1.00  0.00     0.137 C 
BRANCH  13  14
HETATM   14  C10 UNK     1      18.868   4.257  30.185  1.00  0.00     0.169 C 
HETATM   15  O3  UNK     1      18.379   4.404  29.070  1.00  0.00    -0.292 OA
BRANCH  14  16
HETATM   16  C14 UNK     1      18.732   5.328  31.193  1.00  0.00     0.086 A 
HETATM   17  C15 UNK     1      17.498   5.541  31.667  1.00  0.00     0.035 A 
HETATM   18  C19 UNK     1      17.263   6.575  32.663  1.00  0.00     0.002 A 
HETATM   19  C20 UNK     1      18.339   7.335  33.111  1.00  0.00     0.123 A 
HETATM   20  C23 UNK     1      15.993   6.832  33.185  1.00  0.00     0.014 A 
HETATM   21  O4  UNK     1      19.635   7.106  32.608  1.00  0.00    -0.271 OA
HETATM   22  C24 UNK     1      18.182   8.340  34.062  1.00  0.00     0.102 A 
HETATM   23  C18 UNK     1      19.891   6.124  31.655  1.00  0.00     0.302 A 
HETATM   24  O5  UNK     1      21.023   5.931  31.225  1.00  0.00    -0.259 OA
HETATM   25  C27 UNK     1      16.912   8.590  34.577  1.00  0.00     0.040 A 
HETATM   26  C26 UNK     1      15.820   7.837  34.140  1.00  0.00     0.004 A 
BRANCH  22  27
HETATM   27  O6  UNK     1      19.242   9.076  34.491  1.00  0.00    -0.353 OA
HETATM   28  C28 UNK     1      19.269  10.454  34.121  1.00  0.00     0.210 C 
ENDBRANCH  22  27
ENDBRANCH  14  16
ENDBRANCH  13  14
ENDBRANCH   3  13
BRANCH   2  29
HETATM   29  C6  UNK     1      18.783  -0.539  33.701  1.00  0.00     0.137 C 
BRANCH  29  30
HETATM   30  C9  UNK     1      17.340  -0.766  34.143  1.00  0.00     0.058 C 
BRANCH  30  31
HETATM   31  C13 UNK     1      16.954   0.064  35.343  1.00  0.00    -0.057 A 
HETATM   32  C16 UNK     1      15.612   0.230  35.651  1.00  0.00     0.007 A 
HETATM   33  C21 UNK     1      15.255   0.998  36.760  1.00  0.00     0.001 A 
HETATM   34  C25 UNK     1      16.244   1.587  37.548  1.00  0.00     0.000 A 
HETATM   35  C22 UNK     1      17.589   1.410  37.226  1.00  0.00     0.001 A 
HETATM   36  C17 UNK     1      17.947   0.643  36.117  1.00  0.00     0.007 A 
ENDBRANCH  30  31
ENDBRANCH  29  30
ENDBRANCH   2  29
TORSDOF 8
ENDMDL
MODEL 2
REMARK VINA RESULT:      -9.7     13.496     16.560
REMARK  8 active torsions:
REMARK  status: ('A' for Active; 'I' for Inactive)
REMARK    1  A    between atoms: C1_8  and  O1_1 
REMARK    2  A    between atoms: C24_31  and  O6_6 
REMARK    3  A    between atoms: C6_13  and  N1_7 
REMARK    4  A    between atoms: C1_8  and  C5_12 
REMARK    5  A    between atoms: C10_17  and  C5_12 
REMARK    6  A    between atoms: C6_13  and  C9_16 
REMARK    7  A    between atoms: C13_20  and  C9_16 
REMARK    8  A    between atoms: C10_17  and  C14_21 
ROOT
HETATM    1  O2  UNK     1      27.657  -6.950  35.267  1.00  0.00    -0.269 OA
HETATM    2  N1  UNK     1      29.836  -6.057  35.095  1.00  0.00    -0.314 N 
HETATM    3  C1  UNK     1      29.069  -6.654  37.255  1.00  0.00     0.175 A 
HETATM    4  C2  UNK     1      30.460  -6.084  37.290  1.00  0.00     0.013 A 
HETATM    5  C3  UNK     1      30.863  -5.751  35.997  1.00  0.00     0.047 A 
HETATM    6  C4  UNK     1      28.722  -6.599  35.753  1.00  0.00     0.264 A 
HETATM    7  C7  UNK     1      31.298  -5.874  38.372  1.00  0.00     0.013 A 
HETATM    8  C8  UNK     1      32.109  -5.202  35.740  1.00  0.00     0.030 A 
HETATM    9  C11 UNK     1      32.559  -5.321  38.131  1.00  0.00     0.001 A 
HETATM   10  C12 UNK     1      32.961  -4.989  36.826  1.00  0.00     0.002 A 
ENDROOT
BRANCH   3  11
HETATM   11  O1  UNK     1      28.181  -5.802  37.952  1.00  0.00    -0.375 OA
HETATM   12  H9  UNK     1      28.183  -6.048  38.892  1.00  0.00     0.211 HD
ENDBRANCH   3  11
BRANCH   3  13
HETATM   13  C5  UNK     1      28.985  -8.078  37.787  1.00  0.00     0.137 C 
BRANCH  13  14
HETATM   14  C10 UNK     1      27.808  -8.274  38.718  1.00  0.00     0.169 C 
HETATM   15  O3  UNK     1      27.855  -8.092  39.931  1.00  0.00    -0.292 OA
BRANCH  14  16
HETATM   16  C14 UNK     1      26.545  -8.713  38.091  1.00  0.00     0.086 A 
HETATM   17  C15 UNK     1      26.563  -9.916  37.505  1.00  0.00     0.035 A 
HETATM   18  C19 UNK     1      25.367 -10.436  36.860  1.00  0.00     0.002 A 
HETATM   19  C20 UNK     1      24.211  -9.662  36.861  1.00  0.00     0.123 A 
HETATM   20  C23 UNK     1      25.340 -11.686  36.238  1.00  0.00     0.014 A 
HETATM   21  O4  UNK     1      24.199  -8.395  37.479  1.00  0.00    -0.271 OA
HETATM   22  C24 UNK     1      23.034 -10.100  36.260  1.00  0.00     0.102 A 
HETATM   23  C18 UNK     1      25.327  -7.872  38.104  1.00  0.00     0.302 A 
HETATM   24  O5  UNK     1      25.306  -6.770  38.640  1.00  0.00    -0.259 OA
HETATM   25  C27 UNK     1      23.015 -11.349  35.642  1.00  0.00     0.040 A 
HETATM   26  C26 UNK     1      24.166 -12.140  35.630  1.00  0.00     0.004 A 
BRANCH  22  27
HETATM   27  O6  UNK     1      21.911  -9.333  36.268  1.00  0.00    -0.353 OA
HETATM   28  C28 UNK     1      21.360  -8.974  35.002  1.00  0.00     0.210 C 
ENDBRANCH  22  27
ENDBRANCH  14  16
ENDBRANCH  13  14
ENDBRANCH   3  13
BRANCH   2  29
HETATM   29  C6  UNK     1      29.934  -5.826  33.674  1.00  0.00     0.137 C 
BRANCH  29  30
HETATM   30  C9  UNK     1      30.117  -7.118  32.881  1.00  0.00     0.058 C 
BRANCH  30  31
HETATM   31  C13 UNK     1      28.977  -7.392  31.931  1.00  0.00    -0.057 A 
HETATM   32  C16 UNK     1      28.961  -8.578  31.214  1.00  0.00     0.007 A 
HETATM   33  C21 UNK     1      27.907  -8.832  30.335  1.00  0.00     0.001 A 
HETATM   34  C25 UNK     1      26.883  -7.897  30.186  1.00  0.00     0.000 A 
HETATM   35  C22 UNK     1      26.913  -6.708  30.915  1.00  0.00     0.001 A 
HETATM   36  C17 UNK     1      27.966  -6.454  31.794  1.00  0.00     0.007 A 
ENDBRANCH  30  31
ENDBRANCH  29  30
ENDBRANCH   2  29
TORSDOF 8
ENDMDL
MODEL 3
REMARK VINA RESULT:      -9.5      7.340     12.594
REMARK  8 active torsions:
REMARK  status: ('A' for Active; 'I' for Inactive)
REMARK    1  A    between atoms: C1_8  and  O1_1 
REMARK    2  A    between atoms: C24_31  and  O6_6 
REMARK    3  A    between atoms: C6_13  and  N1_7 
REMARK    4  A    between atoms: C1_8  and  C5_12 
REMARK    5  A    between atoms: C10_17  and  C5_12 
REMARK    6  A    between atoms: C6_13  and  C9_16 
REMARK    7  A    between atoms: C13_20  and  C9_16 
REMARK    8  A    between atoms: C10_17  and  C14_21 
ROOT
HETATM    1  O2  UNK     1      20.516  -4.994  34.774  1.00  0.00    -0.269 OA
HETATM    2  N1  UNK     1      19.902  -2.714  34.820  1.00  0.00    -0.314 N 
HETATM    3  C1  UNK     1      19.507  -3.989  36.777  1.00  0.00     0.175 A 
HETATM    4  C2  UNK     1      19.056  -2.564  36.934  1.00  0.00     0.013 A 
HETATM    5  C3  UNK     1      19.310  -1.858  35.759  1.00  0.00     0.047 A 
HETATM    6  C4  UNK     1      20.057  -4.009  35.336  1.00  0.00     0.264 A 
HETATM    7  C7  UNK     1      18.467  -1.942  38.022  1.00  0.00     0.013 A 
HETATM    8  C8  UNK     1      18.990  -0.517  35.629  1.00  0.00     0.030 A 
HETATM    9  C11 UNK     1      18.137  -0.589  37.909  1.00  0.00     0.001 A 
HETATM   10  C12 UNK     1      18.397   0.118  36.723  1.00  0.00     0.002 A 
ENDROOT
BRANCH   3  11
HETATM   11  O1  UNK     1      18.394  -4.858  36.843  1.00  0.00    -0.375 OA
HETATM   12  H9  UNK     1      18.603  -5.592  37.444  1.00  0.00     0.211 HD
ENDBRANCH   3  11
BRANCH   3  13
HETATM   13  C5  UNK     1      20.577  -4.400  37.780  1.00  0.00     0.137 C 
BRANCH  13  14
HETATM   14  C10 UNK     1      20.335  -5.784  38.342  1.00  0.00     0.169 C 
HETATM   15  O3  UNK     1      19.456  -6.049  39.157  1.00  0.00    -0.292 OA
BRANCH  14  16
HETATM   16  C14 UNK     1      21.232  -6.852  37.856  1.00  0.00     0.086 A 
HETATM   17  C15 UNK     1      20.665  -7.808  37.111  1.00  0.00     0.035 A 
HETATM   18  C19 UNK     1      21.467  -8.902  36.587  1.00  0.00     0.002 A 
HETATM   19  C20 UNK     1      22.828  -8.938  36.876  1.00  0.00     0.123 A 
HETATM   20  C23 UNK     1      20.918  -9.920  35.803  1.00  0.00     0.014 A 
HETATM   21  O4  UNK     1      23.419  -7.929  37.662  1.00  0.00    -0.271 OA
HETATM   22  C24 UNK     1      23.651  -9.958  36.406  1.00  0.00     0.102 A 
HETATM   23  C18 UNK     1      22.677  -6.870  38.177  1.00  0.00     0.302 A 
HETATM   24  O5  UNK     1      23.201  -5.996  38.859  1.00  0.00    -0.259 OA
HETATM   25  C27 UNK     1      23.096 -10.970  35.626  1.00  0.00     0.040 A 
HETATM   26  C26 UNK     1      21.732 -10.951  35.325  1.00  0.00     0.004 A 
BRANCH  22  27
HETATM   27  O6  UNK     1      24.979  -9.981  36.697  1.00  0.00    -0.353 OA
HETATM   28  C28 UNK     1      25.693 -11.176  36.382  1.00  0.00     0.210 C 
ENDBRANCH  22  27
ENDBRANCH  14  16
ENDBRANCH  13  14
ENDBRANCH   3  13
BRANCH   2  29
HETATM   29  C6  UNK     1      20.285  -2.293  33.494  1.00  0.00     0.137 C 
BRANCH  29  30
HETATM   30  C9  UNK     1      19.145  -1.606  32.745  1.00  0.00     0.058 C 
BRANCH  30  31
HETATM   31  C13 UNK     1      19.563  -1.081  31.393  1.00  0.00    -0.057 A 
HETATM   32  C16 UNK     1      20.143  -1.946  30.478  1.00  0.00     0.007 A 
HETATM   33  C21 UNK     1      20.530  -1.461  29.228  1.00  0.00     0.001 A 
HETATM   34  C25 UNK     1      20.329  -0.118  28.908  1.00  0.00     0.000 A 
HETATM   35  C22 UNK     1      19.743   0.740  29.840  1.00  0.00     0.001 A 
HETATM   36  C17 UNK     1      19.357   0.256  31.089  1.00  0.00     0.007 A 
ENDBRANCH  30  31
ENDBRANCH  29  30
ENDBRANCH   2  29
TORSDOF 8
ENDMDL
MODEL 4
REMARK VINA RESULT:      -9.2      6.248     11.122
REMARK  8 active torsions:
REMARK  status: ('A' for Active; 'I' for Inactive)
REMARK    1  A    between atoms: C1_8  and  O1_1 
REMARK    2  A    between atoms: C24_31  and  O6_6 
REMARK    3  A    between atoms: C6_13  and  N1_7 
REMARK    4  A    between atoms: C1_8  and  C5_12 
REMARK    5  A    between atoms: C10_17  and  C5_12 
REMARK    6  A    between atoms: C6_13  and  C9_16 
REMARK    7  A    between atoms: C13_20  and  C9_16 
REMARK    8  A    between atoms: C10_17  and  C14_21 
ROOT
HETATM    1  O2  UNK     1      18.464  -0.663  36.730  1.00  0.00    -0.269 OA
HETATM    2  N1  UNK     1      18.511  -0.303  34.396  1.00  0.00    -0.314 N 
HETATM    3  C1  UNK     1      19.806  -2.093  35.249  1.00  0.00     0.175 A 
HETATM    4  C2  UNK     1      19.939  -1.965  33.758  1.00  0.00     0.013 A 
HETATM    5  C3  UNK     1      19.158  -0.900  33.306  1.00  0.00     0.047 A 
HETATM    6  C4  UNK     1      18.838  -0.945  35.600  1.00  0.00     0.264 A 
HETATM    7  C7  UNK     1      20.687  -2.721  32.872  1.00  0.00     0.013 A 
HETATM    8  C8  UNK     1      19.097  -0.557  31.966  1.00  0.00     0.030 A 
HETATM    9  C11 UNK     1      20.637  -2.389  31.515  1.00  0.00     0.001 A 
HETATM   10  C12 UNK     1      19.848  -1.317  31.066  1.00  0.00     0.002 A 
ENDROOT
BRANCH   3  11
HETATM   11  O1  UNK     1      21.051  -1.834  35.868  1.00  0.00    -0.375 OA
HETATM   12  H9  UNK     1      21.043  -0.929  36.221  1.00  0.00     0.211 HD
ENDBRANCH   3  11
BRANCH   3  13
HETATM   13  C5  UNK     1      19.248  -3.438  35.694  1.00  0.00     0.137 C 
BRANCH  13  14
HETATM   14  C10 UNK     1      20.038  -4.037  36.838  1.00  0.00     0.169 C 
HETATM   15  O3  UNK     1      20.584  -3.373  37.714  1.00  0.00    -0.292 OA
BRANCH  14  16
HETATM   16  C14 UNK     1      20.136  -5.510  36.864  1.00  0.00     0.086 A 
HETATM   17  C15 UNK     1      20.017  -6.090  38.064  1.00  0.00     0.035 A 
HETATM   18  C19 UNK     1      20.100  -7.536  38.192  1.00  0.00     0.002 A 
HETATM   19  C20 UNK     1      20.306  -8.302  37.049  1.00  0.00     0.123 A 
HETATM   20  C23 UNK     1      19.980  -8.184  39.424  1.00  0.00     0.014 A 
HETATM   21  O4  UNK     1      20.431  -7.686  35.788  1.00  0.00    -0.271 OA
HETATM   22  C24 UNK     1      20.395  -9.691  37.102  1.00  0.00     0.102 A 
HETATM   23  C18 UNK     1      20.356  -6.304  35.635  1.00  0.00     0.302 A 
HETATM   24  O5  UNK     1      20.464  -5.778  34.533  1.00  0.00    -0.259 OA
HETATM   25  C27 UNK     1      20.276 -10.329  38.335  1.00  0.00     0.040 A 
HETATM   26  C26 UNK     1      20.068  -9.577  39.494  1.00  0.00     0.004 A 
BRANCH  22  27
HETATM   27  O6  UNK     1      20.598 -10.427  35.977  1.00  0.00    -0.353 OA
HETATM   28  C28 UNK     1      21.915 -10.930  35.757  1.00  0.00     0.210 C 
ENDBRANCH  22  27
ENDBRANCH  14  16
ENDBRANCH  13  14
ENDBRANCH   3  13
BRANCH   2  29
HETATM   29  C6  UNK     1      17.630   0.833  34.269  1.00  0.00     0.137 C 
BRANCH  29  30
HETATM   30  C9  UNK     1      18.297   2.142  34.683  1.00  0.00     0.058 C 
BRANCH  30  31
HETATM   31  C13 UNK     1      18.303   3.174  33.582  1.00  0.00    -0.057 A 
HETATM   32  C16 UNK     1      18.366   4.519  33.911  1.00  0.00     0.007 A 
HETATM   33  C21 UNK     1      18.370   5.474  32.894  1.00  0.00     0.001 A 
HETATM   34  C25 UNK     1      18.313   5.071  31.559  1.00  0.00     0.000 A 
HETATM   35  C22 UNK     1      18.250   3.713  31.243  1.00  0.00     0.001 A 
HETATM   36  C17 UNK     1      18.245   2.759  32.260  1.00  0.00     0.007 A 
ENDBRANCH  30  31
ENDBRANCH  29  30
ENDBRANCH   2  29
TORSDOF 8
ENDMDL
MODEL 5
REMARK VINA RESULT:      -9.1     14.479     17.411
REMARK  8 active torsions:
REMARK  status: ('A' for Active; 'I' for Inactive)
REMARK    1  A    between atoms: C1_8  and  O1_1 
REMARK    2  A    between atoms: C24_31  and  O6_6 
REMARK    3  A    between atoms: C6_13  and  N1_7 
REMARK    4  A    between atoms: C1_8  and  C5_12 
REMARK    5  A    between atoms: C10_17  and  C5_12 
REMARK    6  A    between atoms: C6_13  and  C9_16 
REMARK    7  A    between atoms: C13_20  and  C9_16 
REMARK    8  A    between atoms: C10_17  and  C14_21 
ROOT
HETATM    1  O2  UNK     1      34.003  -5.180  35.881  1.00  0.00    -0.269 OA
HETATM    2  N1  UNK     1      33.054  -7.276  35.350  1.00  0.00    -0.314 N 
HETATM    3  C1  UNK     1      33.017  -6.606  37.622  1.00  0.00     0.175 A 
HETATM    4  C2  UNK     1      32.399  -7.962  37.426  1.00  0.00     0.013 A 
HETATM    5  C3  UNK     1      32.445  -8.309  36.075  1.00  0.00     0.047 A 
HETATM    6  C4  UNK     1      33.433  -6.217  36.188  1.00  0.00     0.264 A 
HETATM    7  C7  UNK     1      31.846  -8.821  38.360  1.00  0.00     0.013 A 
HETATM    8  C8  UNK     1      31.942  -9.514  35.614  1.00  0.00     0.030 A 
HETATM    9  C11 UNK     1      31.333 -10.042  37.912  1.00  0.00     0.001 A 
HETATM   10  C12 UNK     1      31.381 -10.384  36.550  1.00  0.00     0.002 A 
ENDROOT
BRANCH   3  11
HETATM   11  O1  UNK     1      34.185  -6.717  38.411  1.00  0.00    -0.375 OA
HETATM   12  H9  UNK     1      34.482  -5.826  38.660  1.00  0.00     0.211 HD
ENDBRANCH   3  11
BRANCH   3  13
HETATM   13  C5  UNK     1      32.057  -5.583  38.213  1.00  0.00     0.137 C 
BRANCH  13  14
HETATM   14  C10 UNK     1      30.873  -5.318  37.308  1.00  0.00     0.169 C 
HETATM   15  O3  UNK     1      30.873  -4.485  36.406  1.00  0.00    -0.292 OA
BRANCH  14  16
HETATM   16  C14 UNK     1      29.665  -6.128  37.559  1.00  0.00     0.086 A 
HETATM   17  C15 UNK     1      29.428  -7.121  36.694  1.00  0.00     0.035 A 
HETATM   18  C19 UNK     1      28.262  -7.975  36.858  1.00  0.00     0.002 A 
HETATM   19  C20 UNK     1      27.400  -7.739  37.924  1.00  0.00     0.123 A 
HETATM   20  C23 UNK     1      27.976  -9.024  35.980  1.00  0.00     0.014 A 
HETATM   21  O4  UNK     1      27.654  -6.691  38.831  1.00  0.00    -0.271 OA
HETATM   22  C24 UNK     1      26.265  -8.518  38.137  1.00  0.00     0.102 A 
HETATM   23  C18 UNK     1      28.762  -5.859  38.700  1.00  0.00     0.302 A 
HETATM   24  O5  UNK     1      28.975  -4.950  39.496  1.00  0.00    -0.259 OA
HETATM   25  C27 UNK     1      25.987  -9.562  37.257  1.00  0.00     0.040 A 
HETATM   26  C26 UNK     1      26.841  -9.814  36.181  1.00  0.00     0.004 A 
BRANCH  22  27
HETATM   27  O6  UNK     1      25.431  -8.277  39.183  1.00  0.00    -0.353 OA
HETATM   28  C28 UNK     1      24.118  -7.811  38.873  1.00  0.00     0.210 C 
ENDBRANCH  22  27
ENDBRANCH  14  16
ENDBRANCH  13  14
ENDBRANCH   3  13
BRANCH   2  29
HETATM   29  C6  UNK     1      33.261  -7.325  33.923  1.00  0.00     0.137 C 
BRANCH  29  30
HETATM   30  C9  UNK     1      32.378  -6.334  33.167  1.00  0.00     0.058 C 
BRANCH  30  31
HETATM   31  C13 UNK     1      30.953  -6.808  33.020  1.00  0.00    -0.057 A 
HETATM   32  C16 UNK     1      29.914  -5.933  33.298  1.00  0.00     0.007 A 
HETATM   33  C21 UNK     1      28.596  -6.371  33.163  1.00  0.00     0.001 A 
HETATM   34  C25 UNK     1      28.334  -7.678  32.750  1.00  0.00     0.000 A 
HETATM   35  C22 UNK     1      29.391  -8.546  32.473  1.00  0.00     0.001 A 
HETATM   36  C17 UNK     1      30.708  -8.109  32.609  1.00  0.00     0.007 A 
ENDBRANCH  30  31
ENDBRANCH  29  30
ENDBRANCH   2  29
TORSDOF 8
ENDMDL
MODEL 6
REMARK VINA RESULT:      -9.1      1.272      2.012
REMARK  8 active torsions:
REMARK  status: ('A' for Active; 'I' for Inactive)
REMARK    1  A    between atoms: C1_8  and  O1_1 
REMARK    2  A    between atoms: C24_31  and  O6_6 
REMARK    3  A    between atoms: C6_13  and  N1_7 
REMARK    4  A    between atoms: C1_8  and  C5_12 
REMARK    5  A    between atoms: C10_17  and  C5_12 
REMARK    6  A    between atoms: C6_13  and  C9_16 
REMARK    7  A    between atoms: C13_20  and  C9_16 
REMARK    8  A    between atoms: C10_17  and  C14_21 
ROOT
HETATM    1  O2  UNK     1      17.812   2.175  33.220  1.00  0.00    -0.269 OA
HETATM    2  N1  UNK     1      18.758   0.134  32.503  1.00  0.00    -0.314 N 
HETATM    3  C1  UNK     1      18.703   1.918  30.945  1.00  0.00     0.175 A 
HETATM    4  C2  UNK     1      19.312   0.676  30.356  1.00  0.00     0.013 A 
HETATM    5  C3  UNK     1      19.322  -0.341  31.311  1.00  0.00     0.047 A 
HETATM    6  C4  UNK     1      18.356   1.472  32.380  1.00  0.00     0.264 A 
HETATM    7  C7  UNK     1      19.813   0.459  29.084  1.00  0.00     0.013 A 
HETATM    8  C8  UNK     1      19.830  -1.599  31.032  1.00  0.00     0.030 A 
HETATM    9  C11 UNK     1      20.330  -0.805  28.785  1.00  0.00     0.001 A 
HETATM   10  C12 UNK     1      20.339  -1.824  29.752  1.00  0.00     0.002 A 
ENDROOT
BRANCH   3  11
HETATM   11  O1  UNK     1      17.501   2.231  30.270  1.00  0.00    -0.375 OA
HETATM   12  H9  UNK     1      17.717   2.666  29.429  1.00  0.00     0.211 HD
ENDBRANCH   3  11
BRANCH   3  13
HETATM   13  C5  UNK     1      19.649   3.111  30.952  1.00  0.00     0.137 C 
BRANCH  13  14
HETATM   14  C10 UNK     1      18.973   4.381  30.481  1.00  0.00     0.169 C 
HETATM   15  O3  UNK     1      18.700   4.617  29.308  1.00  0.00    -0.292 OA
BRANCH  14  16
HETATM   16  C14 UNK     1      18.642   5.370  31.526  1.00  0.00     0.086 A 
HETATM   17  C15 UNK     1      19.660   6.103  31.991  1.00  0.00     0.035 A 
HETATM   18  C19 UNK     1      19.434   7.105  33.021  1.00  0.00     0.002 A 
HETATM   19  C20 UNK     1      18.145   7.284  33.513  1.00  0.00     0.123 A 
HETATM   20  C23 UNK     1      20.466   7.893  33.534  1.00  0.00     0.014 A 
HETATM   21  O4  UNK     1      17.077   6.509  33.021  1.00  0.00    -0.271 OA
HETATM   22  C24 UNK     1      17.861   8.224  34.500  1.00  0.00     0.102 A 
HETATM   23  C18 UNK     1      17.263   5.544  32.035  1.00  0.00     0.302 A 
HETATM   24  O5  UNK     1      16.326   4.875  31.612  1.00  0.00    -0.259 OA
HETATM   25  C27 UNK     1      18.896   9.006  35.008  1.00  0.00     0.040 A 
HETATM   26  C26 UNK     1      20.197   8.841  34.525  1.00  0.00     0.004 A 
BRANCH  22  27
HETATM   27  O6  UNK     1      16.596   8.389  34.973  1.00  0.00    -0.353 OA
HETATM   28  C28 UNK     1      15.805   9.412  34.371  1.00  0.00     0.210 C 
ENDBRANCH  22  27
ENDBRANCH  14  16
ENDBRANCH  13  14
ENDBRANCH   3  13
BRANCH   2  29
HETATM   29  C6  UNK     1      18.614  -0.675  33.689  1.00  0.00     0.137 C 
BRANCH  29  30
HETATM   30  C9  UNK     1      17.291  -0.429  34.410  1.00  0.00     0.058 C 
BRANCH  30  31
HETATM   31  C13 UNK     1      17.465  -0.169  35.886  1.00  0.00    -0.057 A 
HETATM   32  C16 UNK     1      17.173   1.088  36.393  1.00  0.00     0.007 A 
HETATM   33  C21 UNK     1      17.334   1.329  37.758  1.00  0.00     0.001 A 
HETATM   34  C25 UNK     1      17.782   0.310  38.598  1.00  0.00     0.000 A 
HETATM   35  C22 UNK     1      18.072  -0.950  38.073  1.00  0.00     0.001 A 
HETATM   36  C17 UNK     1      17.911  -1.191  36.709  1.00  0.00     0.007 A 
ENDBRANCH  30  31
ENDBRANCH  29  30
ENDBRANCH   2  29
TORSDOF 8
ENDMDL
MODEL 7
REMARK VINA RESULT:      -9.0      3.806      5.523
REMARK  8 active torsions:
REMARK  status: ('A' for Active; 'I' for Inactive)
REMARK    1  A    between atoms: C1_8  and  O1_1 
REMARK    2  A    between atoms: C24_31  and  O6_6 
REMARK    3  A    between atoms: C6_13  and  N1_7 
REMARK    4  A    between atoms: C1_8  and  C5_12 
REMARK    5  A    between atoms: C10_17  and  C5_12 
REMARK    6  A    between atoms: C6_13  and  C9_16 
REMARK    7  A    between atoms: C13_20  and  C9_16 
REMARK    8  A    between atoms: C10_17  and  C14_21 
ROOT
HETATM    1  O2  UNK     1      18.573  -1.498  37.443  1.00  0.00    -0.269 OA
HETATM    2  N1  UNK     1      19.974  -2.455  35.801  1.00  0.00    -0.314 N 
HETATM    3  C1  UNK     1      18.336  -0.908  35.069  1.00  0.00     0.175 A 
HETATM    4  C2  UNK     1      19.146  -1.453  33.926  1.00  0.00     0.013 A 
HETATM    5  C3  UNK     1      20.094  -2.355  34.408  1.00  0.00     0.047 A 
HETATM    6  C4  UNK     1      18.950  -1.630  36.287  1.00  0.00     0.264 A 
HETATM    7  C7  UNK     1      19.052  -1.178  32.572  1.00  0.00     0.013 A 
HETATM    8  C8  UNK     1      20.976  -3.008  33.564  1.00  0.00     0.030 A 
HETATM    9  C11 UNK     1      19.935  -1.828  31.705  1.00  0.00     0.001 A 
HETATM   10  C12 UNK     1      20.889  -2.735  32.197  1.00  0.00     0.002 A 
ENDROOT
BRANCH   3  11
HETATM   11  O1  UNK     1      16.988  -1.313  34.942  1.00  0.00    -0.375 OA
HETATM   12  H9  UNK     1      16.717  -1.763  35.759  1.00  0.00     0.211 HD
ENDBRANCH   3  11
BRANCH   3  13
HETATM   13  C5  UNK     1      18.438   0.604  35.217  1.00  0.00     0.137 C 
BRANCH  13  14
HETATM   14  C10 UNK     1      17.501   1.335  34.280  1.00  0.00     0.169 C 
HETATM   15  O3  UNK     1      16.347   0.984  34.054  1.00  0.00    -0.292 OA
BRANCH  14  16
HETATM   16  C14 UNK     1      18.046   2.536  33.617  1.00  0.00     0.086 A 
HETATM   17  C15 UNK     1      18.216   3.615  34.391  1.00  0.00     0.035 A 
HETATM   18  C19 UNK     1      18.747   4.846  33.828  1.00  0.00     0.002 A 
HETATM   19  C20 UNK     1      19.074   4.882  32.476  1.00  0.00     0.123 A 
HETATM   20  C23 UNK     1      18.942   5.995  34.599  1.00  0.00     0.014 A 
HETATM   21  O4  UNK     1      18.892   3.744  31.666  1.00  0.00    -0.271 OA
HETATM   22  C24 UNK     1      19.586   6.030  31.875  1.00  0.00     0.102 A 
HETATM   23  C18 UNK     1      18.386   2.552  32.176  1.00  0.00     0.302 A 
HETATM   24  O5  UNK     1      18.233   1.566  31.463  1.00  0.00    -0.259 OA
HETATM   25  C27 UNK     1      19.776   7.171  32.651  1.00  0.00     0.040 A 
HETATM   26  C26 UNK     1      19.455   7.154  34.010  1.00  0.00     0.004 A 
BRANCH  22  27
HETATM   27  O6  UNK     1      19.899   6.051  30.552  1.00  0.00    -0.353 OA
HETATM   28  C28 UNK     1      18.814   6.049  29.626  1.00  0.00     0.210 C 
ENDBRANCH  22  27
ENDBRANCH  14  16
ENDBRANCH  13  14
ENDBRANCH   3  13
BRANCH   2  29
HETATM   29  C6  UNK     1      20.808  -3.312  36.608  1.00  0.00     0.137 C 
BRANCH  29  30
HETATM   30  C9  UNK     1      20.042  -4.499  37.189  1.00  0.00     0.058 C 
BRANCH  30  31
HETATM   31  C13 UNK     1      20.395  -5.808  36.526  1.00  0.00    -0.057 A 
HETATM   32  C16 UNK     1      19.939  -6.064  35.242  1.00  0.00     0.007 A 
HETATM   33  C21 UNK     1      20.264  -7.275  34.630  1.00  0.00     0.001 A 
HETATM   34  C25 UNK     1      21.043  -8.212  35.308  1.00  0.00     0.000 A 
HETATM   35  C22 UNK     1      21.496  -7.940  36.599  1.00  0.00     0.001 A 
HETATM   36  C17 UNK     1      21.170  -6.730  37.212  1.00  0.00     0.007 A 
ENDBRANCH  30  31
ENDBRANCH  29  30
ENDBRANCH   2  29
TORSDOF 8
ENDMDL
MODEL 8
REMARK VINA RESULT:      -9.0     14.974     18.059
REMARK  8 active torsions:
REMARK  status: ('A' for Active; 'I' for Inactive)
REMARK    1  A    between atoms: C1_8  and  O1_1 
REMARK    2  A    between atoms: C24_31  and  O6_6 
REMARK    3  A    between atoms: C6_13  and  N1_7 
REMARK    4  A    between atoms: C1_8  and  C5_12 
REMARK    5  A    between atoms: C10_17  and  C5_12 
REMARK    6  A    between atoms: C6_13  and  C9_16 
REMARK    7  A    between atoms: C13_20  and  C9_16 
REMARK    8  A    between atoms: C10_17  and  C14_21 
ROOT
HETATM    1  O2  UNK     1      30.344  -9.648  35.171  1.00  0.00    -0.269 OA
HETATM    2  N1  UNK     1      29.716  -7.488  35.889  1.00  0.00    -0.314 N 
HETATM    3  C1  UNK     1      31.752  -8.365  36.723  1.00  0.00     0.175 A 
HETATM    4  C2  UNK     1      31.464  -6.995  37.270  1.00  0.00     0.013 A 
HETATM    5  C3  UNK     1      30.259  -6.525  36.749  1.00  0.00     0.047 A 
HETATM    6  C4  UNK     1      30.536  -8.624  35.811  1.00  0.00     0.264 A 
HETATM    7  C7  UNK     1      32.201  -6.228  38.157  1.00  0.00     0.013 A 
HETATM    8  C8  UNK     1      29.752  -5.282  37.091  1.00  0.00     0.030 A 
HETATM    9  C11 UNK     1      31.705  -4.971  38.512  1.00  0.00     0.001 A 
HETATM   10  C12 UNK     1      30.491  -4.502  37.982  1.00  0.00     0.002 A 
ENDROOT
BRANCH   3  11
HETATM   11  O1  UNK     1      31.737  -9.316  37.769  1.00  0.00    -0.375 OA
HETATM   12  H9  UNK     1      31.881  -8.856  38.613  1.00  0.00     0.211 HD
ENDBRANCH   3  11
BRANCH   3  13
HETATM   13  C5  UNK     1      33.055  -8.442  35.938  1.00  0.00     0.137 C 
BRANCH  13  14
HETATM   14  C10 UNK     1      33.129  -7.394  34.848  1.00  0.00     0.169 C 
HETATM   15  O3  UNK     1      33.469  -6.230  35.039  1.00  0.00    -0.292 OA
BRANCH  14  16
HETATM   16  C14 UNK     1      32.760  -7.838  33.489  1.00  0.00     0.086 A 
HETATM   17  C15 UNK     1      32.123  -6.942  32.726  1.00  0.00     0.035 A 
HETATM   18  C19 UNK     1      31.718  -7.286  31.372  1.00  0.00     0.002 A 
HETATM   19  C20 UNK     1      32.003  -8.558  30.888  1.00  0.00     0.123 A 
HETATM   20  C23 UNK     1      31.052  -6.382  30.541  1.00  0.00     0.014 A 
HETATM   21  O4  UNK     1      32.674  -9.498  31.695  1.00  0.00    -0.271 OA
HETATM   22  C24 UNK     1      31.642  -8.951  29.601  1.00  0.00     0.102 A 
HETATM   23  C18 UNK     1      33.074  -9.197  32.994  1.00  0.00     0.302 A 
HETATM   24  O5  UNK     1      33.659 -10.021  33.689  1.00  0.00    -0.259 OA
HETATM   25  C27 UNK     1      30.977  -8.044  28.779  1.00  0.00     0.040 A 
HETATM   26  C26 UNK     1      30.683  -6.762  29.248  1.00  0.00     0.004 A 
BRANCH  22  27
HETATM   27  O6  UNK     1      31.926 -10.198  29.140  1.00  0.00    -0.353 OA
HETATM   28  C28 UNK     1      30.891 -11.177  29.231  1.00  0.00     0.210 C 
ENDBRANCH  22  27
ENDBRANCH  14  16
ENDBRANCH  13  14
ENDBRANCH   3  13
BRANCH   2  29
HETATM   29  C6  UNK     1      28.466  -7.312  35.190  1.00  0.00     0.137 C 
BRANCH  29  30
HETATM   30  C9  UNK     1      28.605  -6.427  33.953  1.00  0.00     0.058 C 
BRANCH  30  31
HETATM   31  C13 UNK     1      28.225  -7.136  32.676  1.00  0.00    -0.057 A 
HETATM   32  C16 UNK     1      27.467  -6.467  31.728  1.00  0.00     0.007 A 
HETATM   33  C21 UNK     1      27.115  -7.122  30.547  1.00  0.00     0.001 A 
HETATM   34  C25 UNK     1      27.529  -8.436  30.329  1.00  0.00     0.000 A 
HETATM   35  C22 UNK     1      28.292  -9.096  31.293  1.00  0.00     0.001 A 
HETATM   36  C17 UNK     1      28.643  -8.442  32.474  1.00  0.00     0.007 A 
ENDBRANCH  30  31
ENDBRANCH  29  30
ENDBRANCH   2  29
TORSDOF 8
ENDMDL
MODEL 9
REMARK VINA RESULT:      -9.0      8.573     11.217
REMARK  8 active torsions:
REMARK  status: ('A' for Active; 'I' for Inactive)
REMARK    1  A    between atoms: C1_8  and  O1_1 
REMARK    2  A    between atoms: C24_31  and  O6_6 
REMARK    3  A    between atoms: C6_13  and  N1_7 
REMARK    4  A    between atoms: C1_8  and  C5_12 
REMARK    5  A    between atoms: C10_17  and  C5_12 
REMARK    6  A    between atoms: C6_13  and  C9_16 
REMARK    7  A    between atoms: C13_20  and  C9_16 
REMARK    8  A    between atoms: C10_17  and  C14_21 
ROOT
HETATM    1  O2  UNK     1      22.576  -5.807  39.773  1.00  0.00    -0.269 OA
HETATM    2  N1  UNK     1      23.153  -7.688  38.467  1.00  0.00    -0.314 N 
HETATM    3  C1  UNK     1      21.198  -6.498  37.860  1.00  0.00     0.175 A 
HETATM    4  C2  UNK     1      21.439  -7.678  36.961  1.00  0.00     0.013 A 
HETATM    5  C3  UNK     1      22.599  -8.343  37.359  1.00  0.00     0.047 A 
HETATM    6  C4  UNK     1      22.385  -6.576  38.842  1.00  0.00     0.264 A 
HETATM    7  C7  UNK     1      20.696  -8.131  35.884  1.00  0.00     0.013 A 
HETATM    8  C8  UNK     1      23.056  -9.472  36.700  1.00  0.00     0.030 A 
HETATM    9  C11 UNK     1      21.142  -9.270  35.207  1.00  0.00     0.001 A 
HETATM   10  C12 UNK     1      22.313  -9.934  35.612  1.00  0.00     0.002 A 
ENDROOT
BRANCH   3  11
HETATM   11  O1  UNK     1      20.001  -6.684  38.589  1.00  0.00    -0.375 OA
HETATM   12  H9  UNK     1      19.349  -6.026  38.296  1.00  0.00     0.211 HD
ENDBRANCH   3  11
BRANCH   3  13
HETATM   13  C5  UNK     1      21.182  -5.167  37.120  1.00  0.00     0.137 C 
BRANCH  13  14
HETATM   14  C10 UNK     1      19.804  -4.816  36.601  1.00  0.00     0.169 C 
HETATM   15  O3  UNK     1      18.928  -5.644  36.369  1.00  0.00    -0.292 OA
BRANCH  14  16
HETATM   16  C14 UNK     1      19.538  -3.382  36.371  1.00  0.00     0.086 A 
HETATM   17  C15 UNK     1      18.875  -2.740  37.340  1.00  0.00     0.035 A 
HETATM   18  C19 UNK     1      18.566  -1.325  37.206  1.00  0.00     0.002 A 
HETATM   19  C20 UNK     1      18.970  -0.655  36.055  1.00  0.00     0.123 A 
HETATM   20  C23 UNK     1      17.878  -0.615  38.192  1.00  0.00     0.014 A 
HETATM   21  O4  UNK     1      19.667  -1.336  35.038  1.00  0.00    -0.271 OA
HETATM   22  C24 UNK     1      18.705   0.699  35.863  1.00  0.00     0.102 A 
HETATM   23  C18 UNK     1      19.977  -2.690  35.139  1.00  0.00     0.302 A 
HETATM   24  O5  UNK     1      20.586  -3.273  34.249  1.00  0.00    -0.259 OA
HETATM   25  C27 UNK     1      18.017   1.399  36.851  1.00  0.00     0.040 A 
HETATM   26  C26 UNK     1      17.604   0.744  38.013  1.00  0.00     0.004 A 
BRANCH  22  27
HETATM   27  O6  UNK     1      19.104   1.341  34.733  1.00  0.00    -0.353 OA
HETATM   28  C28 UNK     1      18.109   1.592  33.741  1.00  0.00     0.210 C 
ENDBRANCH  22  27
ENDBRANCH  14  16
ENDBRANCH  13  14
ENDBRANCH   3  13
BRANCH   2  29
HETATM   29  C6  UNK     1      24.359  -8.129  39.126  1.00  0.00     0.137 C 
BRANCH  29  30
HETATM   30  C9  UNK     1      25.603  -7.399  38.624  1.00  0.00     0.058 C 
BRANCH  30  31
HETATM   31  C13 UNK     1      26.860  -8.224  38.749  1.00  0.00    -0.057 A 
HETATM   32  C16 UNK     1      26.833  -9.396  39.490  1.00  0.00     0.007 A 
HETATM   33  C21 UNK     1      27.995 -10.159  39.606  1.00  0.00     0.001 A 
HETATM   34  C25 UNK     1      29.169  -9.741  38.979  1.00  0.00     0.000 A 
HETATM   35  C22 UNK     1      29.181  -8.560  38.237  1.00  0.00     0.001 A 
HETATM   36  C17 UNK     1      28.019  -7.797  38.121  1.00  0.00     0.007 A 
ENDBRANCH  30  31
ENDBRANCH  29  30
ENDBRANCH   2  29
TORSDOF 8
ENDMDL
MODEL 10
REMARK VINA RESULT:      -8.9     13.386     16.984
REMARK  8 active torsions:
REMARK  status: ('A' for Active; 'I' for Inactive)
REMARK    1  A    between atoms: C1_8  and  O1_1 
REMARK    2  A    between atoms: C24_31  and  O6_6 
REMARK    3  A    between atoms: C6_13  and  N1_7 
REMARK    4  A    between atoms: C1_8  and  C5_12 
REMARK    5  A    between atoms: C10_17  and  C5_12 
REMARK    6  A    between atoms: C6_13  and  C9_16 
REMARK    7  A    between atoms: C13_20  and  C9_16 
REMARK    8  A    between atoms: C10_17  and  C14_21 
ROOT
HETATM    1  O2  UNK     1      30.546  -5.789  34.803  1.00  0.00    -0.269 OA
HETATM    2  N1  UNK     1      32.312  -6.567  33.441  1.00  0.00    -0.314 N 
HETATM    3  C1  UNK     1      32.853  -5.886  35.645  1.00  0.00     0.175 A 
HETATM    4  C2  UNK     1      34.066  -6.341  34.884  1.00  0.00     0.013 A 
HETATM    5  C3  UNK     1      33.695  -6.730  33.597  1.00  0.00     0.047 A 
HETATM    6  C4  UNK     1      31.722  -6.065  34.611  1.00  0.00     0.264 A 
HETATM    7  C7  UNK     1      35.388  -6.402  35.290  1.00  0.00     0.013 A 
HETATM    8  C8  UNK     1      34.623  -7.193  32.678  1.00  0.00     0.030 A 
HETATM    9  C11 UNK     1      36.338  -6.868  34.376  1.00  0.00     0.001 A 
HETATM   10  C12 UNK     1      35.958  -7.260  33.082  1.00  0.00     0.002 A 
ENDROOT
BRANCH   3  11
HETATM   11  O1  UNK     1      32.964  -4.511  35.954  1.00  0.00    -0.375 OA
HETATM   12  H9  UNK     1      33.277  -4.419  36.868  1.00  0.00     0.211 HD
ENDBRANCH   3  11
BRANCH   3  13
HETATM   13  C5  UNK     1      32.584  -6.705  36.900  1.00  0.00     0.137 C 
BRANCH  13  14
HETATM   14  C10 UNK     1      31.961  -5.876  38.003  1.00  0.00     0.169 C 
HETATM   15  O3  UNK     1      32.593  -5.109  38.724  1.00  0.00    -0.292 OA
BRANCH  14  16
HETATM   16  C14 UNK     1      30.505  -6.029  38.192  1.00  0.00     0.086 A 
HETATM   17  C15 UNK     1      30.064  -7.273  38.411  1.00  0.00     0.035 A 
HETATM   18  C19 UNK     1      28.645  -7.525  38.609  1.00  0.00     0.002 A 
HETATM   19  C20 UNK     1      27.759  -6.453  38.565  1.00  0.00     0.123 A 
HETATM   20  C23 UNK     1      28.141  -8.807  38.842  1.00  0.00     0.014 A 
HETATM   21  O4  UNK     1      28.229  -5.146  38.333  1.00  0.00    -0.271 OA
HETATM   22  C24 UNK     1      26.389  -6.627  38.745  1.00  0.00     0.102 A 
HETATM   23  C18 UNK     1      29.580  -4.874  38.141  1.00  0.00     0.302 A 
HETATM   24  O5  UNK     1      29.980  -3.732  37.941  1.00  0.00    -0.259 OA
HETATM   25  C27 UNK     1      25.894  -7.908  38.976  1.00  0.00     0.040 A 
HETATM   26  C26 UNK     1      26.769  -8.996  39.024  1.00  0.00     0.004 A 
BRANCH  22  27
HETATM   27  O6  UNK     1      25.534  -5.571  38.699  1.00  0.00    -0.353 OA
HETATM   28  C28 UNK     1      24.181  -5.812  39.085  1.00  0.00     0.210 C 
ENDBRANCH  22  27
ENDBRANCH  14  16
ENDBRANCH  13  14
ENDBRANCH   3  13
BRANCH   2  29
HETATM   29  C6  UNK     1      31.610  -6.876  32.219  1.00  0.00     0.137 C 
BRANCH  29  30
HETATM   30  C9  UNK     1      30.679  -8.077  32.365  1.00  0.00     0.058 C 
BRANCH  30  31
HETATM   31  C13 UNK     1      29.337  -7.865  31.707  1.00  0.00    -0.057 A 
HETATM   32  C16 UNK     1      28.552  -6.791  32.097  1.00  0.00     0.007 A 
HETATM   33  C21 UNK     1      27.311  -6.595  31.489  1.00  0.00     0.001 A 
HETATM   34  C25 UNK     1      26.873  -7.474  30.498  1.00  0.00     0.000 A 
HETATM   35  C22 UNK     1      27.675  -8.549  30.116  1.00  0.00     0.001 A 
HETATM   36  C17 UNK     1      28.915  -8.746  30.723  1.00  0.00     0.007 A 
ENDBRANCH  30  31
ENDBRANCH  29  30
ENDBRANCH   2  29
TORSDOF 8
ENDMDL
