MODEL 1
REMARK VINA RESULT:      -9.2      0.000      0.000
REMARK  6 active torsions:
REMARK  status: ('A' for Active; 'I' for Inactive)
REMARK    1  A    between atoms: C18_26  and  O5_5 
REMARK    2  A    between atoms: C21_29  and  O6_6 
REMARK       I    between atoms: C12_20  and  N2_8 
REMARK    3  A    between atoms: C24_32  and  N2_8 
REMARK    4  A    between atoms: C1_9  and  C9_17 
REMARK    5  A    between atoms: C11_19  and  C4_12 
REMARK    6  A    between atoms: C12_20  and  C8_16 
ROOT
HETATM    1  O1  UNK     1      35.425  -7.550  32.513  1.00  0.00    -0.293 OA
HETATM    2  N1  UNK     1      33.698 -11.924  33.093  1.00  0.00    -0.362 N 
HETATM    3  C1  UNK     1      37.217 -10.609  33.228  1.00  0.00     0.031 C 
HETATM    4  C2  UNK     1      36.126 -11.628  32.870  1.00  0.00     0.067 C 
HETATM    5  C3  UNK     1      34.503  -9.703  32.898  1.00  0.00     0.024 C 
HETATM    6  C4  UNK     1      33.088  -9.153  33.041  1.00  0.00     0.104 C 
HETATM    7  C5  UNK     1      34.744 -11.031  32.954  1.00  0.00     0.021 C 
HETATM    8  C6  UNK     1      37.019  -9.323  32.423  1.00  0.00     0.093 C 
HETATM    9  C7  UNK     1      35.631  -8.758  32.630  1.00  0.00     0.159 C 
HETATM   10  C8  UNK     1      32.024 -10.253  33.040  1.00  0.00     0.045 C 
HETATM   11  C10 UNK     1      32.361 -11.562  33.091  1.00  0.00     0.018 C 
HETATM   12  C15 UNK     1      31.391 -12.710  33.145  1.00  0.00     0.069 C 
HETATM   13  H7  UNK     1      33.920 -12.912  33.127  1.00  0.00     0.165 HD
ENDROOT
BRANCH   6  14
HETATM   14  C11 UNK     1      32.975  -8.323  34.291  1.00  0.00     0.029 A 
HETATM   15  C16 UNK     1      32.479  -6.928  34.172  1.00  0.00     0.194 A 
HETATM   16  O4  UNK     1      32.160  -6.439  33.096  1.00  0.00    -0.287 OA
HETATM   17  C19 UNK     1      32.389  -6.157  35.425  1.00  0.00     0.048 A 
HETATM   18  C22 UNK     1      32.765  -6.765  36.624  1.00  0.00     0.089 A 
HETATM   19  C23 UNK     1      31.934  -4.836  35.420  1.00  0.00     0.018 A 
HETATM   20  O2  UNK     1      33.218  -8.059  36.689  1.00  0.00    -0.321 OA
HETATM   21  C25 UNK     1      32.688  -6.055  37.823  1.00  0.00     0.038 A 
HETATM   22  C17 UNK     1      33.297  -8.764  35.513  1.00  0.00     0.154 A 
HETATM   23  C27 UNK     1      32.235  -4.735  37.818  1.00  0.00     0.003 A 
HETATM   24  C26 UNK     1      31.858  -4.127  36.619  1.00  0.00     0.001 A 
ENDBRANCH   6  14
BRANCH  10  25
HETATM   25  C12 UNK     1      30.623  -9.812  32.930  1.00  0.00     0.255 C 
HETATM   26  O3  UNK     1      29.791 -10.234  33.727  1.00  0.00    -0.268 OA
HETATM   27  N2  UNK     1      30.439  -8.929  31.877  1.00  0.00    -0.323 N 
HETATM   28  H15 UNK     1      31.254  -8.679  31.319  1.00  0.00     0.169 HD
BRANCH  27  29
HETATM   29  C24 UNK     1      29.231  -8.306  31.478  1.00  0.00     0.035 A 
HETATM   30  C28 UNK     1      28.471  -8.885  30.476  1.00  0.00     0.030 A 
HETATM   31  C32 UNK     1      27.281  -8.273  30.083  1.00  0.00     0.009 A 
HETATM   32  C34 UNK     1      26.870  -7.090  30.698  1.00  0.00    -0.062 A 
HETATM   33  C33 UNK     1      27.648  -6.521  31.705  1.00  0.00     0.009 A 
HETATM   34  C35 UNK     1      25.597  -6.435  30.278  1.00  0.00     0.048 C 
HETATM   35  C29 UNK     1      28.838  -7.133  32.098  1.00  0.00     0.030 A 
ENDBRANCH  27  29
ENDBRANCH  10  25
BRANCH   3  36
HETATM   36  C9  UNK     1      38.610 -11.186  33.057  1.00  0.00    -0.050 A 
HETATM   37  C13 UNK     1      39.037 -12.226  33.880  1.00  0.00     0.047 A 
HETATM   38  C18 UNK     1      40.318 -12.755  33.723  1.00  0.00     0.102 A 
HETATM   39  C21 UNK     1      41.169 -12.243  32.743  1.00  0.00     0.101 A 
HETATM   40  C20 UNK     1      40.738 -11.202  31.920  1.00  0.00     0.040 A 
HETATM   41  C14 UNK     1      39.458 -10.673  32.078  1.00  0.00     0.010 A 
BRANCH  38  42
HETATM   42  O5  UNK     1      40.727 -13.772  34.531  1.00  0.00    -0.353 OA
HETATM   43  C30 UNK     1      39.955 -14.971  34.505  1.00  0.00     0.210 C 
ENDBRANCH  38  42
BRANCH  39  44
HETATM   44  O6  UNK     1      42.421 -12.752  32.579  1.00  0.00    -0.353 OA
HETATM   45  C31 UNK     1      43.514 -11.846  32.723  1.00  0.00     0.210 C 
ENDBRANCH  39  44
ENDBRANCH   3  36
TORSDOF 6
ENDMDL
MODEL 2
REMARK VINA RESULT:      -9.0     33.543     37.009
REMARK  6 active torsions:
REMARK  status: ('A' for Active; 'I' for Inactive)
REMARK    1  A    between atoms: C18_26  and  O5_5 
REMARK    2  A    between atoms: C21_29  and  O6_6 
REMARK       I    between atoms: C12_20  and  N2_8 
REMARK    3  A    between atoms: C24_32  and  N2_8 
REMARK    4  A    between atoms: C1_9  and  C9_17 
REMARK    5  A    between atoms: C11_19  and  C4_12 
REMARK    6  A    between atoms: C12_20  and  C8_16 
ROOT
HETATM    1  O1  UNK     1      18.139   9.423  10.182  1.00  0.00    -0.293 OA
HETATM    2  N1  UNK     1      15.309  12.086   7.472  1.00  0.00    -0.362 N 
HETATM    3  C1  UNK     1      14.671   8.871   9.313  1.00  0.00     0.031 C 
HETATM    4  C2  UNK     1      14.551   9.845   8.132  1.00  0.00     0.067 C 
HETATM    5  C3  UNK     1      16.731  10.843   8.903  1.00  0.00     0.024 C 
HETATM    6  C4  UNK     1      17.716  12.005   8.971  1.00  0.00     0.104 C 
HETATM    7  C5  UNK     1      15.586  10.941   8.194  1.00  0.00     0.021 C 
HETATM    8  C6  UNK     1      16.116   8.388   9.450  1.00  0.00     0.093 C 
HETATM    9  C7  UNK     1      17.072   9.554   9.583  1.00  0.00     0.159 C 
HETATM   10  C8  UNK     1      17.355  13.142   8.014  1.00  0.00     0.045 C 
HETATM   11  C10 UNK     1      16.184  13.152   7.338  1.00  0.00     0.018 C 
HETATM   12  C15 UNK     1      15.718  14.246   6.416  1.00  0.00     0.069 C 
HETATM   13  H7  UNK     1      14.440  12.119   6.950  1.00  0.00     0.165 HD
ENDROOT
BRANCH   6  14
HETATM   14  C11 UNK     1      17.814  12.523  10.380  1.00  0.00     0.029 A 
HETATM   15  C16 UNK     1      19.145  12.540  11.039  1.00  0.00     0.194 A 
HETATM   16  O4  UNK     1      20.157  12.147  10.472  1.00  0.00    -0.287 OA
HETATM   17  C19 UNK     1      19.186  13.056  12.419  1.00  0.00     0.048 A 
HETATM   18  C22 UNK     1      18.002  13.490  13.016  1.00  0.00     0.089 A 
HETATM   19  C23 UNK     1      20.390  13.111  13.125  1.00  0.00     0.018 A 
HETATM   20  O2  UNK     1      16.791  13.459  12.370  1.00  0.00    -0.321 OA
HETATM   21  C25 UNK     1      18.016  13.983  14.321  1.00  0.00     0.038 A 
HETATM   22  C17 UNK     1      16.769  12.974  11.085  1.00  0.00     0.154 A 
HETATM   23  C27 UNK     1      19.218  14.039  15.027  1.00  0.00     0.003 A 
HETATM   24  C26 UNK     1      20.402  13.604  14.430  1.00  0.00     0.001 A 
ENDBRANCH   6  14
BRANCH  10  25
HETATM   25  C12 UNK     1      18.370  14.194   7.831  1.00  0.00     0.255 C 
HETATM   26  O3  UNK     1      18.044  15.373   7.925  1.00  0.00    -0.268 OA
HETATM   27  N2  UNK     1      19.623  13.664   7.562  1.00  0.00    -0.323 N 
HETATM   28  H15 UNK     1      19.712  12.650   7.530  1.00  0.00     0.169 HD
BRANCH  27  29
HETATM   29  C24 UNK     1      20.826  14.375   7.333  1.00  0.00     0.035 A 
HETATM   30  C28 UNK     1      21.794  14.403   8.323  1.00  0.00     0.030 A 
HETATM   31  C32 UNK     1      22.978  15.103   8.099  1.00  0.00     0.009 A 
HETATM   32  C34 UNK     1      23.178  15.765   6.887  1.00  0.00    -0.062 A 
HETATM   33  C33 UNK     1      22.193  15.726   5.901  1.00  0.00     0.009 A 
HETATM   34  C35 UNK     1      24.446  16.514   6.648  1.00  0.00     0.048 C 
HETATM   35  C29 UNK     1      21.008  15.027   6.126  1.00  0.00     0.030 A 
ENDBRANCH  27  29
ENDBRANCH  10  25
BRANCH   3  36
HETATM   36  C9  UNK     1      13.689   7.721   9.202  1.00  0.00    -0.050 A 
HETATM   37  C13 UNK     1      12.553   7.852   8.407  1.00  0.00     0.047 A 
HETATM   38  C18 UNK     1      11.649   6.794   8.305  1.00  0.00     0.102 A 
HETATM   39  C21 UNK     1      11.884   5.607   9.000  1.00  0.00     0.101 A 
HETATM   40  C20 UNK     1      13.023   5.479   9.796  1.00  0.00     0.040 A 
HETATM   41  C14 UNK     1      13.926   6.537   9.897  1.00  0.00     0.010 A 
BRANCH  38  42
HETATM   42  O5  UNK     1      10.541   6.932   7.525  1.00  0.00    -0.353 OA
HETATM   43  C30 UNK     1      10.721   6.799   6.116  1.00  0.00     0.210 C 
ENDBRANCH  38  42
BRANCH  39  44
HETATM   44  O6  UNK     1      11.010   4.567   8.909  1.00  0.00    -0.353 OA
HETATM   45  C31 UNK     1      10.134   4.357  10.015  1.00  0.00     0.210 C 
ENDBRANCH  39  44
ENDBRANCH   3  36
TORSDOF 6
ENDMDL
MODEL 3
REMARK VINA RESULT:      -9.0      2.540      5.254
REMARK  6 active torsions:
REMARK  status: ('A' for Active; 'I' for Inactive)
REMARK    1  A    between atoms: C18_26  and  O5_5 
REMARK    2  A    between atoms: C21_29  and  O6_6 
REMARK       I    between atoms: C12_20  and  N2_8 
REMARK    3  A    between atoms: C24_32  and  N2_8 
REMARK    4  A    between atoms: C1_9  and  C9_17 
REMARK    5  A    between atoms: C11_19  and  C4_12 
REMARK    6  A    between atoms: C12_20  and  C8_16 
ROOT
HETATM    1  O1  UNK     1      33.491 -10.971  33.205  1.00  0.00    -0.293 OA
HETATM    2  N1  UNK     1      35.713  -6.909  34.209  1.00  0.00    -0.362 N 
HETATM    3  C1  UNK     1      36.878  -9.992  32.401  1.00  0.00     0.031 C 
HETATM    4  C2  UNK     1      37.028  -8.800  33.358  1.00  0.00     0.067 C 
HETATM    5  C3  UNK     1      34.528  -8.880  33.640  1.00  0.00     0.024 C 
HETATM    6  C4  UNK     1      33.203  -8.212  33.990  1.00  0.00     0.104 C 
HETATM    7  C5  UNK     1      35.695  -8.208  33.738  1.00  0.00     0.021 C 
HETATM    8  C6  UNK     1      35.865 -10.991  32.962  1.00  0.00     0.093 C 
HETATM    9  C7  UNK     1      34.536 -10.322  33.241  1.00  0.00     0.159 C 
HETATM   10  C8  UNK     1      33.386  -6.835  34.631  1.00  0.00     0.045 C 
HETATM   11  C10 UNK     1      34.600  -6.240  34.692  1.00  0.00     0.018 C 
HETATM   12  C15 UNK     1      34.873  -4.872  35.254  1.00  0.00     0.069 C 
HETATM   13  H7  UNK     1      36.610  -6.440  34.271  1.00  0.00     0.165 HD
ENDROOT
BRANCH   6  14
HETATM   14  C11 UNK     1      32.334  -8.103  32.766  1.00  0.00     0.029 A 
HETATM   15  C16 UNK     1      30.958  -8.658  32.821  1.00  0.00     0.194 A 
HETATM   16  O4  UNK     1      30.513  -9.196  33.826  1.00  0.00    -0.287 OA
HETATM   17  C19 UNK     1      30.150  -8.526  31.595  1.00  0.00     0.048 A 
HETATM   18  C22 UNK     1      30.708  -7.902  30.478  1.00  0.00     0.089 A 
HETATM   19  C23 UNK     1      28.843  -9.017  31.546  1.00  0.00     0.018 A 
HETATM   20  O2  UNK     1      31.986  -7.401  30.471  1.00  0.00    -0.321 OA
HETATM   21  C25 UNK     1      29.962  -7.766  29.307  1.00  0.00     0.038 A 
HETATM   22  C17 UNK     1      32.727  -7.533  31.620  1.00  0.00     0.154 A 
HETATM   23  C27 UNK     1      28.657  -8.256  29.256  1.00  0.00     0.003 A 
HETATM   24  C26 UNK     1      28.099  -8.880  30.373  1.00  0.00     0.001 A 
ENDBRANCH   6  14
BRANCH  10  25
HETATM   25  C12 UNK     1      32.186  -6.220  35.222  1.00  0.00     0.255 C 
HETATM   26  O3  UNK     1      31.911  -5.053  34.957  1.00  0.00    -0.268 OA
HETATM   27  N2  UNK     1      31.500  -7.103  36.041  1.00  0.00    -0.323 N 
HETATM   28  H15 UNK     1      31.872  -8.046  36.139  1.00  0.00     0.169 HD
BRANCH  27  29
HETATM   29  C24 UNK     1      30.309  -6.855  36.767  1.00  0.00     0.035 A 
HETATM   30  C28 UNK     1      29.087  -7.078  36.156  1.00  0.00     0.030 A 
HETATM   31  C32 UNK     1      27.914  -6.834  36.870  1.00  0.00     0.009 A 
HETATM   32  C34 UNK     1      27.981  -6.370  38.184  1.00  0.00    -0.062 A 
HETATM   33  C33 UNK     1      29.221  -6.151  38.783  1.00  0.00     0.009 A 
HETATM   34  C35 UNK     1      26.727  -6.109  38.947  1.00  0.00     0.048 C 
HETATM   35  C29 UNK     1      30.394  -6.394  38.069  1.00  0.00     0.030 A 
ENDBRANCH  27  29
ENDBRANCH  10  25
BRANCH   3  36
HETATM   36  C9  UNK     1      38.214 -10.641  32.090  1.00  0.00    -0.050 A 
HETATM   37  C13 UNK     1      38.721 -10.602  30.793  1.00  0.00     0.047 A 
HETATM   38  C18 UNK     1      39.948 -11.199  30.507  1.00  0.00     0.102 A 
HETATM   39  C21 UNK     1      40.667 -11.835  31.520  1.00  0.00     0.101 A 
HETATM   40  C20 UNK     1      40.157 -11.873  32.819  1.00  0.00     0.040 A 
HETATM   41  C14 UNK     1      38.929 -11.275  33.104  1.00  0.00     0.010 A 
BRANCH  38  42
HETATM   42  O5  UNK     1      40.435 -11.156  29.237  1.00  0.00    -0.353 OA
HETATM   43  C30 UNK     1      39.943 -12.132  28.321  1.00  0.00     0.210 C 
ENDBRANCH  38  42
BRANCH  39  44
HETATM   44  O6  UNK     1      41.866 -12.422  31.255  1.00  0.00    -0.353 OA
HETATM   45  C31 UNK     1      42.718 -12.689  32.367  1.00  0.00     0.210 C 
ENDBRANCH  39  44
ENDBRANCH   3  36
TORSDOF 6
ENDMDL
MODEL 4
REMARK VINA RESULT:      -8.9      2.438      5.233
REMARK  6 active torsions:
REMARK  status: ('A' for Active; 'I' for Inactive)
REMARK    1  A    between atoms: C18_26  and  O5_5 
REMARK    2  A    between atoms: C21_29  and  O6_6 
REMARK       I    between atoms: C12_20  and  N2_8 
REMARK    3  A    between atoms: C24_32  and  N2_8 
REMARK    4  A    between atoms: C1_9  and  C9_17 
REMARK    5  A    between atoms: C11_19  and  C4_12 
REMARK    6  A    between atoms: C12_20  and  C8_16 
ROOT
HETATM    1  O1  UNK     1      33.359 -10.704  33.160  1.00  0.00    -0.293 OA
HETATM    2  N1  UNK     1      35.551  -6.536  33.679  1.00  0.00    -0.362 N 
HETATM    3  C1  UNK     1      36.679  -9.750  32.088  1.00  0.00     0.031 C 
HETATM    4  C2  UNK     1      36.856  -8.475  32.927  1.00  0.00     0.067 C 
HETATM    5  C3  UNK     1      34.376  -8.567  33.351  1.00  0.00     0.024 C 
HETATM    6  C4  UNK     1      33.059  -7.890  33.714  1.00  0.00     0.104 C 
HETATM    7  C5  UNK     1      35.533  -7.871  33.326  1.00  0.00     0.021 C 
HETATM    8  C6  UNK     1      35.716 -10.710  32.790  1.00  0.00     0.093 C 
HETATM    9  C7  UNK     1      34.392 -10.039  33.082  1.00  0.00     0.159 C 
HETATM   10  C8  UNK     1      33.250  -6.459  34.220  1.00  0.00     0.045 C 
HETATM   11  C10 UNK     1      34.453  -5.843  34.161  1.00  0.00     0.018 C 
HETATM   12  C15 UNK     1      34.729  -4.427  34.586  1.00  0.00     0.069 C 
HETATM   13  H7  UNK     1      36.441  -6.050  33.651  1.00  0.00     0.165 HD
ENDROOT
BRANCH   6  14
HETATM   14  C11 UNK     1      32.124  -7.903  32.534  1.00  0.00     0.029 A 
HETATM   15  C16 UNK     1      30.749  -8.430  32.725  1.00  0.00     0.194 A 
HETATM   16  O4  UNK     1      30.357  -8.849  33.806  1.00  0.00    -0.287 OA
HETATM   17  C19 UNK     1      29.875  -8.421  31.538  1.00  0.00     0.048 A 
HETATM   18  C22 UNK     1      30.374  -7.931  30.331  1.00  0.00     0.089 A 
HETATM   19  C23 UNK     1      28.563  -8.897  31.615  1.00  0.00     0.018 A 
HETATM   20  O2  UNK     1      31.654  -7.452  30.199  1.00  0.00    -0.321 OA
HETATM   21  C25 UNK     1      29.565  -7.913  29.195  1.00  0.00     0.038 A 
HETATM   22  C17 UNK     1      32.456  -7.467  31.313  1.00  0.00     0.154 A 
HETATM   23  C27 UNK     1      28.256  -8.388  29.269  1.00  0.00     0.003 A 
HETATM   24  C26 UNK     1      27.756  -8.879  30.477  1.00  0.00     0.001 A 
ENDBRANCH   6  14
BRANCH  10  25
HETATM   25  C12 UNK     1      32.071  -5.812  34.819  1.00  0.00     0.255 C 
HETATM   26  O3  UNK     1      31.738  -4.692  34.443  1.00  0.00    -0.268 OA
HETATM   27  N2  UNK     1      31.472  -6.612  35.781  1.00  0.00    -0.323 N 
HETATM   28  H15 UNK     1      31.883  -7.526  35.960  1.00  0.00     0.169 HD
BRANCH  27  29
HETATM   29  C24 UNK     1      30.325  -6.312  36.556  1.00  0.00     0.035 A 
HETATM   30  C28 UNK     1      30.422  -5.381  37.576  1.00  0.00     0.030 A 
HETATM   31  C32 UNK     1      29.293  -5.086  38.339  1.00  0.00     0.009 A 
HETATM   32  C34 UNK     1      28.083  -5.727  38.070  1.00  0.00    -0.062 A 
HETATM   33  C33 UNK     1      28.003  -6.662  37.039  1.00  0.00     0.009 A 
HETATM   34  C35 UNK     1      26.875  -5.411  38.887  1.00  0.00     0.048 C 
HETATM   35  C29 UNK     1      29.133  -6.957  36.276  1.00  0.00     0.030 A 
ENDBRANCH  27  29
ENDBRANCH  10  25
BRANCH   3  36
HETATM   36  C9  UNK     1      38.008 -10.404  31.762  1.00  0.00    -0.050 A 
HETATM   37  C13 UNK     1      38.937 -10.632  32.775  1.00  0.00     0.047 A 
HETATM   38  C18 UNK     1      40.160 -11.233  32.475  1.00  0.00     0.102 A 
HETATM   39  C21 UNK     1      40.450 -11.605  31.163  1.00  0.00     0.101 A 
HETATM   40  C20 UNK     1      39.518 -11.376  30.150  1.00  0.00     0.040 A 
HETATM   41  C14 UNK     1      38.296 -10.775  30.450  1.00  0.00     0.010 A 
BRANCH  38  42
HETATM   42  O5  UNK     1      41.061 -11.452  33.472  1.00  0.00    -0.353 OA
HETATM   43  C30 UNK     1      40.889 -12.633  34.254  1.00  0.00     0.210 C 
ENDBRANCH  38  42
BRANCH  39  44
HETATM   44  O6  UNK     1      41.640 -12.193  30.857  1.00  0.00    -0.353 OA
HETATM   45  C31 UNK     1      41.601 -13.554  30.434  1.00  0.00     0.210 C 
ENDBRANCH  39  44
ENDBRANCH   3  36
TORSDOF 6
ENDMDL
MODEL 5
REMARK VINA RESULT:      -8.9     32.861     36.396
REMARK  6 active torsions:
REMARK  status: ('A' for Active; 'I' for Inactive)
REMARK    1  A    between atoms: C18_26  and  O5_5 
REMARK    2  A    between atoms: C21_29  and  O6_6 
REMARK       I    between atoms: C12_20  and  N2_8 
REMARK    3  A    between atoms: C24_32  and  N2_8 
REMARK    4  A    between atoms: C1_9  and  C9_17 
REMARK    5  A    between atoms: C11_19  and  C4_12 
REMARK    6  A    between atoms: C12_20  and  C8_16 
ROOT
HETATM    1  O1  UNK     1      17.489   8.936   9.580  1.00  0.00    -0.293 OA
HETATM    2  N1  UNK     1      14.979  12.851  10.485  1.00  0.00    -0.362 N 
HETATM    3  C1  UNK     1      17.630  12.143   7.915  1.00  0.00     0.031 C 
HETATM    4  C2  UNK     1      16.897  12.999   8.958  1.00  0.00     0.067 C 
HETATM    5  C3  UNK     1      16.135  10.839  10.003  1.00  0.00     0.024 C 
HETATM    6  C4  UNK     1      15.157  10.045  10.862  1.00  0.00     0.104 C 
HETATM    7  C5  UNK     1      15.992  12.172   9.836  1.00  0.00     0.021 C 
HETATM    8  C6  UNK     1      18.305  10.951   8.595  1.00  0.00     0.093 C 
HETATM    9  C7  UNK     1      17.305  10.138   9.389  1.00  0.00     0.159 C 
HETATM   10  C8  UNK     1      14.183  10.940  11.631  1.00  0.00     0.045 C 
HETATM   11  C10 UNK     1      14.115  12.272  11.400  1.00  0.00     0.018 C 
HETATM   12  C15 UNK     1      13.160  13.224  12.066  1.00  0.00     0.069 C 
HETATM   13  H7  UNK     1      14.907  13.851  10.336  1.00  0.00     0.165 HD
ENDROOT
BRANCH   6  14
HETATM   14  C11 UNK     1      14.398   9.061  10.014  1.00  0.00     0.029 A 
HETATM   15  C16 UNK     1      14.515   7.614  10.329  1.00  0.00     0.194 A 
HETATM   16  O4  UNK     1      15.205   7.203  11.253  1.00  0.00    -0.287 OA
HETATM   17  C19 UNK     1      13.753   6.693   9.467  1.00  0.00     0.048 A 
HETATM   18  C22 UNK     1      12.982   7.217   8.429  1.00  0.00     0.089 A 
HETATM   19  C23 UNK     1      13.798   5.313   9.682  1.00  0.00     0.018 A 
HETATM   20  O2  UNK     1      12.901   8.564   8.172  1.00  0.00    -0.321 OA
HETATM   21  C25 UNK     1      12.252   6.365   7.600  1.00  0.00     0.038 A 
HETATM   22  C17 UNK     1      13.618   9.409   8.983  1.00  0.00     0.154 A 
HETATM   23  C27 UNK     1      12.296   4.987   7.813  1.00  0.00     0.003 A 
HETATM   24  C26 UNK     1      13.067   4.462   8.852  1.00  0.00     0.001 A 
ENDBRANCH   6  14
BRANCH  10  25
HETATM   25  C12 UNK     1      13.366  10.285  12.666  1.00  0.00     0.255 C 
HETATM   26  O3  UNK     1      12.464   9.523  12.332  1.00  0.00    -0.268 OA
HETATM   27  N2  UNK     1      13.759  10.650  13.945  1.00  0.00    -0.323 N 
HETATM   28  H15 UNK     1      14.543  11.293  14.035  1.00  0.00     0.169 HD
BRANCH  27  29
HETATM   29  C24 UNK     1      13.201  10.216  15.172  1.00  0.00     0.035 A 
HETATM   30  C28 UNK     1      14.034  10.017  16.260  1.00  0.00     0.030 A 
HETATM   31  C32 UNK     1      13.485   9.590  17.469  1.00  0.00     0.009 A 
HETATM   32  C34 UNK     1      12.111   9.368  17.571  1.00  0.00    -0.062 A 
HETATM   33  C33 UNK     1      11.288   9.573  16.465  1.00  0.00     0.009 A 
HETATM   34  C35 UNK     1      11.525   8.910  18.864  1.00  0.00     0.048 C 
HETATM   35  C29 UNK     1      11.837  10.000  15.256  1.00  0.00     0.030 A 
ENDBRANCH  27  29
ENDBRANCH  10  25
BRANCH   3  36
HETATM   36  C9  UNK     1      18.605  12.963   7.093  1.00  0.00    -0.050 A 
HETATM   37  C13 UNK     1      19.953  13.001   7.446  1.00  0.00     0.047 A 
HETATM   38  C18 UNK     1      20.849  13.756   6.690  1.00  0.00     0.102 A 
HETATM   39  C21 UNK     1      20.396  14.472   5.581  1.00  0.00     0.101 A 
HETATM   40  C20 UNK     1      19.047  14.432   5.229  1.00  0.00     0.040 A 
HETATM   41  C14 UNK     1      18.151  13.678   5.986  1.00  0.00     0.010 A 
BRANCH  38  42
HETATM   42  O5  UNK     1      22.164  13.786   7.043  1.00  0.00    -0.353 OA
HETATM   43  C30 UNK     1      22.524  14.640   8.128  1.00  0.00     0.210 C 
ENDBRANCH  38  42
BRANCH  39  44
HETATM   44  O6  UNK     1      21.262  15.212   4.835  1.00  0.00    -0.353 OA
HETATM   45  C31 UNK     1      21.241  16.625   5.029  1.00  0.00     0.210 C 
ENDBRANCH  39  44
ENDBRANCH   3  36
TORSDOF 6
ENDMDL
MODEL 6
REMARK VINA RESULT:      -8.8      3.143      5.299
REMARK  6 active torsions:
REMARK  status: ('A' for Active; 'I' for Inactive)
REMARK    1  A    between atoms: C18_26  and  O5_5 
REMARK    2  A    between atoms: C21_29  and  O6_6 
REMARK       I    between atoms: C12_20  and  N2_8 
REMARK    3  A    between atoms: C24_32  and  N2_8 
REMARK    4  A    between atoms: C1_9  and  C9_17 
REMARK    5  A    between atoms: C11_19  and  C4_12 
REMARK    6  A    between atoms: C12_20  and  C8_16 
ROOT
HETATM    1  O1  UNK     1      32.532 -10.788  32.286  1.00  0.00    -0.293 OA
HETATM    2  N1  UNK     1      34.897  -7.855  35.159  1.00  0.00    -0.362 N 
HETATM    3  C1  UNK     1      35.981  -9.718  32.079  1.00  0.00     0.031 C 
HETATM    4  C2  UNK     1      36.154  -9.155  33.498  1.00  0.00     0.067 C 
HETATM    5  C3  UNK     1      33.645  -9.232  33.693  1.00  0.00     0.024 C 
HETATM    6  C4  UNK     1      32.340  -8.752  34.319  1.00  0.00     0.104 C 
HETATM    7  C5  UNK     1      34.836  -8.755  34.113  1.00  0.00     0.021 C 
HETATM    8  C6  UNK     1      34.909 -10.810  32.075  1.00  0.00     0.093 C 
HETATM    9  C7  UNK     1      33.603 -10.295  32.640  1.00  0.00     0.159 C 
HETATM   10  C8  UNK     1      32.564  -7.876  35.553  1.00  0.00     0.045 C 
HETATM   11  C10 UNK     1      33.800  -7.449  35.902  1.00  0.00     0.018 C 
HETATM   12  C15 UNK     1      34.115  -6.547  37.063  1.00  0.00     0.069 C 
HETATM   13  H7  UNK     1      35.811  -7.523  35.447  1.00  0.00     0.165 HD
ENDROOT
BRANCH   6  14
HETATM   14  C11 UNK     1      31.514  -8.014  33.301  1.00  0.00     0.029 A 
HETATM   15  C16 UNK     1      30.108  -8.442  33.083  1.00  0.00     0.194 A 
HETATM   16  O4  UNK     1      29.607  -9.371  33.704  1.00  0.00    -0.287 OA
HETATM   17  C19 UNK     1      29.344  -7.688  32.074  1.00  0.00     0.048 A 
HETATM   18  C22 UNK     1      29.965  -6.638  31.396  1.00  0.00     0.089 A 
HETATM   19  C23 UNK     1      28.014  -8.014  31.796  1.00  0.00     0.018 A 
HETATM   20  O2  UNK     1      31.269  -6.274  31.629  1.00  0.00    -0.321 OA
HETATM   21  C25 UNK     1      29.261  -5.910  30.437  1.00  0.00     0.038 A 
HETATM   22  C17 UNK     1      31.968  -6.988  32.571  1.00  0.00     0.154 A 
HETATM   23  C27 UNK     1      27.934  -6.235  30.158  1.00  0.00     0.003 A 
HETATM   24  C26 UNK     1      27.311  -7.284  30.836  1.00  0.00     0.001 A 
ENDBRANCH   6  14
BRANCH  10  25
HETATM   25  C12 UNK     1      31.374  -7.565  36.363  1.00  0.00     0.255 C 
HETATM   26  O3  UNK     1      31.205  -6.422  36.776  1.00  0.00    -0.268 OA
HETATM   27  N2  UNK     1      30.571  -8.680  36.552  1.00  0.00    -0.323 N 
HETATM   28  H15 UNK     1      30.865  -9.555  36.124  1.00  0.00     0.169 HD
BRANCH  27  29
HETATM   29  C24 UNK     1      29.355  -8.750  37.275  1.00  0.00     0.035 A 
HETATM   30  C28 UNK     1      28.220  -8.157  36.747  1.00  0.00     0.030 A 
HETATM   31  C32 UNK     1      27.022  -8.225  37.457  1.00  0.00     0.009 A 
HETATM   32  C34 UNK     1      26.977  -8.886  38.686  1.00  0.00    -0.062 A 
HETATM   33  C33 UNK     1      28.129  -9.478  39.202  1.00  0.00     0.009 A 
HETATM   34  C35 UNK     1      25.696  -8.959  39.446  1.00  0.00     0.048 C 
HETATM   35  C29 UNK     1      29.327  -9.408  38.491  1.00  0.00     0.030 A 
ENDBRANCH  27  29
ENDBRANCH  10  25
BRANCH   3  36
HETATM   36  C9  UNK     1      37.295 -10.201  31.497  1.00  0.00    -0.050 A 
HETATM   37  C13 UNK     1      37.406 -10.433  30.128  1.00  0.00     0.047 A 
HETATM   38  C18 UNK     1      38.615 -10.878  29.592  1.00  0.00     0.102 A 
HETATM   39  C21 UNK     1      39.711 -11.090  30.428  1.00  0.00     0.101 A 
HETATM   40  C20 UNK     1      39.598 -10.857  31.800  1.00  0.00     0.040 A 
HETATM   41  C14 UNK     1      38.389 -10.412  32.334  1.00  0.00     0.010 A 
BRANCH  38  42
HETATM   42  O5  UNK     1      38.713 -11.101  28.253  1.00  0.00    -0.353 OA
HETATM   43  C30 UNK     1      38.296 -12.380  27.777  1.00  0.00     0.210 C 
ENDBRANCH  38  42
BRANCH  39  44
HETATM   44  O6  UNK     1      40.897 -11.524  29.919  1.00  0.00    -0.353 OA
HETATM   45  C31 UNK     1      41.203 -12.908  30.076  1.00  0.00     0.210 C 
ENDBRANCH  39  44
ENDBRANCH   3  36
TORSDOF 6
ENDMDL
MODEL 7
REMARK VINA RESULT:      -8.7      2.980      5.121
REMARK  6 active torsions:
REMARK  status: ('A' for Active; 'I' for Inactive)
REMARK    1  A    between atoms: C18_26  and  O5_5 
REMARK    2  A    between atoms: C21_29  and  O6_6 
REMARK       I    between atoms: C12_20  and  N2_8 
REMARK    3  A    between atoms: C24_32  and  N2_8 
REMARK    4  A    between atoms: C1_9  and  C9_17 
REMARK    5  A    between atoms: C11_19  and  C4_12 
REMARK    6  A    between atoms: C12_20  and  C8_16 
ROOT
HETATM    1  O1  UNK     1      32.420 -10.727  32.270  1.00  0.00    -0.293 OA
HETATM    2  N1  UNK     1      34.759  -7.817  35.187  1.00  0.00    -0.362 N 
HETATM    3  C1  UNK     1      35.870  -9.656  32.102  1.00  0.00     0.031 C 
HETATM    4  C2  UNK     1      36.031  -9.104  33.526  1.00  0.00     0.067 C 
HETATM    5  C3  UNK     1      33.520  -9.183  33.698  1.00  0.00     0.024 C 
HETATM    6  C4  UNK     1      32.210  -8.707  34.317  1.00  0.00     0.104 C 
HETATM    7  C5  UNK     1      34.708  -8.709  34.133  1.00  0.00     0.021 C 
HETATM    8  C6  UNK     1      34.799 -10.747  32.080  1.00  0.00     0.093 C 
HETATM    9  C7  UNK     1      33.488 -10.237  32.637  1.00  0.00     0.159 C 
HETATM   10  C8  UNK     1      32.423  -7.841  35.559  1.00  0.00     0.045 C 
HETATM   11  C10 UNK     1      33.655  -7.417  35.923  1.00  0.00     0.018 C 
HETATM   12  C15 UNK     1      33.960  -6.524  37.094  1.00  0.00     0.069 C 
HETATM   13  H7  UNK     1      35.670  -7.487  35.486  1.00  0.00     0.165 HD
ENDROOT
BRANCH   6  14
HETATM   14  C11 UNK     1      31.393  -7.961  33.297  1.00  0.00     0.029 A 
HETATM   15  C16 UNK     1      30.001  -8.410  33.037  1.00  0.00     0.194 A 
HETATM   16  O4  UNK     1      29.504  -9.362  33.625  1.00  0.00    -0.287 OA
HETATM   17  C19 UNK     1      29.245  -7.647  32.029  1.00  0.00     0.048 A 
HETATM   18  C22 UNK     1      29.861  -6.570  31.390  1.00  0.00     0.089 A 
HETATM   19  C23 UNK     1      27.928  -7.991  31.712  1.00  0.00     0.018 A 
HETATM   20  O2  UNK     1      31.152  -6.188  31.661  1.00  0.00    -0.321 OA
HETATM   21  C25 UNK     1      29.165  -5.833  30.432  1.00  0.00     0.038 A 
HETATM   22  C17 UNK     1      31.844  -6.910  32.602  1.00  0.00     0.154 A 
HETATM   23  C27 UNK     1      27.851  -6.176  30.114  1.00  0.00     0.003 A 
HETATM   24  C26 UNK     1      27.233  -7.253  30.754  1.00  0.00     0.001 A 
ENDBRANCH   6  14
BRANCH  10  25
HETATM   25  C12 UNK     1      31.226  -7.537  36.361  1.00  0.00     0.255 C 
HETATM   26  O3  UNK     1      31.047  -6.395  36.774  1.00  0.00    -0.268 OA
HETATM   27  N2  UNK     1      30.427  -8.655  36.544  1.00  0.00    -0.323 N 
HETATM   28  H15 UNK     1      30.728  -9.529  36.118  1.00  0.00     0.169 HD
BRANCH  27  29
HETATM   29  C24 UNK     1      29.206  -8.732  37.258  1.00  0.00     0.035 A 
HETATM   30  C28 UNK     1      29.193  -9.312  38.516  1.00  0.00     0.030 A 
HETATM   31  C32 UNK     1      27.992  -9.388  39.220  1.00  0.00     0.009 A 
HETATM   32  C34 UNK     1      26.820  -8.882  38.655  1.00  0.00    -0.062 A 
HETATM   33  C33 UNK     1      26.852  -8.302  37.388  1.00  0.00     0.009 A 
HETATM   34  C35 UNK     1      25.535  -8.964  39.408  1.00  0.00     0.048 C 
HETATM   35  C29 UNK     1      28.053  -8.226  36.684  1.00  0.00     0.030 A 
ENDBRANCH  27  29
ENDBRANCH  10  25
BRANCH   3  36
HETATM   36  C9  UNK     1      37.190 -10.134  31.528  1.00  0.00    -0.050 A 
HETATM   37  C13 UNK     1      38.284 -10.331  32.368  1.00  0.00     0.047 A 
HETATM   38  C18 UNK     1      39.498 -10.770  31.840  1.00  0.00     0.102 A 
HETATM   39  C21 UNK     1      39.615 -11.012  30.470  1.00  0.00     0.101 A 
HETATM   40  C20 UNK     1      38.518 -10.815  29.631  1.00  0.00     0.040 A 
HETATM   41  C14 UNK     1      37.305 -10.375  30.160  1.00  0.00     0.010 A 
BRANCH  38  42
HETATM   42  O5  UNK     1      40.561 -10.959  32.669  1.00  0.00    -0.353 OA
HETATM   43  C30 UNK     1      40.538 -12.121  33.497  1.00  0.00     0.210 C 
ENDBRANCH  38  42
BRANCH  39  44
HETATM   44  O6  UNK     1      40.794 -11.442  29.942  1.00  0.00    -0.353 OA
HETATM   45  C31 UNK     1      40.898 -12.830  29.632  1.00  0.00     0.210 C 
ENDBRANCH  39  44
ENDBRANCH   3  36
TORSDOF 6
ENDMDL
MODEL 8
REMARK VINA RESULT:      -8.7     32.641     36.678
REMARK  6 active torsions:
REMARK  status: ('A' for Active; 'I' for Inactive)
REMARK    1  A    between atoms: C18_26  and  O5_5 
REMARK    2  A    between atoms: C21_29  and  O6_6 
REMARK       I    between atoms: C12_20  and  N2_8 
REMARK    3  A    between atoms: C24_32  and  N2_8 
REMARK    4  A    between atoms: C1_9  and  C9_17 
REMARK    5  A    between atoms: C11_19  and  C4_12 
REMARK    6  A    between atoms: C12_20  and  C8_16 
ROOT
HETATM    1  O1  UNK     1      17.697   9.208  10.158  1.00  0.00    -0.293 OA
HETATM    2  N1  UNK     1      14.222  12.428  10.246  1.00  0.00    -0.362 N 
HETATM    3  C1  UNK     1      17.073  11.921   7.849  1.00  0.00     0.031 C 
HETATM    4  C2  UNK     1      16.100  12.753   8.697  1.00  0.00     0.067 C 
HETATM    5  C3  UNK     1      15.880  10.735  10.186  1.00  0.00     0.024 C 
HETATM    6  C4  UNK     1      15.105   9.909  11.208  1.00  0.00     0.104 C 
HETATM    7  C5  UNK     1      15.403  11.918   9.742  1.00  0.00     0.021 C 
HETATM    8  C6  UNK     1      18.004  11.115   8.757  1.00  0.00     0.093 C 
HETATM    9  C7  UNK     1      17.216  10.253   9.719  1.00  0.00     0.159 C 
HETATM   10  C8  UNK     1      13.901  10.658  11.782  1.00  0.00     0.045 C 
HETATM   11  C10 UNK     1      13.500  11.847  11.275  1.00  0.00     0.018 C 
HETATM   12  C15 UNK     1      12.303  12.632  11.736  1.00  0.00     0.069 C 
HETATM   13  H7  UNK     1      13.901  13.321   9.889  1.00  0.00     0.165 HD
ENDROOT
BRANCH   6  14
HETATM   14  C11 UNK     1      14.663   8.606  10.598  1.00  0.00     0.029 A 
HETATM   15  C16 UNK     1      13.677   8.641   9.488  1.00  0.00     0.194 A 
HETATM   16  O4  UNK     1      13.216   9.691   9.059  1.00  0.00    -0.287 OA
HETATM   17  C19 UNK     1      13.277   7.338   8.927  1.00  0.00     0.048 A 
HETATM   18  C22 UNK     1      13.834   6.172   9.455  1.00  0.00     0.089 A 
HETATM   19  C23 UNK     1      12.353   7.264   7.881  1.00  0.00     0.018 A 
HETATM   20  O2  UNK     1      14.745   6.186  10.482  1.00  0.00    -0.321 OA
HETATM   21  C25 UNK     1      13.471   4.928   8.940  1.00  0.00     0.038 A 
HETATM   22  C17 UNK     1      15.106   7.407  10.995  1.00  0.00     0.154 A 
HETATM   23  C27 UNK     1      12.548   4.852   7.896  1.00  0.00     0.003 A 
HETATM   24  C26 UNK     1      11.991   6.018   7.368  1.00  0.00     0.001 A 
ENDBRANCH   6  14
BRANCH  10  25
HETATM   25  C12 UNK     1      13.237  10.042  12.943  1.00  0.00     0.255 C 
HETATM   26  O3  UNK     1      12.397   9.165  12.766  1.00  0.00    -0.268 OA
HETATM   27  N2  UNK     1      13.686  10.577  14.141  1.00  0.00    -0.323 N 
HETATM   28  H15 UNK     1      14.402  11.299  14.099  1.00  0.00     0.169 HD
BRANCH  27  29
HETATM   29  C24 UNK     1      13.271  10.226  15.449  1.00  0.00     0.035 A 
HETATM   30  C28 UNK     1      11.919  10.097  15.718  1.00  0.00     0.030 A 
HETATM   31  C32 UNK     1      11.510   9.751  17.005  1.00  0.00     0.009 A 
HETATM   32  C34 UNK     1      12.459   9.539  18.005  1.00  0.00    -0.062 A 
HETATM   33  C33 UNK     1      13.817   9.672  17.716  1.00  0.00     0.009 A 
HETATM   34  C35 UNK     1      12.021   9.169  19.382  1.00  0.00     0.048 C 
HETATM   35  C29 UNK     1      14.226  10.019  16.429  1.00  0.00     0.030 A 
ENDBRANCH  27  29
ENDBRANCH  10  25
BRANCH   3  36
HETATM   36  C9  UNK     1      17.838  12.778   6.858  1.00  0.00    -0.050 A 
HETATM   37  C13 UNK     1      17.729  14.166   6.910  1.00  0.00     0.047 A 
HETATM   38  C18 UNK     1      18.431  14.954   5.998  1.00  0.00     0.102 A 
HETATM   39  C21 UNK     1      19.241  14.352   5.035  1.00  0.00     0.101 A 
HETATM   40  C20 UNK     1      19.349  12.961   4.985  1.00  0.00     0.040 A 
HETATM   41  C14 UNK     1      18.646  12.174   5.897  1.00  0.00     0.010 A 
BRANCH  38  42
HETATM   42  O5  UNK     1      18.318  16.309   6.058  1.00  0.00    -0.353 OA
HETATM   43  C30 UNK     1      18.927  16.962   7.171  1.00  0.00     0.210 C 
ENDBRANCH  38  42
BRANCH  39  44
HETATM   44  O6  UNK     1      19.932  15.109   4.140  1.00  0.00    -0.353 OA
HETATM   45  C31 UNK     1      21.225  15.563   4.536  1.00  0.00     0.210 C 
ENDBRANCH  39  44
ENDBRANCH   3  36
TORSDOF 6
ENDMDL
MODEL 9
REMARK VINA RESULT:      -8.6      2.441      5.279
REMARK  6 active torsions:
REMARK  status: ('A' for Active; 'I' for Inactive)
REMARK    1  A    between atoms: C18_26  and  O5_5 
REMARK    2  A    between atoms: C21_29  and  O6_6 
REMARK       I    between atoms: C12_20  and  N2_8 
REMARK    3  A    between atoms: C24_32  and  N2_8 
REMARK    4  A    between atoms: C1_9  and  C9_17 
REMARK    5  A    between atoms: C11_19  and  C4_12 
REMARK    6  A    between atoms: C12_20  and  C8_16 
ROOT
HETATM    1  O1  UNK     1      33.789 -11.556  32.751  1.00  0.00    -0.293 OA
HETATM    2  N1  UNK     1      36.212  -7.728  34.137  1.00  0.00    -0.362 N 
HETATM    3  C1  UNK     1      37.193 -10.628  31.956  1.00  0.00     0.031 C 
HETATM    4  C2  UNK     1      37.421  -9.560  33.036  1.00  0.00     0.067 C 
HETATM    5  C3  UNK     1      34.928  -9.572  33.386  1.00  0.00     0.024 C 
HETATM    6  C4  UNK     1      33.642  -8.895  33.851  1.00  0.00     0.104 C 
HETATM    7  C5  UNK     1      36.125  -8.962  33.523  1.00  0.00     0.021 C 
HETATM    8  C6  UNK     1      36.153 -11.643  32.432  1.00  0.00     0.093 C 
HETATM    9  C7  UNK     1      34.862 -10.958  32.827  1.00  0.00     0.159 C 
HETATM   10  C8  UNK     1      33.903  -7.609  34.637  1.00  0.00     0.045 C 
HETATM   11  C10 UNK     1      35.142  -7.074  34.726  1.00  0.00     0.018 C 
HETATM   12  C15 UNK     1      35.490  -5.792  35.431  1.00  0.00     0.069 C 
HETATM   13  H7  UNK     1      37.130  -7.305  34.223  1.00  0.00     0.165 HD
ENDROOT
BRANCH   6  14
HETATM   14  C11 UNK     1      32.747  -8.612  32.675  1.00  0.00     0.029 A 
HETATM   15  C16 UNK     1      31.330  -9.050  32.742  1.00  0.00     0.194 A 
HETATM   16  O4  UNK     1      30.872  -9.629  33.719  1.00  0.00    -0.287 OA
HETATM   17  C19 UNK     1      30.496  -8.749  31.563  1.00  0.00     0.048 A 
HETATM   18  C22 UNK     1      31.070  -8.087  30.478  1.00  0.00     0.089 A 
HETATM   19  C23 UNK     1      29.150  -9.121  31.528  1.00  0.00     0.018 A 
HETATM   20  O2  UNK     1      32.387  -7.699  30.458  1.00  0.00    -0.321 OA
HETATM   21  C25 UNK     1      30.301  -7.792  29.352  1.00  0.00     0.038 A 
HETATM   22  C17 UNK     1      33.150  -7.987  31.562  1.00  0.00     0.154 A 
HETATM   23  C27 UNK     1      28.956  -8.163  29.315  1.00  0.00     0.003 A 
HETATM   24  C26 UNK     1      28.382  -8.825  30.401  1.00  0.00     0.001 A 
ENDBRANCH   6  14
BRANCH  10  25
HETATM   25  C12 UNK     1      32.747  -7.018  35.331  1.00  0.00     0.255 C 
HETATM   26  O3  UNK     1      32.414  -5.864  35.078  1.00  0.00    -0.268 OA
HETATM   27  N2  UNK     1      32.167  -7.907  36.224  1.00  0.00    -0.323 N 
HETATM   28  H15 UNK     1      32.574  -8.837  36.298  1.00  0.00     0.169 HD
BRANCH  27  29
HETATM   29  C24 UNK     1      31.044  -7.680  37.057  1.00  0.00     0.035 A 
HETATM   30  C28 UNK     1      31.009  -6.546  37.850  1.00  0.00     0.030 A 
HETATM   31  C32 UNK     1      29.904  -6.321  38.670  1.00  0.00     0.009 A 
HETATM   32  C34 UNK     1      28.849  -7.234  38.684  1.00  0.00    -0.062 A 
HETATM   33  C33 UNK     1      28.901  -8.371  37.877  1.00  0.00     0.009 A 
HETATM   34  C35 UNK     1      27.667  -6.994  39.561  1.00  0.00     0.048 C 
HETATM   35  C29 UNK     1      30.007  -8.595  37.058  1.00  0.00     0.030 A 
ENDBRANCH  27  29
ENDBRANCH  10  25
BRANCH   3  36
HETATM   36  C9  UNK     1      38.490 -11.291  31.532  1.00  0.00    -0.050 A 
HETATM   37  C13 UNK     1      39.699 -10.869  32.082  1.00  0.00     0.047 A 
HETATM   38  C18 UNK     1      40.892 -11.478  31.692  1.00  0.00     0.102 A 
HETATM   39  C21 UNK     1      40.873 -12.508  30.750  1.00  0.00     0.101 A 
HETATM   40  C20 UNK     1      39.661 -12.928  30.200  1.00  0.00     0.040 A 
HETATM   41  C14 UNK     1      38.469 -12.319  30.591  1.00  0.00     0.010 A 
BRANCH  38  42
HETATM   42  O5  UNK     1      42.067 -11.059  32.236  1.00  0.00    -0.353 OA
HETATM   43  C30 UNK     1      42.037  -9.849  32.990  1.00  0.00     0.210 C 
ENDBRANCH  38  42
BRANCH  39  44
HETATM   44  O6  UNK     1      42.030 -13.110  30.361  1.00  0.00    -0.353 OA
HETATM   45  C31 UNK     1      42.364 -14.343  30.995  1.00  0.00     0.210 C 
ENDBRANCH  39  44
ENDBRANCH   3  36
TORSDOF 6
ENDMDL
MODEL 10
REMARK VINA RESULT:      -8.3      2.535      5.299
REMARK  6 active torsions:
REMARK  status: ('A' for Active; 'I' for Inactive)
REMARK    1  A    between atoms: C18_26  and  O5_5 
REMARK    2  A    between atoms: C21_29  and  O6_6 
REMARK       I    between atoms: C12_20  and  N2_8 
REMARK    3  A    between atoms: C24_32  and  N2_8 
REMARK    4  A    between atoms: C1_9  and  C9_17 
REMARK    5  A    between atoms: C11_19  and  C4_12 
REMARK    6  A    between atoms: C12_20  and  C8_16 
ROOT
HETATM    1  O1  UNK     1      34.114 -11.629  32.605  1.00  0.00    -0.293 OA
HETATM    2  N1  UNK     1      36.410  -7.872  34.356  1.00  0.00    -0.362 N 
HETATM    3  C1  UNK     1      37.581 -10.695  32.167  1.00  0.00     0.031 C 
HETATM    4  C2  UNK     1      37.709  -9.670  33.304  1.00  0.00     0.067 C 
HETATM    5  C3  UNK     1      35.195  -9.678  33.419  1.00  0.00     0.024 C 
HETATM    6  C4  UNK     1      33.874  -9.010  33.787  1.00  0.00     0.104 C 
HETATM    7  C5  UNK     1      36.376  -9.082  33.690  1.00  0.00     0.021 C 
HETATM    8  C6  UNK     1      36.497 -11.720  32.505  1.00  0.00     0.093 C 
HETATM    9  C7  UNK     1      35.177 -11.042  32.804  1.00  0.00     0.159 C 
HETATM   10  C8  UNK     1      34.064  -7.757  34.644  1.00  0.00     0.045 C 
HETATM   11  C10 UNK     1      35.292  -7.234  34.868  1.00  0.00     0.018 C 
HETATM   12  C15 UNK     1      35.576  -5.981  35.650  1.00  0.00     0.069 C 
HETATM   13  H7  UNK     1      37.317  -7.459  34.544  1.00  0.00     0.165 HD
ENDROOT
BRANCH   6  14
HETATM   14  C11 UNK     1      33.093  -8.677  32.545  1.00  0.00     0.029 A 
HETATM   15  C16 UNK     1      31.688  -9.145  32.444  1.00  0.00     0.194 A 
HETATM   16  O4  UNK     1      31.150  -9.788  33.336  1.00  0.00    -0.287 OA
HETATM   17  C19 UNK     1      30.969  -8.793  31.206  1.00  0.00     0.048 A 
HETATM   18  C22 UNK     1      31.631  -8.058  30.223  1.00  0.00     0.089 A 
HETATM   19  C23 UNK     1      29.642  -9.187  31.015  1.00  0.00     0.018 A 
HETATM   20  O2  UNK     1      32.933  -7.644  30.357  1.00  0.00    -0.321 OA
HETATM   21  C25 UNK     1      30.970  -7.713  29.043  1.00  0.00     0.038 A 
HETATM   22  C17 UNK     1      33.590  -7.980  31.515  1.00  0.00     0.154 A 
HETATM   23  C27 UNK     1      29.646  -8.107  28.850  1.00  0.00     0.003 A 
HETATM   24  C26 UNK     1      28.983  -8.842  29.835  1.00  0.00     0.001 A 
ENDBRANCH   6  14
BRANCH  10  25
HETATM   25  C12 UNK     1      32.850  -7.184  35.249  1.00  0.00     0.255 C 
HETATM   26  O3  UNK     1      32.352  -6.173  34.764  1.00  0.00    -0.268 OA
HETATM   27  N2  UNK     1      32.423  -7.916  36.346  1.00  0.00    -0.323 N 
HETATM   28  H15 UNK     1      32.959  -8.742  36.603  1.00  0.00     0.169 HD
BRANCH  27  29
HETATM   29  C24 UNK     1      31.296  -7.658  37.165  1.00  0.00     0.035 A 
HETATM   30  C28 UNK     1      31.229  -6.466  37.866  1.00  0.00     0.030 A 
HETATM   31  C32 UNK     1      30.121  -6.212  38.673  1.00  0.00     0.009 A 
HETATM   32  C34 UNK     1      29.095  -7.154  38.766  1.00  0.00    -0.062 A 
HETATM   33  C33 UNK     1      29.180  -8.349  38.053  1.00  0.00     0.009 A 
HETATM   34  C35 UNK     1      27.910  -6.882  39.630  1.00  0.00     0.048 C 
HETATM   35  C29 UNK     1      30.289  -8.603  37.247  1.00  0.00     0.030 A 
ENDBRANCH  27  29
ENDBRANCH  10  25
BRANCH   3  36
HETATM   36  C9  UNK     1      38.909 -11.350  31.841  1.00  0.00    -0.050 A 
HETATM   37  C13 UNK     1      38.936 -12.590  31.206  1.00  0.00     0.047 A 
HETATM   38  C18 UNK     1      40.158 -13.192  30.907  1.00  0.00     0.102 A 
HETATM   39  C21 UNK     1      41.352 -12.553  31.243  1.00  0.00     0.101 A 
HETATM   40  C20 UNK     1      41.322 -11.310  31.878  1.00  0.00     0.040 A 
HETATM   41  C14 UNK     1      40.100 -10.709  32.177  1.00  0.00     0.010 A 
BRANCH  38  42
HETATM   42  O5  UNK     1      40.174 -14.404  30.287  1.00  0.00    -0.353 OA
HETATM   43  C30 UNK     1      39.254 -14.594  29.212  1.00  0.00     0.210 C 
ENDBRANCH  38  42
BRANCH  39  44
HETATM   44  O6  UNK     1      42.551 -13.130  30.956  1.00  0.00    -0.353 OA
HETATM   45  C31 UNK     1      43.580 -13.010  31.936  1.00  0.00     0.210 C 
ENDBRANCH  39  44
ENDBRANCH   3  36
TORSDOF 6
ENDMDL
