MODEL 1
REMARK VINA RESULT:      -8.7      0.000      0.000
REMARK  2 active torsions:
REMARK  status: ('A' for Active; 'I' for Inactive)
REMARK    1  A    between atoms: C9_14  and  O2_4 
REMARK    2  A    between atoms: C3_8  and  C4_9 
ROOT
HETATM    1  O1  UNK     1      19.390   2.127  31.298  1.00  0.00    -0.309 OA
HETATM    2  O3  UNK     1      17.739   2.120  27.573  1.00  0.00    -0.287 OA
HETATM    3  C1  UNK     1      18.941   0.937  29.229  1.00  0.00     0.048 A 
HETATM    4  C2  UNK     1      19.481   1.007  30.511  1.00  0.00     0.093 A 
HETATM    5  C3  UNK     1      18.737   3.240  30.788  1.00  0.00     0.091 A 
HETATM    6  C5  UNK     1      18.240   2.112  28.689  1.00  0.00     0.187 A 
HETATM    7  C6  UNK     1      18.171   3.293  29.573  1.00  0.00     0.093 A 
HETATM    8  C7  UNK     1      20.148  -0.095  31.047  1.00  0.00     0.075 A 
HETATM    9  C8  UNK     1      19.064  -0.231  28.472  1.00  0.00     0.021 A 
HETATM   10  C9  UNK     1      20.273  -1.264  30.296  1.00  0.00     0.070 A 
HETATM   11  C10 UNK     1      19.732  -1.331  29.011  1.00  0.00     0.038 A 
ENDROOT
BRANCH   5  12
HETATM   12  C4  UNK     1      18.691   4.386  31.719  1.00  0.00     0.020 A 
HETATM   13  C11 UNK     1      19.261   5.626  31.412  1.00  0.00     0.048 A 
HETATM   14 Cl1  UNK     1      20.071   5.904  29.909  1.00  0.00    -0.083 Cl
HETATM   15  C13 UNK     1      19.190   6.678  32.326  1.00  0.00     0.048 A 
HETATM   16  C15 UNK     1      18.547   6.496  33.550  1.00  0.00     0.035 A 
HETATM   17  C14 UNK     1      17.975   5.262  33.861  1.00  0.00     0.025 A 
HETATM   18 Cl2  UNK     1      18.457   7.793  34.677  1.00  0.00    -0.084 Cl
HETATM   19  C12 UNK     1      18.047   4.210  32.948  1.00  0.00     0.017 A 
ENDBRANCH   5  12
BRANCH  10  20
HETATM   20  O2  UNK     1      20.925  -2.339  30.817  1.00  0.00    -0.356 OA
HETATM   21  C16 UNK     1      20.933  -2.468  32.238  1.00  0.00     0.210 C 
ENDBRANCH  10  20
TORSDOF 2
ENDMDL
MODEL 2
REMARK VINA RESULT:      -8.2      1.781      2.367
REMARK  2 active torsions:
REMARK  status: ('A' for Active; 'I' for Inactive)
REMARK    1  A    between atoms: C9_14  and  O2_4 
REMARK    2  A    between atoms: C3_8  and  C4_9 
ROOT
HETATM    1  O1  UNK     1      19.530   1.224  31.480  1.00  0.00    -0.309 OA
HETATM    2  O3  UNK     1      19.110  -0.045  27.632  1.00  0.00    -0.287 OA
HETATM    3  C1  UNK     1      19.744  -0.562  29.849  1.00  0.00     0.048 A 
HETATM    4  C2  UNK     1      19.862  -0.064  31.145  1.00  0.00     0.093 A 
HETATM    5  C3  UNK     1      19.065   2.068  30.482  1.00  0.00     0.091 A 
HETATM    6  C5  UNK     1      19.242   0.326  28.790  1.00  0.00     0.187 A 
HETATM    7  C6  UNK     1      18.902   1.703  29.201  1.00  0.00     0.093 A 
HETATM    8  C7  UNK     1      20.332  -0.887  32.168  1.00  0.00     0.075 A 
HETATM    9  C8  UNK     1      20.096  -1.884  29.565  1.00  0.00     0.021 A 
HETATM   10  C9  UNK     1      20.685  -2.208  31.890  1.00  0.00     0.070 A 
HETATM   11  C10 UNK     1      20.567  -2.705  30.591  1.00  0.00     0.038 A 
ENDROOT
BRANCH   5  12
HETATM   12  C4  UNK     1      18.732   3.428  30.953  1.00  0.00     0.020 A 
HETATM   13  C11 UNK     1      18.211   3.675  32.227  1.00  0.00     0.048 A 
HETATM   14 Cl1  UNK     1      17.915   2.393  33.349  1.00  0.00    -0.083 Cl
HETATM   15  C13 UNK     1      17.913   4.979  32.625  1.00  0.00     0.048 A 
HETATM   16  C15 UNK     1      18.136   6.042  31.750  1.00  0.00     0.035 A 
HETATM   17  C14 UNK     1      18.656   5.802  30.477  1.00  0.00     0.025 A 
HETATM   18 Cl2  UNK     1      17.770   7.651  32.239  1.00  0.00    -0.084 Cl
HETATM   19  C12 UNK     1      18.954   4.498  30.081  1.00  0.00     0.017 A 
ENDBRANCH   5  12
BRANCH  10  20
HETATM   20  O2  UNK     1      21.146  -3.013  32.886  1.00  0.00    -0.356 OA
HETATM   21  C16 UNK     1      20.576  -2.833  34.182  1.00  0.00     0.210 C 
ENDBRANCH  10  20
TORSDOF 2
ENDMDL
MODEL 3
REMARK VINA RESULT:      -8.1      3.153      4.366
REMARK  2 active torsions:
REMARK  status: ('A' for Active; 'I' for Inactive)
REMARK    1  A    between atoms: C9_14  and  O2_4 
REMARK    2  A    between atoms: C3_8  and  C4_9 
ROOT
HETATM    1  O1  UNK     1      18.378   4.195  34.438  1.00  0.00    -0.309 OA
HETATM    2  O3  UNK     1      18.160   2.299  30.838  1.00  0.00    -0.287 OA
HETATM    3  C1  UNK     1      18.259   2.114  33.192  1.00  0.00     0.048 A 
HETATM    4  C2  UNK     1      18.333   2.825  34.388  1.00  0.00     0.093 A 
HETATM    5  C3  UNK     1      18.357   4.900  33.244  1.00  0.00     0.091 A 
HETATM    6  C5  UNK     1      18.227   2.858  31.924  1.00  0.00     0.187 A 
HETATM    7  C6  UNK     1      18.281   4.330  32.031  1.00  0.00     0.093 A 
HETATM    8  C7  UNK     1      18.361   2.142  35.604  1.00  0.00     0.075 A 
HETATM    9  C8  UNK     1      18.215   0.717  33.201  1.00  0.00     0.021 A 
HETATM   10  C9  UNK     1      18.317   0.748  35.619  1.00  0.00     0.070 A 
HETATM   11  C10 UNK     1      18.245   0.037  34.419  1.00  0.00     0.038 A 
ENDROOT
BRANCH   5  12
HETATM   12  C4  UNK     1      18.403   6.367  33.413  1.00  0.00     0.020 A 
HETATM   13  C11 UNK     1      17.347   7.200  33.029  1.00  0.00     0.048 A 
HETATM   14 Cl1  UNK     1      15.903   6.566  32.320  1.00  0.00    -0.083 Cl
HETATM   15  C13 UNK     1      17.439   8.581  33.210  1.00  0.00     0.048 A 
HETATM   16  C15 UNK     1      18.587   9.134  33.778  1.00  0.00     0.035 A 
HETATM   17  C14 UNK     1      19.643   8.308  34.163  1.00  0.00     0.025 A 
HETATM   18 Cl2  UNK     1      18.701  10.837  34.003  1.00  0.00    -0.084 Cl
HETATM   19  C12 UNK     1      19.550   6.928  33.981  1.00  0.00     0.017 A 
ENDBRANCH   5  12
BRANCH  10  20
HETATM   20  O2  UNK     1      18.347   0.079  36.804  1.00  0.00    -0.356 OA
HETATM   21  C16 UNK     1      17.651   0.671  37.900  1.00  0.00     0.210 C 
ENDBRANCH  10  20
TORSDOF 2
ENDMDL
MODEL 4
REMARK VINA RESULT:      -8.0     22.214     24.513
REMARK  2 active torsions:
REMARK  status: ('A' for Active; 'I' for Inactive)
REMARK    1  A    between atoms: C9_14  and  O2_4 
REMARK    2  A    between atoms: C3_8  and  C4_9 
ROOT
HETATM    1  O1  UNK     1       9.865   5.596   9.429  1.00  0.00    -0.309 OA
HETATM    2  O3  UNK     1       9.477   6.627   5.507  1.00  0.00    -0.287 OA
HETATM    3  C1  UNK     1      10.915   6.281   7.350  1.00  0.00     0.048 A 
HETATM    4  C2  UNK     1      10.977   5.919   8.694  1.00  0.00     0.093 A 
HETATM    5  C3  UNK     1       8.626   5.641   8.808  1.00  0.00     0.091 A 
HETATM    6  C5  UNK     1       9.604   6.321   6.684  1.00  0.00     0.187 A 
HETATM    7  C6  UNK     1       8.439   5.968   7.520  1.00  0.00     0.093 A 
HETATM    8  C7  UNK     1      12.208   5.871   9.347  1.00  0.00     0.075 A 
HETATM    9  C8  UNK     1      12.082   6.600   6.649  1.00  0.00     0.021 A 
HETATM   10  C9  UNK     1      13.376   6.187   8.652  1.00  0.00     0.070 A 
HETATM   11  C10 UNK     1      13.312   6.551   7.306  1.00  0.00     0.038 A 
ENDROOT
BRANCH   5  12
HETATM   12  C4  UNK     1       7.499   5.270   9.688  1.00  0.00     0.020 A 
HETATM   13  C11 UNK     1       6.859   6.196  10.519  1.00  0.00     0.048 A 
HETATM   14 Cl1  UNK     1       7.349   7.853  10.576  1.00  0.00    -0.083 Cl
HETATM   15  C13 UNK     1       5.798   5.794  11.332  1.00  0.00     0.048 A 
HETATM   16  C15 UNK     1       5.372   4.466  11.316  1.00  0.00     0.035 A 
HETATM   17  C14 UNK     1       6.006   3.539  10.489  1.00  0.00     0.025 A 
HETATM   18 Cl2  UNK     1       4.063   3.971  12.318  1.00  0.00    -0.084 Cl
HETATM   19  C12 UNK     1       7.067   3.940   9.677  1.00  0.00     0.017 A 
ENDBRANCH   5  12
BRANCH  10  20
HETATM   20  O2  UNK     1      14.579   6.143   9.288  1.00  0.00    -0.356 OA
HETATM   21  C16 UNK     1      14.931   4.915   9.925  1.00  0.00     0.210 C 
ENDBRANCH  10  20
TORSDOF 2
ENDMDL
MODEL 5
REMARK VINA RESULT:      -8.0      2.453      3.040
REMARK  2 active torsions:
REMARK  status: ('A' for Active; 'I' for Inactive)
REMARK    1  A    between atoms: C9_14  and  O2_4 
REMARK    2  A    between atoms: C3_8  and  C4_9 
ROOT
HETATM    1  O1  UNK     1      18.028   3.513  33.327  1.00  0.00    -0.309 OA
HETATM    2  O3  UNK     1      19.090   2.286  29.590  1.00  0.00    -0.287 OA
HETATM    3  C1  UNK     1      18.638   1.698  31.834  1.00  0.00     0.048 A 
HETATM    4  C2  UNK     1      18.270   2.185  33.087  1.00  0.00     0.093 A 
HETATM    5  C3  UNK     1      18.164   4.410  32.277  1.00  0.00     0.091 A 
HETATM    6  C5  UNK     1      18.773   2.644  30.716  1.00  0.00     0.187 A 
HETATM    7  C6  UNK     1      18.505   4.062  31.026  1.00  0.00     0.093 A 
HETATM    8  C7  UNK     1      18.132   1.308  34.162  1.00  0.00     0.075 A 
HETATM    9  C8  UNK     1      18.872   0.333  31.647  1.00  0.00     0.021 A 
HETATM   10  C9  UNK     1      18.364  -0.056  33.980  1.00  0.00     0.070 A 
HETATM   11  C10 UNK     1      18.733  -0.542  32.725  1.00  0.00     0.038 A 
ENDROOT
BRANCH   5  12
HETATM   12  C4  UNK     1      17.874   5.811  32.643  1.00  0.00     0.020 A 
HETATM   13  C11 UNK     1      18.878   6.716  33.003  1.00  0.00     0.048 A 
HETATM   14 Cl1  UNK     1      20.543   6.252  33.048  1.00  0.00    -0.083 Cl
HETATM   15  C13 UNK     1      18.552   8.031  33.341  1.00  0.00     0.048 A 
HETATM   16  C15 UNK     1      17.221   8.446  33.319  1.00  0.00     0.035 A 
HETATM   17  C14 UNK     1      16.215   7.548  32.960  1.00  0.00     0.025 A 
HETATM   18 Cl2  UNK     1      16.818  10.067  33.734  1.00  0.00    -0.084 Cl
HETATM   19  C12 UNK     1      16.541   6.234  32.623  1.00  0.00     0.017 A 
ENDBRANCH   5  12
BRANCH  10  20
HETATM   20  O2  UNK     1      18.231  -0.914  35.029  1.00  0.00    -0.356 OA
HETATM   21  C16 UNK     1      19.417  -1.559  35.492  1.00  0.00     0.210 C 
ENDBRANCH  10  20
TORSDOF 2
ENDMDL
MODEL 6
REMARK VINA RESULT:      -8.0      3.050      4.121
REMARK  2 active torsions:
REMARK  status: ('A' for Active; 'I' for Inactive)
REMARK    1  A    between atoms: C9_14  and  O2_4 
REMARK    2  A    between atoms: C3_8  and  C4_9 
ROOT
HETATM    1  O1  UNK     1      18.224   4.003  34.418  1.00  0.00    -0.309 OA
HETATM    2  O3  UNK     1      18.238   2.191  30.770  1.00  0.00    -0.287 OA
HETATM    3  C1  UNK     1      18.301   1.953  33.120  1.00  0.00     0.048 A 
HETATM    4  C2  UNK     1      18.291   2.635  34.334  1.00  0.00     0.093 A 
HETATM    5  C3  UNK     1      18.172   4.736  33.242  1.00  0.00     0.091 A 
HETATM    6  C5  UNK     1      18.236   2.725  31.870  1.00  0.00     0.187 A 
HETATM    7  C6  UNK     1      18.169   4.193  32.014  1.00  0.00     0.093 A 
HETATM    8  C7  UNK     1      18.348   1.926  35.534  1.00  0.00     0.075 A 
HETATM    9  C8  UNK     1      18.370   0.557  33.094  1.00  0.00     0.021 A 
HETATM   10  C9  UNK     1      18.416   0.532  35.513  1.00  0.00     0.070 A 
HETATM   11  C10 UNK     1      18.427  -0.150  34.295  1.00  0.00     0.038 A 
ENDROOT
BRANCH   5  12
HETATM   12  C4  UNK     1      18.096   6.196  33.447  1.00  0.00     0.020 A 
HETATM   13  C11 UNK     1      19.221   7.024  33.377  1.00  0.00     0.048 A 
HETATM   14 Cl1  UNK     1      20.794   6.389  33.044  1.00  0.00    -0.083 Cl
HETATM   15  C13 UNK     1      19.096   8.400  33.578  1.00  0.00     0.048 A 
HETATM   16  C15 UNK     1      17.845   8.953  33.850  1.00  0.00     0.035 A 
HETATM   17  C14 UNK     1      16.719   8.132  33.921  1.00  0.00     0.025 A 
HETATM   18 Cl2  UNK     1      17.689  10.649  34.098  1.00  0.00    -0.084 Cl
HETATM   19  C12 UNK     1      16.844   6.758  33.720  1.00  0.00     0.017 A 
ENDBRANCH   5  12
BRANCH  10  20
HETATM   20  O2  UNK     1      18.474  -0.163  36.682  1.00  0.00    -0.356 OA
HETATM   21  C16 UNK     1      17.694   0.332  37.770  1.00  0.00     0.210 C 
ENDBRANCH  10  20
TORSDOF 2
ENDMDL
MODEL 7
REMARK VINA RESULT:      -7.9      4.185      8.609
REMARK  2 active torsions:
REMARK  status: ('A' for Active; 'I' for Inactive)
REMARK    1  A    between atoms: C9_14  and  O2_4 
REMARK    2  A    between atoms: C3_8  and  C4_9 
ROOT
HETATM    1  O1  UNK     1      17.027   6.923  32.417  1.00  0.00    -0.309 OA
HETATM    2  O3  UNK     1      19.909   8.872  34.536  1.00  0.00    -0.287 OA
HETATM    3  C1  UNK     1      17.716   8.894  33.657  1.00  0.00     0.048 A 
HETATM    4  C2  UNK     1      16.776   8.172  32.924  1.00  0.00     0.093 A 
HETATM    5  C3  UNK     1      18.276   6.359  32.637  1.00  0.00     0.091 A 
HETATM    6  C5  UNK     1      19.038   8.296  33.900  1.00  0.00     0.187 A 
HETATM    7  C6  UNK     1      19.260   6.952  33.331  1.00  0.00     0.093 A 
HETATM    8  C7  UNK     1      15.514   8.715  32.682  1.00  0.00     0.075 A 
HETATM    9  C8  UNK     1      17.404  10.163  34.150  1.00  0.00     0.021 A 
HETATM   10  C9  UNK     1      15.198   9.982  33.174  1.00  0.00     0.070 A 
HETATM   11  C10 UNK     1      16.142  10.704  33.906  1.00  0.00     0.038 A 
ENDROOT
BRANCH   5  12
HETATM   12  C4  UNK     1      18.437   5.012  32.053  1.00  0.00     0.020 A 
HETATM   13  C11 UNK     1      18.910   4.809  30.752  1.00  0.00     0.048 A 
HETATM   14 Cl1  UNK     1      19.339   6.133  29.727  1.00  0.00    -0.083 Cl
HETATM   15  C13 UNK     1      19.046   3.515  30.248  1.00  0.00     0.048 A 
HETATM   16  C15 UNK     1      18.710   2.418  31.042  1.00  0.00     0.035 A 
HETATM   17  C14 UNK     1      18.238   2.615  32.340  1.00  0.00     0.025 A 
HETATM   18 Cl2  UNK     1      18.877   0.822  30.421  1.00  0.00    -0.084 Cl
HETATM   19  C12 UNK     1      18.103   3.908  32.844  1.00  0.00     0.017 A 
ENDBRANCH   5  12
BRANCH  10  20
HETATM   20  O2  UNK     1      13.968  10.515  32.937  1.00  0.00    -0.356 OA
HETATM   21  C16 UNK     1      13.391  11.303  33.978  1.00  0.00     0.210 C 
ENDBRANCH  10  20
TORSDOF 2
ENDMDL
MODEL 8
REMARK VINA RESULT:      -7.8     11.602     14.359
REMARK  2 active torsions:
REMARK  status: ('A' for Active; 'I' for Inactive)
REMARK    1  A    between atoms: C9_14  and  O2_4 
REMARK    2  A    between atoms: C3_8  and  C4_9 
ROOT
HETATM    1  O1  UNK     1      23.112  -8.722  36.938  1.00  0.00    -0.309 OA
HETATM    2  O3  UNK     1      24.190 -12.257  35.225  1.00  0.00    -0.287 OA
HETATM    3  C1  UNK     1      24.824 -10.396  36.535  1.00  0.00     0.048 A 
HETATM    4  C2  UNK     1      24.389  -9.196  37.095  1.00  0.00     0.093 A 
HETATM    5  C3  UNK     1      22.218  -9.468  36.184  1.00  0.00     0.091 A 
HETATM    6  C5  UNK     1      23.877 -11.194  35.742  1.00  0.00     0.187 A 
HETATM    7  C6  UNK     1      22.516 -10.640  35.601  1.00  0.00     0.093 A 
HETATM    8  C7  UNK     1      25.267  -8.421  37.853  1.00  0.00     0.075 A 
HETATM    9  C8  UNK     1      26.139 -10.830  36.728  1.00  0.00     0.021 A 
HETATM   10  C9  UNK     1      26.580  -8.851  38.048  1.00  0.00     0.070 A 
HETATM   11  C10 UNK     1      27.014 -10.053  37.486  1.00  0.00     0.038 A 
ENDROOT
BRANCH   5  12
HETATM   12  C4  UNK     1      20.871  -8.870  36.085  1.00  0.00     0.020 A 
HETATM   13  C11 UNK     1      19.781  -9.352  36.818  1.00  0.00     0.048 A 
HETATM   14 Cl1  UNK     1      19.935 -10.695  37.896  1.00  0.00    -0.083 Cl
HETATM   15  C13 UNK     1      18.527  -8.752  36.690  1.00  0.00     0.048 A 
HETATM   16  C15 UNK     1      18.359  -7.666  35.830  1.00  0.00     0.035 A 
HETATM   17  C14 UNK     1      19.443  -7.181  35.098  1.00  0.00     0.025 A 
HETATM   18 Cl2  UNK     1      16.814  -6.924  35.672  1.00  0.00    -0.084 Cl
HETATM   19  C12 UNK     1      20.695  -7.781  35.226  1.00  0.00     0.017 A 
ENDBRANCH   5  12
BRANCH  10  20
HETATM   20  O2  UNK     1      27.439  -8.096  38.787  1.00  0.00    -0.356 OA
HETATM   21  C16 UNK     1      27.392  -6.684  38.593  1.00  0.00     0.210 C 
ENDBRANCH  10  20
TORSDOF 2
ENDMDL
MODEL 9
REMARK VINA RESULT:      -7.7      6.625      9.731
REMARK  2 active torsions:
REMARK  status: ('A' for Active; 'I' for Inactive)
REMARK    1  A    between atoms: C9_14  and  O2_4 
REMARK    2  A    between atoms: C3_8  and  C4_9 
ROOT
HETATM    1  O1  UNK     1      20.343  -3.600  35.100  1.00  0.00    -0.309 OA
HETATM    2  O3  UNK     1      17.773  -0.779  36.524  1.00  0.00    -0.287 OA
HETATM    3  C1  UNK     1      19.041  -1.590  34.702  1.00  0.00     0.048 A 
HETATM    4  C2  UNK     1      19.917  -2.587  34.279  1.00  0.00     0.093 A 
HETATM    5  C3  UNK     1      19.886  -3.627  36.409  1.00  0.00     0.091 A 
HETATM    6  C5  UNK     1      18.546  -1.620  36.087  1.00  0.00     0.187 A 
HETATM    7  C6  UNK     1      19.036  -2.728  36.930  1.00  0.00     0.093 A 
HETATM    8  C7  UNK     1      20.399  -2.583  32.970  1.00  0.00     0.075 A 
HETATM    9  C8  UNK     1      18.640  -0.582  33.822  1.00  0.00     0.021 A 
HETATM   10  C9  UNK     1      20.001  -1.579  32.087  1.00  0.00     0.070 A 
HETATM   11  C10 UNK     1      19.123  -0.580  32.513  1.00  0.00     0.038 A 
ENDROOT
BRANCH   5  12
HETATM   12  C4  UNK     1      20.401  -4.762  37.202  1.00  0.00     0.020 A 
HETATM   13  C11 UNK     1      19.680  -5.949  37.370  1.00  0.00     0.048 A 
HETATM   14 Cl1  UNK     1      18.120  -6.170  36.657  1.00  0.00    -0.083 Cl
HETATM   15  C13 UNK     1      20.211  -6.993  38.128  1.00  0.00     0.048 A 
HETATM   16  C15 UNK     1      21.466  -6.855  38.721  1.00  0.00     0.035 A 
HETATM   17  C14 UNK     1      22.190  -5.674  38.556  1.00  0.00     0.025 A 
HETATM   18 Cl2  UNK     1      22.123  -8.142  39.656  1.00  0.00    -0.084 Cl
HETATM   19  C12 UNK     1      21.659  -4.631  37.798  1.00  0.00     0.017 A 
ENDBRANCH   5  12
BRANCH  10  20
HETATM   20  O2  UNK     1      20.470  -1.571  30.809  1.00  0.00    -0.356 OA
HETATM   21  C16 UNK     1      20.632  -0.299  30.185  1.00  0.00     0.210 C 
ENDBRANCH  10  20
TORSDOF 2
ENDMDL
MODEL 10
REMARK VINA RESULT:      -7.7     13.821     15.525
REMARK  2 active torsions:
REMARK  status: ('A' for Active; 'I' for Inactive)
REMARK    1  A    between atoms: C9_14  and  O2_4 
REMARK    2  A    between atoms: C3_8  and  C4_9 
ROOT
HETATM    1  O1  UNK     1      24.701  -8.920  37.078  1.00  0.00    -0.309 OA
HETATM    2  O3  UNK     1      24.468 -12.574  35.294  1.00  0.00    -0.287 OA
HETATM    3  C1  UNK     1      23.327 -10.674  36.114  1.00  0.00     0.048 A 
HETATM    4  C2  UNK     1      23.478  -9.431  36.726  1.00  0.00     0.093 A 
HETATM    5  C3  UNK     1      25.834  -9.678  36.821  1.00  0.00     0.091 A 
HETATM    6  C5  UNK     1      24.526 -11.477  35.831  1.00  0.00     0.187 A 
HETATM    7  C6  UNK     1      25.817 -10.884  36.232  1.00  0.00     0.093 A 
HETATM    8  C7  UNK     1      22.357  -8.649  37.002  1.00  0.00     0.075 A 
HETATM    9  C8  UNK     1      22.056 -11.146  35.776  1.00  0.00     0.021 A 
HETATM   10  C9  UNK     1      21.086  -9.116  36.666  1.00  0.00     0.070 A 
HETATM   11  C10 UNK     1      20.936 -10.361  36.054  1.00  0.00     0.038 A 
ENDROOT
BRANCH   5  12
HETATM   12  C4  UNK     1      27.096  -9.031  37.235  1.00  0.00     0.020 A 
HETATM   13  C11 UNK     1      27.684  -9.262  38.483  1.00  0.00     0.048 A 
HETATM   14 Cl1  UNK     1      26.967 -10.328  39.639  1.00  0.00    -0.083 Cl
HETATM   15  C13 UNK     1      28.878  -8.626  38.825  1.00  0.00     0.048 A 
HETATM   16  C15 UNK     1      29.489  -7.757  37.921  1.00  0.00     0.035 A 
HETATM   17  C14 UNK     1      28.907  -7.522  36.675  1.00  0.00     0.025 A 
HETATM   18 Cl2  UNK     1      30.962  -6.972  38.343  1.00  0.00    -0.084 Cl
HETATM   19  C12 UNK     1      27.714  -8.159  36.333  1.00  0.00     0.017 A 
ENDBRANCH   5  12
BRANCH  10  20
HETATM   20  O2  UNK     1      19.989  -8.355  36.936  1.00  0.00    -0.356 OA
HETATM   21  C16 UNK     1      19.064  -8.868  37.894  1.00  0.00     0.210 C 
ENDBRANCH  10  20
TORSDOF 2
ENDMDL
