MODEL 1
REMARK VINA RESULT:      -8.8      0.000      0.000
REMARK  3 active torsions:
REMARK  status: ('A' for Active; 'I' for Inactive)
REMARK    1  A    between atoms: C10_18  and  O2_3 
REMARK    2  A    between atoms: C10_18  and  C2_10 
REMARK    3  A    between atoms: C6_14  and  C9_17 
ROOT
HETATM    1  O1  UNK     1      29.948 -10.234  31.890  1.00  0.00    -0.292 OA
HETATM    2  N1  UNK     1      31.054  -5.695  33.057  1.00  0.00    -0.357 N 
HETATM    3  N2  UNK     1      32.279  -8.098  34.389  1.00  0.00    -0.375 N 
HETATM    4  C1  UNK     1      30.286  -7.290  29.770  1.00  0.00     0.008 C 
HETATM    5  C2  UNK     1      29.619  -8.593  30.202  1.00  0.00     0.164 C 
HETATM    6  C3  UNK     1      30.172  -6.250  30.886  1.00  0.00     0.063 C 
HETATM    7  C4  UNK     1      30.614  -8.046  32.567  1.00  0.00     0.038 C 
HETATM    8  C5  UNK     1      30.645  -6.736  32.245  1.00  0.00     0.022 C 
HETATM    9  C6  UNK     1      31.004  -8.605  33.912  1.00  0.00     0.160 C 
HETATM   10  C7  UNK     1      30.076  -9.049  31.575  1.00  0.00     0.173 C 
HETATM   11  C8  UNK     1      31.746  -7.517  29.354  1.00  0.00     0.011 C 
HETATM   12  C11 UNK     1      31.932  -5.661  34.159  1.00  0.00     0.059 A 
HETATM   13  C12 UNK     1      32.553  -6.784  34.731  1.00  0.00     0.055 A 
HETATM   14  C15 UNK     1      32.242  -4.381  34.675  1.00  0.00     0.032 A 
HETATM   15  C16 UNK     1      33.497  -6.576  35.763  1.00  0.00     0.031 A 
HETATM   16  C18 UNK     1      33.160  -4.201  35.706  1.00  0.00     0.002 A 
HETATM   17  C19 UNK     1      33.799  -5.304  36.247  1.00  0.00     0.002 A 
HETATM   18  H9  UNK     1      30.758  -4.778  32.735  1.00  0.00     0.166 HD
HETATM   19  H10 UNK     1      32.920  -8.796  34.756  1.00  0.00     0.160 HD
ENDROOT
BRANCH   9  20
HETATM   20  C9  UNK     1      29.927  -8.436  34.942  1.00  0.00     0.042 A 
HETATM   21  C13 UNK     1      30.069  -9.146  36.237  1.00  0.00     0.195 A 
HETATM   22  O5  UNK     1      31.032  -9.859  36.487  1.00  0.00    -0.287 OA
HETATM   23  C17 UNK     1      28.983  -8.946  37.215  1.00  0.00     0.050 A 
HETATM   24  C20 UNK     1      27.910  -8.122  36.876  1.00  0.00     0.089 A 
HETATM   25  C21 UNK     1      29.024  -9.571  38.464  1.00  0.00     0.042 A 
HETATM   26  O4  UNK     1      27.818  -7.483  35.666  1.00  0.00    -0.321 OA
HETATM   27  C23 UNK     1      26.871  -7.918  37.786  1.00  0.00     0.040 A 
HETATM   28  C14 UNK     1      28.837  -7.679  34.766  1.00  0.00     0.156 A 
HETATM   29  C25 UNK     1      26.910  -8.540  39.033  1.00  0.00     0.026 A 
HETATM   30  C24 UNK     1      27.983  -9.365  39.371  1.00  0.00     0.035 A 
HETATM   31 Cl1  UNK     1      28.024 -10.131  40.912  1.00  0.00    -0.084 Cl
ENDBRANCH   9  20
BRANCH   5  32
HETATM   32  C10 UNK     1      28.123  -8.483  30.122  1.00  0.00     0.270 C 
HETATM   33  O3  UNK     1      27.423  -8.007  31.006  1.00  0.00    -0.264 OA
BRANCH  32  34
HETATM   34  O2  UNK     1      27.692  -8.988  28.931  1.00  0.00    -0.326 OA
HETATM   35  C22 UNK     1      28.446 -10.092  28.422  1.00  0.00     0.213 C 
ENDBRANCH  32  34
ENDBRANCH   5  32
TORSDOF 3
ENDMDL
MODEL 2
REMARK VINA RESULT:      -8.7      3.065      5.259
REMARK  3 active torsions:
REMARK  status: ('A' for Active; 'I' for Inactive)
REMARK    1  A    between atoms: C10_18  and  O2_3 
REMARK    2  A    between atoms: C10_18  and  C2_10 
REMARK    3  A    between atoms: C6_14  and  C9_17 
ROOT
HETATM    1  O1  UNK     1      34.673  -6.222  33.380  1.00  0.00    -0.292 OA
HETATM    2  N1  UNK     1      31.262  -8.714  31.069  1.00  0.00    -0.357 N 
HETATM    3  N2  UNK     1      30.748  -6.106  32.476  1.00  0.00    -0.375 N 
HETATM    4  C1  UNK     1      34.873  -8.156  30.298  1.00  0.00     0.008 C 
HETATM    5  C2  UNK     1      35.408  -7.667  31.642  1.00  0.00     0.164 C 
HETATM    6  C3  UNK     1      33.592  -8.965  30.510  1.00  0.00     0.063 C 
HETATM    7  C4  UNK     1      32.881  -7.329  32.262  1.00  0.00     0.038 C 
HETATM    8  C5  UNK     1      32.537  -8.261  31.346  1.00  0.00     0.022 C 
HETATM    9  C6  UNK     1      31.907  -6.631  33.176  1.00  0.00     0.160 C 
HETATM   10  C7  UNK     1      34.337  -6.996  32.481  1.00  0.00     0.173 C 
HETATM   11  C8  UNK     1      34.653  -6.991  29.323  1.00  0.00     0.011 C 
HETATM   12  C11 UNK     1      30.000  -8.111  31.237  1.00  0.00     0.059 A 
HETATM   13  C12 UNK     1      29.777  -6.859  31.835  1.00  0.00     0.055 A 
HETATM   14  C15 UNK     1      28.894  -8.812  30.703  1.00  0.00     0.032 A 
HETATM   15  C16 UNK     1      28.463  -6.337  31.831  1.00  0.00     0.031 A 
HETATM   16  C18 UNK     1      27.604  -8.287  30.727  1.00  0.00     0.002 A 
HETATM   17  C19 UNK     1      27.389  -7.038  31.286  1.00  0.00     0.002 A 
HETATM   18  H9  UNK     1      31.237  -9.588  30.549  1.00  0.00     0.166 HD
HETATM   19  H10 UNK     1      30.488  -5.152  32.710  1.00  0.00     0.160 HD
ENDROOT
BRANCH   9  20
HETATM   20  C9  UNK     1      31.505  -7.477  34.346  1.00  0.00     0.042 A 
HETATM   21  C13 UNK     1      30.512  -6.932  35.306  1.00  0.00     0.195 A 
HETATM   22  O5  UNK     1      30.017  -5.821  35.170  1.00  0.00    -0.287 OA
HETATM   23  C17 UNK     1      30.151  -7.806  36.439  1.00  0.00     0.050 A 
HETATM   24  C20 UNK     1      30.747  -9.062  36.543  1.00  0.00     0.089 A 
HETATM   25  C21 UNK     1      29.225  -7.383  37.397  1.00  0.00     0.042 A 
HETATM   26  O4  UNK     1      31.660  -9.527  35.632  1.00  0.00    -0.321 OA
HETATM   27  C23 UNK     1      30.419  -9.905  37.606  1.00  0.00     0.040 A 
HETATM   28  C14 UNK     1      31.987  -8.704  34.583  1.00  0.00     0.156 A 
HETATM   29  C25 UNK     1      29.496  -9.486  38.563  1.00  0.00     0.026 A 
HETATM   30  C24 UNK     1      28.901  -8.229  38.459  1.00  0.00     0.035 A 
HETATM   31 Cl1  UNK     1      27.761  -7.718  39.644  1.00  0.00    -0.084 Cl
ENDBRANCH   9  20
BRANCH   5  32
HETATM   32  C10 UNK     1      36.082  -8.783  32.388  1.00  0.00     0.270 C 
HETATM   33  O3  UNK     1      35.685  -9.232  33.455  1.00  0.00    -0.264 OA
BRANCH  32  34
HETATM   34  O2  UNK     1      37.180  -9.198  31.694  1.00  0.00    -0.326 OA
HETATM   35  C22 UNK     1      37.927 -10.257  32.300  1.00  0.00     0.213 C 
ENDBRANCH  32  34
ENDBRANCH   5  32
TORSDOF 3
ENDMDL
MODEL 3
REMARK VINA RESULT:      -8.7      3.192      6.791
REMARK  3 active torsions:
REMARK  status: ('A' for Active; 'I' for Inactive)
REMARK    1  A    between atoms: C10_18  and  O2_3 
REMARK    2  A    between atoms: C10_18  and  C2_10 
REMARK    3  A    between atoms: C6_14  and  C9_17 
ROOT
HETATM    1  O1  UNK     1      27.366  -6.695  35.467  1.00  0.00    -0.292 OA
HETATM    2  N1  UNK     1      31.890  -6.903  37.106  1.00  0.00    -0.357 N 
HETATM    3  N2  UNK     1      31.016  -5.096  34.866  1.00  0.00    -0.375 N 
HETATM    4  C1  UNK     1      28.605  -7.132  38.867  1.00  0.00     0.008 C 
HETATM    5  C2  UNK     1      27.650  -7.425  37.712  1.00  0.00     0.164 C 
HETATM    6  C3  UNK     1      30.026  -7.551  38.488  1.00  0.00     0.063 C 
HETATM    7  C4  UNK     1      29.642  -6.670  36.180  1.00  0.00     0.038 C 
HETATM    8  C5  UNK     1      30.512  -6.993  37.161  1.00  0.00     0.022 C 
HETATM    9  C6  UNK     1      30.042  -6.172  34.815  1.00  0.00     0.160 C 
HETATM   10  C7  UNK     1      28.163  -6.890  36.387  1.00  0.00     0.173 C 
HETATM   11  C8  UNK     1      28.542  -5.656  39.286  1.00  0.00     0.011 C 
HETATM   12  C11 UNK     1      32.741  -6.093  36.330  1.00  0.00     0.059 A 
HETATM   13  C12 UNK     1      32.317  -5.200  35.331  1.00  0.00     0.055 A 
HETATM   14  C15 UNK     1      34.121  -6.158  36.637  1.00  0.00     0.032 A 
HETATM   15  C16 UNK     1      33.284  -4.373  34.715  1.00  0.00     0.031 A 
HETATM   16  C18 UNK     1      35.059  -5.347  36.003  1.00  0.00     0.002 A 
HETATM   17  C19 UNK     1      34.637  -4.443  35.043  1.00  0.00     0.002 A 
HETATM   18  H9  UNK     1      32.368  -7.432  37.830  1.00  0.00     0.166 HD
HETATM   19  H10 UNK     1      30.820  -4.296  34.270  1.00  0.00     0.160 HD
ENDROOT
BRANCH   9  20
HETATM   20  C9  UNK     1      30.492  -7.276  33.906  1.00  0.00     0.042 A 
HETATM   21  C13 UNK     1      30.800  -6.947  32.491  1.00  0.00     0.195 A 
HETATM   22  O5  UNK     1      30.698  -5.811  32.050  1.00  0.00    -0.287 OA
HETATM   23  C17 UNK     1      31.239  -8.070  31.640  1.00  0.00     0.050 A 
HETATM   24  C20 UNK     1      31.338  -9.344  32.197  1.00  0.00     0.089 A 
HETATM   25  C21 UNK     1      31.552  -7.863  30.294  1.00  0.00     0.042 A 
HETATM   26  O4  UNK     1      31.043  -9.604  33.512  1.00  0.00    -0.321 OA
HETATM   27  C23 UNK     1      31.751 -10.421  31.411  1.00  0.00     0.040 A 
HETATM   28  C14 UNK     1      30.636  -8.550  34.292  1.00  0.00     0.156 A 
HETATM   29  C25 UNK     1      32.065 -10.217  30.068  1.00  0.00     0.026 A 
HETATM   30  C24 UNK     1      31.965  -8.942  29.511  1.00  0.00     0.035 A 
HETATM   31 Cl1  UNK     1      32.354  -8.697  27.851  1.00  0.00    -0.084 Cl
ENDBRANCH   9  20
BRANCH   5  32
HETATM   32  C10 UNK     1      27.335  -8.891  37.635  1.00  0.00     0.270 C 
HETATM   33  O3  UNK     1      27.689  -9.622  36.719  1.00  0.00    -0.264 OA
BRANCH  32  34
HETATM   34  O2  UNK     1      26.608  -9.259  38.729  1.00  0.00    -0.326 OA
HETATM   35  C22 UNK     1      27.133 -10.361  39.474  1.00  0.00     0.213 C 
ENDBRANCH  32  34
ENDBRANCH   5  32
TORSDOF 3
ENDMDL
MODEL 4
REMARK VINA RESULT:      -8.7      3.241      5.157
REMARK  3 active torsions:
REMARK  status: ('A' for Active; 'I' for Inactive)
REMARK    1  A    between atoms: C10_18  and  O2_3 
REMARK    2  A    between atoms: C10_18  and  C2_10 
REMARK    3  A    between atoms: C6_14  and  C9_17 
ROOT
HETATM    1  O1  UNK     1      33.469 -10.495  33.675  1.00  0.00    -0.292 OA
HETATM    2  N1  UNK     1      29.123 -10.009  31.659  1.00  0.00    -0.357 N 
HETATM    3  N2  UNK     1      31.044  -7.726  32.035  1.00  0.00    -0.375 N 
HETATM    4  C1  UNK     1      31.647 -12.753  31.470  1.00  0.00     0.008 C 
HETATM    5  C2  UNK     1      32.543 -12.438  32.666  1.00  0.00     0.164 C 
HETATM    6  C3  UNK     1      30.266 -12.129  31.674  1.00  0.00     0.063 C 
HETATM    7  C4  UNK     1      31.357 -10.098  32.641  1.00  0.00     0.038 C 
HETATM    8  C5  UNK     1      30.292 -10.650  32.021  1.00  0.00     0.022 C 
HETATM    9  C6  UNK     1      31.438  -8.658  33.077  1.00  0.00     0.160 C 
HETATM   10  C7  UNK     1      32.534 -10.963  33.022  1.00  0.00     0.173 C 
HETATM   11  C8  UNK     1      32.287 -12.295  30.152  1.00  0.00     0.011 C 
HETATM   12  C11 UNK     1      28.850  -8.656  31.378  1.00  0.00     0.059 A 
HETATM   13  C12 UNK     1      29.776  -7.605  31.491  1.00  0.00     0.055 A 
HETATM   14  C15 UNK     1      27.554  -8.365  30.890  1.00  0.00     0.032 A 
HETATM   15  C16 UNK     1      29.383  -6.315  31.065  1.00  0.00     0.031 A 
HETATM   16  C18 UNK     1      27.183  -7.083  30.494  1.00  0.00     0.002 A 
HETATM   17  C19 UNK     1      28.106  -6.053  30.573  1.00  0.00     0.002 A 
HETATM   18  H9  UNK     1      28.352 -10.638  31.451  1.00  0.00     0.166 HD
HETATM   19  H10 UNK     1      31.665  -6.932  31.898  1.00  0.00     0.160 HD
ENDROOT
BRANCH   9  20
HETATM   20  C9  UNK     1      30.696  -8.398  34.354  1.00  0.00     0.042 A 
HETATM   21  C13 UNK     1      30.842  -7.069  34.999  1.00  0.00     0.195 A 
HETATM   22  O5  UNK     1      31.543  -6.187  34.523  1.00  0.00    -0.287 OA
HETATM   23  C17 UNK     1      30.090  -6.866  36.253  1.00  0.00     0.050 A 
HETATM   24  C20 UNK     1      29.305  -7.907  36.749  1.00  0.00     0.089 A 
HETATM   25  C21 UNK     1      30.161  -5.649  36.936  1.00  0.00     0.042 A 
HETATM   26  O4  UNK     1      29.199  -9.121  36.119  1.00  0.00    -0.321 OA
HETATM   27  C23 UNK     1      28.586  -7.736  37.933  1.00  0.00     0.040 A 
HETATM   28  C14 UNK     1      29.904  -9.295  34.954  1.00  0.00     0.156 A 
HETATM   29  C25 UNK     1      28.655  -6.523  38.617  1.00  0.00     0.026 A 
HETATM   30  C24 UNK     1      29.440  -5.483  38.120  1.00  0.00     0.035 A 
HETATM   31 Cl1  UNK     1      29.521  -3.988  38.970  1.00  0.00    -0.084 Cl
ENDBRANCH   9  20
BRANCH   5  32
HETATM   32  C10 UNK     1      32.186 -13.298  33.844  1.00  0.00     0.270 C 
HETATM   33  O3  UNK     1      31.673 -12.874  34.871  1.00  0.00    -0.264 OA
BRANCH  32  34
HETATM   34  O2  UNK     1      32.523 -14.593  33.583  1.00  0.00    -0.326 OA
HETATM   35  C22 UNK     1      33.909 -14.911  33.738  1.00  0.00     0.213 C 
ENDBRANCH  32  34
ENDBRANCH   5  32
TORSDOF 3
ENDMDL
MODEL 5
REMARK VINA RESULT:      -8.7      3.324      6.400
REMARK  3 active torsions:
REMARK  status: ('A' for Active; 'I' for Inactive)
REMARK    1  A    between atoms: C10_18  and  O2_3 
REMARK    2  A    between atoms: C10_18  and  C2_10 
REMARK    3  A    between atoms: C6_14  and  C9_17 
ROOT
HETATM    1  O1  UNK     1      28.730  -6.516  35.485  1.00  0.00    -0.292 OA
HETATM    2  N1  UNK     1      33.448  -6.662  36.441  1.00  0.00    -0.357 N 
HETATM    3  N2  UNK     1      32.319  -6.600  33.654  1.00  0.00    -0.375 N 
HETATM    4  C1  UNK     1      30.627  -4.919  38.156  1.00  0.00     0.008 C 
HETATM    5  C2  UNK     1      29.414  -5.656  37.593  1.00  0.00     0.164 C 
HETATM    6  C3  UNK     1      31.871  -5.800  38.045  1.00  0.00     0.063 C 
HETATM    7  C4  UNK     1      31.094  -6.568  35.797  1.00  0.00     0.038 C 
HETATM    8  C5  UNK     1      32.115  -6.369  36.658  1.00  0.00     0.022 C 
HETATM    9  C6  UNK     1      31.240  -7.186  34.429  1.00  0.00     0.160 C 
HETATM   10  C7  UNK     1      29.682  -6.248  36.222  1.00  0.00     0.173 C 
HETATM   11  C8  UNK     1      30.829  -3.563  37.465  1.00  0.00     0.011 C 
HETATM   12  C11 UNK     1      34.196  -6.777  35.253  1.00  0.00     0.059 A 
HETATM   13  C12 UNK     1      33.669  -6.678  33.954  1.00  0.00     0.055 A 
HETATM   14  C15 UNK     1      35.592  -6.948  35.405  1.00  0.00     0.032 A 
HETATM   15  C16 UNK     1      34.566  -6.704  32.861  1.00  0.00     0.031 A 
HETATM   16  C18 UNK     1      36.456  -6.990  34.313  1.00  0.00     0.002 A 
HETATM   17  C19 UNK     1      35.941  -6.858  33.034  1.00  0.00     0.002 A 
HETATM   18  H9  UNK     1      34.009  -6.688  37.288  1.00  0.00     0.166 HD
HETATM   19  H10 UNK     1      32.090  -6.361  32.693  1.00  0.00     0.160 HD
ENDROOT
BRANCH   9  20
HETATM   20  C9  UNK     1      31.348  -8.680  34.479  1.00  0.00     0.042 A 
HETATM   21  C13 UNK     1      31.108  -9.449  33.232  1.00  0.00     0.195 A 
HETATM   22  O5  UNK     1      30.827  -8.902  32.174  1.00  0.00    -0.287 OA
HETATM   23  C17 UNK     1      31.228 -10.916  33.335  1.00  0.00     0.050 A 
HETATM   24  C20 UNK     1      31.551 -11.484  34.567  1.00  0.00     0.089 A 
HETATM   25  C21 UNK     1      31.020 -11.728  32.217  1.00  0.00     0.042 A 
HETATM   26  O4  UNK     1      31.766 -10.735  35.696  1.00  0.00    -0.321 OA
HETATM   27  C23 UNK     1      31.670 -12.869  34.688  1.00  0.00     0.040 A 
HETATM   28  C14 UNK     1      31.651  -9.371  35.585  1.00  0.00     0.156 A 
HETATM   29  C25 UNK     1      31.464 -13.682  33.574  1.00  0.00     0.026 A 
HETATM   30  C24 UNK     1      31.140 -13.113  32.342  1.00  0.00     0.035 A 
HETATM   31 Cl1  UNK     1      30.886 -14.123  30.971  1.00  0.00    -0.084 Cl
ENDBRANCH   9  20
BRANCH   5  32
HETATM   32  C10 UNK     1      28.922  -6.695  38.561  1.00  0.00     0.270 C 
HETATM   33  O3  UNK     1      29.319  -7.852  38.584  1.00  0.00    -0.264 OA
BRANCH  32  34
HETATM   34  O2  UNK     1      27.984  -6.144  39.384  1.00  0.00    -0.326 OA
HETATM   35  C22 UNK     1      26.863  -5.548  38.726  1.00  0.00     0.213 C 
ENDBRANCH  32  34
ENDBRANCH   5  32
TORSDOF 3
ENDMDL
MODEL 6
REMARK VINA RESULT:      -8.3      4.274      6.534
REMARK  3 active torsions:
REMARK  status: ('A' for Active; 'I' for Inactive)
REMARK    1  A    between atoms: C10_18  and  O2_3 
REMARK    2  A    between atoms: C10_18  and  C2_10 
REMARK    3  A    between atoms: C6_14  and  C9_17 
ROOT
HETATM    1  O1  UNK     1      34.122 -11.464  30.523  1.00  0.00    -0.292 OA
HETATM    2  N1  UNK     1      34.309  -8.796  34.527  1.00  0.00    -0.357 N 
HETATM    3  N2  UNK     1      32.089 -10.733  33.924  1.00  0.00    -0.375 N 
HETATM    4  C1  UNK     1      36.988 -10.483  32.548  1.00  0.00     0.008 C 
HETATM    5  C2  UNK     1      36.278 -10.750  31.223  1.00  0.00     0.164 C 
HETATM    6  C3  UNK     1      36.302  -9.332  33.285  1.00  0.00     0.063 C 
HETATM    7  C4  UNK     1      34.083 -10.226  32.561  1.00  0.00     0.038 C 
HETATM    8  C5  UNK     1      34.800  -9.494  33.440  1.00  0.00     0.022 C 
HETATM    9  C6  UNK     1      32.585 -10.385  32.604  1.00  0.00     0.160 C 
HETATM   10  C7  UNK     1      34.775 -10.876  31.387  1.00  0.00     0.173 C 
HETATM   11  C8  UNK     1      37.056 -11.750  33.413  1.00  0.00     0.011 C 
HETATM   12  C11 UNK     1      33.146  -8.973  35.302  1.00  0.00     0.059 A 
HETATM   13  C12 UNK     1      32.147  -9.929  35.051  1.00  0.00     0.055 A 
HETATM   14  C15 UNK     1      33.025  -8.154  36.449  1.00  0.00     0.032 A 
HETATM   15  C16 UNK     1      31.092 -10.060  35.984  1.00  0.00     0.031 A 
HETATM   16  C18 UNK     1      31.967  -8.288  37.345  1.00  0.00     0.002 A 
HETATM   17  C19 UNK     1      31.001  -9.252  37.116  1.00  0.00     0.002 A 
HETATM   18  H9  UNK     1      34.954  -8.105  34.902  1.00  0.00     0.166 HD
HETATM   19  H10 UNK     1      31.414 -11.492  33.954  1.00  0.00     0.160 HD
ENDROOT
BRANCH   9  20
HETATM   20  C9  UNK     1      31.861  -9.199  32.041  1.00  0.00     0.042 A 
HETATM   21  C13 UNK     1      30.383  -9.261  31.927  1.00  0.00     0.195 A 
HETATM   22  O5  UNK     1      29.743 -10.243  32.276  1.00  0.00    -0.287 OA
HETATM   23  C17 UNK     1      29.720  -8.067  31.367  1.00  0.00     0.050 A 
HETATM   24  C20 UNK     1      30.500  -6.975  30.987  1.00  0.00     0.089 A 
HETATM   25  C21 UNK     1      28.331  -8.026  31.219  1.00  0.00     0.042 A 
HETATM   26  O4  UNK     1      31.866  -6.960  31.110  1.00  0.00    -0.321 OA
HETATM   27  C23 UNK     1      29.895  -5.835  30.455  1.00  0.00     0.040 A 
HETATM   28  C14 UNK     1      32.469  -8.078  31.632  1.00  0.00     0.156 A 
HETATM   29  C25 UNK     1      28.509  -5.792  30.307  1.00  0.00     0.026 A 
HETATM   30  C24 UNK     1      27.730  -6.885  30.687  1.00  0.00     0.035 A 
HETATM   31 Cl1  UNK     1      26.019  -6.825  30.501  1.00  0.00    -0.084 Cl
ENDBRANCH   9  20
BRANCH   5  32
HETATM   32  C10 UNK     1      36.641  -9.709  30.202  1.00  0.00     0.270 C 
HETATM   33  O3  UNK     1      35.963  -8.719  29.962  1.00  0.00    -0.264 OA
BRANCH  32  34
HETATM   34  O2  UNK     1      37.820 -10.047  29.606  1.00  0.00    -0.326 OA
HETATM   35  C22 UNK     1      37.966 -11.430  29.272  1.00  0.00     0.213 C 
ENDBRANCH  32  34
ENDBRANCH   5  32
TORSDOF 3
ENDMDL
MODEL 7
REMARK VINA RESULT:      -8.3      3.257      6.460
REMARK  3 active torsions:
REMARK  status: ('A' for Active; 'I' for Inactive)
REMARK    1  A    between atoms: C10_18  and  O2_3 
REMARK    2  A    between atoms: C10_18  and  C2_10 
REMARK    3  A    between atoms: C6_14  and  C9_17 
ROOT
HETATM    1  O1  UNK     1      33.022  -9.114  34.734  1.00  0.00    -0.292 OA
HETATM    2  N1  UNK     1      30.463  -5.787  37.094  1.00  0.00    -0.357 N 
HETATM    3  N2  UNK     1      29.673  -8.684  36.934  1.00  0.00    -0.375 N 
HETATM    4  C1  UNK     1      34.146  -6.255  36.696  1.00  0.00     0.008 C 
HETATM    5  C2  UNK     1      34.214  -7.205  35.503  1.00  0.00     0.164 C 
HETATM    6  C3  UNK     1      32.819  -5.495  36.683  1.00  0.00     0.063 C 
HETATM    7  C4  UNK     1      31.659  -7.588  35.959  1.00  0.00     0.038 C 
HETATM    8  C5  UNK     1      31.590  -6.381  36.561  1.00  0.00     0.022 C 
HETATM    9  C6  UNK     1      30.478  -8.500  35.739  1.00  0.00     0.160 C 
HETATM   10  C7  UNK     1      32.967  -8.061  35.373  1.00  0.00     0.173 C 
HETATM   11  C8  UNK     1      34.359  -7.001  38.021  1.00  0.00     0.011 C 
HETATM   12  C11 UNK     1      29.266  -6.337  37.593  1.00  0.00     0.059 A 
HETATM   13  C12 UNK     1      28.936  -7.702  37.576  1.00  0.00     0.055 A 
HETATM   14  C15 UNK     1      28.368  -5.432  38.207  1.00  0.00     0.032 A 
HETATM   15  C16 UNK     1      27.744  -8.114  38.216  1.00  0.00     0.031 A 
HETATM   16  C18 UNK     1      27.190  -5.858  38.816  1.00  0.00     0.002 A 
HETATM   17  C19 UNK     1      26.881  -7.208  38.828  1.00  0.00     0.002 A 
HETATM   18  H9  UNK     1      30.560  -4.788  37.259  1.00  0.00     0.166 HD
HETATM   19  H10 UNK     1      29.415  -9.644  37.146  1.00  0.00     0.160 HD
ENDROOT
BRANCH   9  20
HETATM   20  C9  UNK     1      29.637  -8.084  34.570  1.00  0.00     0.042 A 
HETATM   21  C13 UNK     1      29.606  -8.961  33.373  1.00  0.00     0.195 A 
HETATM   22  O5  UNK     1      30.242 -10.005  33.313  1.00  0.00    -0.287 OA
HETATM   23  C17 UNK     1      28.763  -8.505  32.251  1.00  0.00     0.050 A 
HETATM   24  C20 UNK     1      28.060  -7.307  32.374  1.00  0.00     0.089 A 
HETATM   25  C21 UNK     1      28.667  -9.261  31.079  1.00  0.00     0.042 A 
HETATM   26  O4  UNK     1      28.117  -6.527  33.501  1.00  0.00    -0.321 OA
HETATM   27  C23 UNK     1      27.256  -6.858  31.326  1.00  0.00     0.040 A 
HETATM   28  C14 UNK     1      28.906  -6.962  34.536  1.00  0.00     0.156 A 
HETATM   29  C25 UNK     1      27.158  -7.610  30.156  1.00  0.00     0.026 A 
HETATM   30  C24 UNK     1      27.862  -8.808  30.033  1.00  0.00     0.035 A 
HETATM   31 Cl1  UNK     1      27.738  -9.732  28.585  1.00  0.00    -0.084 Cl
ENDBRANCH   9  20
BRANCH   5  32
HETATM   32  C10 UNK     1      34.508  -6.454  34.236  1.00  0.00     0.270 C 
HETATM   33  O3  UNK     1      33.667  -6.182  33.390  1.00  0.00    -0.264 OA
BRANCH  32  34
HETATM   34  O2  UNK     1      35.834  -6.138  34.191  1.00  0.00    -0.326 OA
HETATM   35  C22 UNK     1      36.733  -7.243  34.315  1.00  0.00     0.213 C 
ENDBRANCH  32  34
ENDBRANCH   5  32
TORSDOF 3
ENDMDL
MODEL 8
REMARK VINA RESULT:      -8.3      3.484      5.685
REMARK  3 active torsions:
REMARK  status: ('A' for Active; 'I' for Inactive)
REMARK    1  A    between atoms: C10_18  and  O2_3 
REMARK    2  A    between atoms: C10_18  and  C2_10 
REMARK    3  A    between atoms: C6_14  and  C9_17 
ROOT
HETATM    1  O1  UNK     1      33.665  -9.064  33.583  1.00  0.00    -0.292 OA
HETATM    2  N1  UNK     1      32.271  -4.963  35.688  1.00  0.00    -0.357 N 
HETATM    3  N2  UNK     1      31.231  -7.673  36.477  1.00  0.00    -0.375 N 
HETATM    4  C1  UNK     1      35.587  -6.070  34.375  1.00  0.00     0.008 C 
HETATM    5  C2  UNK     1      35.194  -7.246  33.484  1.00  0.00     0.164 C 
HETATM    6  C3  UNK     1      34.392  -5.133  34.558  1.00  0.00     0.063 C 
HETATM    7  C4  UNK     1      32.891  -7.124  34.735  1.00  0.00     0.038 C 
HETATM    8  C5  UNK     1      33.118  -5.823  35.016  1.00  0.00     0.022 C 
HETATM    9  C6  UNK     1      31.630  -7.867  35.094  1.00  0.00     0.160 C 
HETATM   10  C7  UNK     1      33.903  -7.905  33.932  1.00  0.00     0.173 C 
HETATM   11  C8  UNK     1      36.144  -6.548  35.723  1.00  0.00     0.011 C 
HETATM   12  C11 UNK     1      31.251  -5.205  36.629  1.00  0.00     0.059 A 
HETATM   13  C12 UNK     1      30.819  -6.476  37.043  1.00  0.00     0.055 A 
HETATM   14  C15 UNK     1      30.672  -4.065  37.234  1.00  0.00     0.032 A 
HETATM   15  C16 UNK     1      29.861  -6.556  38.079  1.00  0.00     0.031 A 
HETATM   16  C18 UNK     1      29.715  -4.166  38.241  1.00  0.00     0.002 A 
HETATM   17  C19 UNK     1      29.314  -5.419  38.672  1.00  0.00     0.002 A 
HETATM   18  H9  UNK     1      32.498  -3.980  35.568  1.00  0.00     0.166 HD
HETATM   19  H10 UNK     1      30.973  -8.515  36.983  1.00  0.00     0.160 HD
ENDROOT
BRANCH   9  20
HETATM   20  C9  UNK     1      30.500  -7.578  34.152  1.00  0.00     0.042 A 
HETATM   21  C13 UNK     1      30.277  -8.500  33.011  1.00  0.00     0.195 A 
HETATM   22  O5  UNK     1      30.982  -9.482  32.819  1.00  0.00    -0.287 OA
HETATM   23  C17 UNK     1      29.153  -8.170  32.114  1.00  0.00     0.050 A 
HETATM   24  C20 UNK     1      28.382  -7.038  32.382  1.00  0.00     0.089 A 
HETATM   25  C21 UNK     1      28.860  -8.977  31.011  1.00  0.00     0.042 A 
HETATM   26  O4  UNK     1      28.624  -6.212  33.449  1.00  0.00    -0.321 OA
HETATM   27  C23 UNK     1      27.314  -6.707  31.547  1.00  0.00     0.040 A 
HETATM   28  C14 UNK     1      29.673  -6.532  34.275  1.00  0.00     0.156 A 
HETATM   29  C25 UNK     1      27.020  -7.511  30.446  1.00  0.00     0.026 A 
HETATM   30  C24 UNK     1      27.791  -8.642  30.179  1.00  0.00     0.035 A 
HETATM   31 Cl1  UNK     1      27.423  -9.630  28.817  1.00  0.00    -0.084 Cl
ENDBRANCH   9  20
BRANCH   5  32
HETATM   32  C10 UNK     1      35.135  -6.829  32.042  1.00  0.00     0.270 C 
HETATM   33  O3  UNK     1      35.980  -6.134  31.494  1.00  0.00    -0.264 OA
BRANCH  32  34
HETATM   34  O2  UNK     1      34.010  -7.342  31.465  1.00  0.00    -0.326 OA
HETATM   35  C22 UNK     1      34.211  -8.013  30.218  1.00  0.00     0.213 C 
ENDBRANCH  32  34
ENDBRANCH   5  32
TORSDOF 3
ENDMDL
MODEL 9
REMARK VINA RESULT:      -8.2      3.401      6.881
REMARK  3 active torsions:
REMARK  status: ('A' for Active; 'I' for Inactive)
REMARK    1  A    between atoms: C10_18  and  O2_3 
REMARK    2  A    between atoms: C10_18  and  C2_10 
REMARK    3  A    between atoms: C6_14  and  C9_17 
ROOT
HETATM    1  O1  UNK     1      30.991  -8.155  37.434  1.00  0.00    -0.292 OA
HETATM    2  N1  UNK     1      30.806  -5.486  33.431  1.00  0.00    -0.357 N 
HETATM    3  N2  UNK     1      28.745  -7.558  34.143  1.00  0.00    -0.375 N 
HETATM    4  C1  UNK     1      31.904  -4.667  36.904  1.00  0.00     0.008 C 
HETATM    5  C2  UNK     1      32.105  -6.057  37.505  1.00  0.00     0.164 C 
HETATM    6  C3  UNK     1      32.008  -4.738  35.380  1.00  0.00     0.063 C 
HETATM    7  C4  UNK     1      30.750  -6.898  35.422  1.00  0.00     0.038 C 
HETATM    8  C5  UNK     1      31.122  -5.794  34.740  1.00  0.00     0.022 C 
HETATM    9  C6  UNK     1      29.929  -8.023  34.843  1.00  0.00     0.160 C 
HETATM   10  C7  UNK     1      31.240  -7.107  36.834  1.00  0.00     0.173 C 
HETATM   11  C8  UNK     1      30.573  -4.048  37.354  1.00  0.00     0.011 C 
HETATM   12  C11 UNK     1      29.731  -5.885  32.612  1.00  0.00     0.059 A 
HETATM   13  C12 UNK     1      28.733  -6.803  32.981  1.00  0.00     0.055 A 
HETATM   14  C15 UNK     1      29.636  -5.255  31.349  1.00  0.00     0.032 A 
HETATM   15  C16 UNK     1      27.655  -7.018  32.091  1.00  0.00     0.031 A 
HETATM   16  C18 UNK     1      28.575  -5.496  30.480  1.00  0.00     0.002 A 
HETATM   17  C19 UNK     1      27.574  -6.375  30.857  1.00  0.00     0.002 A 
HETATM   18  H9  UNK     1      31.387  -4.759  33.024  1.00  0.00     0.166 HD
HETATM   19  H10 UNK     1      27.883  -8.050  34.363  1.00  0.00     0.160 HD
ENDROOT
BRANCH   9  20
HETATM   20  C9  UNK     1      30.741  -8.952  33.992  1.00  0.00     0.042 A 
HETATM   21  C13 UNK     1      30.061 -10.115  33.368  1.00  0.00     0.195 A 
HETATM   22  O5  UNK     1      28.868 -10.334  33.526  1.00  0.00    -0.287 OA
HETATM   23  C17 UNK     1      30.906 -10.997  32.540  1.00  0.00     0.050 A 
HETATM   24  C20 UNK     1      32.260 -10.698  32.394  1.00  0.00     0.089 A 
HETATM   25  C21 UNK     1      30.360 -12.118  31.909  1.00  0.00     0.042 A 
HETATM   26  O4  UNK     1      32.848  -9.611  32.989  1.00  0.00    -0.321 OA
HETATM   27  C23 UNK     1      33.077 -11.519  31.615  1.00  0.00     0.040 A 
HETATM   28  C14 UNK     1      32.050  -8.799  33.757  1.00  0.00     0.156 A 
HETATM   29  C25 UNK     1      32.535 -12.638  30.984  1.00  0.00     0.026 A 
HETATM   30  C24 UNK     1      31.180 -12.937  31.131  1.00  0.00     0.035 A 
HETATM   31 Cl1  UNK     1      30.517 -14.321  30.350  1.00  0.00    -0.084 Cl
ENDBRANCH   9  20
BRANCH   5  32
HETATM   32  C10 UNK     1      33.557  -6.441  37.492  1.00  0.00     0.270 C 
HETATM   33  O3  UNK     1      34.408  -5.929  38.207  1.00  0.00    -0.264 OA
BRANCH  32  34
HETATM   34  O2  UNK     1      33.759  -7.429  36.573  1.00  0.00    -0.326 OA
HETATM   35  C22 UNK     1      34.801  -7.183  35.625  1.00  0.00     0.213 C 
ENDBRANCH  32  34
ENDBRANCH   5  32
TORSDOF 3
ENDMDL
MODEL 10
REMARK VINA RESULT:      -8.2      3.375      6.964
REMARK  3 active torsions:
REMARK  status: ('A' for Active; 'I' for Inactive)
REMARK    1  A    between atoms: C10_18  and  O2_3 
REMARK    2  A    between atoms: C10_18  and  C2_10 
REMARK    3  A    between atoms: C6_14  and  C9_17 
ROOT
HETATM    1  O1  UNK     1      29.573  -5.965  35.662  1.00  0.00    -0.292 OA
HETATM    2  N1  UNK     1      33.961  -7.942  35.807  1.00  0.00    -0.357 N 
HETATM    3  N2  UNK     1      33.067  -6.040  33.656  1.00  0.00    -0.375 N 
HETATM    4  C1  UNK     1      31.707  -6.717  38.519  1.00  0.00     0.008 C 
HETATM    5  C2  UNK     1      30.362  -6.643  37.800  1.00  0.00     0.164 C 
HETATM    6  C3  UNK     1      32.630  -7.701  37.800  1.00  0.00     0.063 C 
HETATM    7  C4  UNK     1      31.788  -6.847  35.607  1.00  0.00     0.038 C 
HETATM    8  C5  UNK     1      32.770  -7.454  36.308  1.00  0.00     0.022 C 
HETATM    9  C6  UNK     1      31.818  -6.621  34.117  1.00  0.00     0.160 C 
HETATM   10  C7  UNK     1      30.517  -6.429  36.305  1.00  0.00     0.173 C 
HETATM   11  C8  UNK     1      32.350  -5.329  38.651  1.00  0.00     0.011 C 
HETATM   12  C11 UNK     1      34.706  -7.591  34.664  1.00  0.00     0.059 A 
HETATM   13  C12 UNK     1      34.310  -6.649  33.700  1.00  0.00     0.055 A 
HETATM   14  C15 UNK     1      35.974  -8.204  34.529  1.00  0.00     0.032 A 
HETATM   15  C16 UNK     1      35.219  -6.323  32.666  1.00  0.00     0.031 A 
HETATM   16  C18 UNK     1      36.846  -7.881  33.492  1.00  0.00     0.002 A 
HETATM   17  C19 UNK     1      36.470  -6.928  32.561  1.00  0.00     0.002 A 
HETATM   18  H9  UNK     1      34.439  -8.588  36.430  1.00  0.00     0.166 HD
HETATM   19  H10 UNK     1      32.977  -5.258  33.012  1.00  0.00     0.160 HD
ENDROOT
BRANCH   9  20
HETATM   20  C9  UNK     1      31.465  -7.852  33.338  1.00  0.00     0.042 A 
HETATM   21  C13 UNK     1      31.224  -7.722  31.879  1.00  0.00     0.195 A 
HETATM   22  O5  UNK     1      31.304  -6.648  31.299  1.00  0.00    -0.287 OA
HETATM   23  C17 UNK     1      30.881  -8.965  31.161  1.00  0.00     0.050 A 
HETATM   24  C20 UNK     1      30.805 -10.161  31.874  1.00  0.00     0.089 A 
HETATM   25  C21 UNK     1      30.636  -8.947  29.785  1.00  0.00     0.042 A 
HETATM   26  O4  UNK     1      31.036 -10.236  33.223  1.00  0.00    -0.321 OA
HETATM   27  C23 UNK     1      30.483 -11.348  31.214  1.00  0.00     0.040 A 
HETATM   28  C14 UNK     1      31.354  -9.072  33.879  1.00  0.00     0.156 A 
HETATM   29  C25 UNK     1      30.238 -11.333  29.842  1.00  0.00     0.026 A 
HETATM   30  C24 UNK     1      30.314 -10.137  29.129  1.00  0.00     0.035 A 
HETATM   31 Cl1  UNK     1      30.009 -10.126  27.434  1.00  0.00    -0.084 Cl
ENDBRANCH   9  20
BRANCH   5  32
HETATM   32  C10 UNK     1      29.524  -7.852  38.104  1.00  0.00     0.270 C 
HETATM   33  O3  UNK     1      29.599  -8.909  37.494  1.00  0.00    -0.264 OA
BRANCH  32  34
HETATM   34  O2  UNK     1      28.689  -7.576  39.147  1.00  0.00    -0.326 OA
HETATM   35  C22 UNK     1      28.105  -6.271  39.139  1.00  0.00     0.213 C 
ENDBRANCH  32  34
ENDBRANCH   5  32
TORSDOF 3
ENDMDL
