MODEL 1
REMARK VINA RESULT:      -9.3      0.000      0.000
REMARK  4 active torsions:
REMARK  status: ('A' for Active; 'I' for Inactive)
REMARK    1  A    between atoms: C5_10  and  N1_3 
REMARK    2  A    between atoms: C6_11  and  N2_4 
REMARK    3  A    between atoms: C5_10  and  C7_12 
REMARK    4  A    between atoms: C6_11  and  C8_13 
ROOT
HETATM    1  N3  UNK     1      31.956  -6.264  29.222  1.00  0.00    -0.191 NA
HETATM    2  C8  UNK     1      28.779  -7.140  30.460  1.00  0.00    -0.009 A 
HETATM    3  C12 UNK     1      29.732  -7.558  29.530  1.00  0.00     0.052 A 
HETATM    4  C13 UNK     1      27.589  -7.852  30.607  1.00  0.00     0.010 A 
HETATM    5  C19 UNK     1      29.494  -8.688  28.748  1.00  0.00     0.023 A 
HETATM    6  C20 UNK     1      27.352  -8.982  29.825  1.00  0.00     0.001 A 
HETATM    7  C21 UNK     1      28.303  -9.400  28.896  1.00  0.00     0.002 A 
HETATM    8  C23 UNK     1      30.961  -6.844  29.360  1.00  0.00     0.100 C 
ENDROOT
BRANCH   2   9
HETATM    9  C6  UNK     1      29.000  -5.931  31.318  1.00  0.00     0.312 C 
BRANCH   9  10
HETATM   10  N2  UNK     1      29.705  -6.321  32.538  1.00  0.00     0.096 N 
HETATM   11  C3  UNK     1      30.733  -5.333  32.885  1.00  0.00     0.303 C 
HETATM   12  C1  UNK     1      31.470  -5.737  34.167  1.00  0.00     0.303 C 
HETATM   13  N1  UNK     1      30.526  -5.909  35.279  1.00  0.00     0.096 N 
HETATM   14  C2  UNK     1      29.499  -6.898  34.932  1.00  0.00     0.303 C 
HETATM   15  C4  UNK     1      28.763  -6.493  33.650  1.00  0.00     0.303 C 
BRANCH  13  16
HETATM   16  C5  UNK     1      31.230  -6.297  36.500  1.00  0.00     0.312 C 
BRANCH  16  17
HETATM   17  C7  UNK     1      30.300  -6.012  37.625  1.00  0.00    -0.011 A 
HETATM   18  C10 UNK     1      30.194  -4.780  38.142  1.00  0.00     0.092 A 
HETATM   19  C15 UNK     1      29.288  -4.451  39.256  1.00  0.00     0.288 A 
HETATM   20  O1  UNK     1      28.527  -5.490  39.767  1.00  0.00    -0.275 OA
HETATM   21  O2  UNK     1      29.218  -3.312  39.702  1.00  0.00    -0.260 OA
HETATM   22  C11 UNK     1      28.617  -6.796  39.245  1.00  0.00     0.090 A 
HETATM   23  C9  UNK     1      29.480  -7.093  38.189  1.00  0.00     0.006 A 
HETATM   24  C16 UNK     1      27.803  -7.763  39.838  1.00  0.00     0.045 A 
HETATM   25  C14 UNK     1      29.511  -8.416  37.728  1.00  0.00     0.015 A 
HETATM   26  C18 UNK     1      28.701  -9.396  38.312  1.00  0.00     0.007 A 
HETATM   27  C17 UNK     1      27.849  -9.070  39.365  1.00  0.00    -0.059 A 
HETATM   28  C22 UNK     1      26.989 -10.120  39.984  1.00  0.00     0.048 C 
ENDBRANCH  16  17
ENDBRANCH  13  16
ENDBRANCH   9  10
ENDBRANCH   2   9
TORSDOF 4
ENDMDL
MODEL 2
REMARK VINA RESULT:      -9.0      9.201     11.009
REMARK  4 active torsions:
REMARK  status: ('A' for Active; 'I' for Inactive)
REMARK    1  A    between atoms: C5_10  and  N1_3 
REMARK    2  A    between atoms: C6_11  and  N2_4 
REMARK    3  A    between atoms: C5_10  and  C7_12 
REMARK    4  A    between atoms: C6_11  and  C8_13 
ROOT
HETATM    1  N3  UNK     1      18.797  -0.928  32.540  1.00  0.00    -0.191 NA
HETATM    2  C8  UNK     1      18.731  -1.230  36.047  1.00  0.00    -0.009 A 
HETATM    3  C12 UNK     1      18.044  -0.616  35.000  1.00  0.00     0.052 A 
HETATM    4  C13 UNK     1      18.307  -1.047  37.362  1.00  0.00     0.010 A 
HETATM    5  C19 UNK     1      16.932   0.182  35.269  1.00  0.00     0.023 A 
HETATM    6  C20 UNK     1      17.195  -0.249  37.631  1.00  0.00     0.001 A 
HETATM    7  C21 UNK     1      16.508   0.365  36.586  1.00  0.00     0.002 A 
HETATM    8  C23 UNK     1      18.459  -0.788  33.641  1.00  0.00     0.100 C 
ENDROOT
BRANCH   2   9
HETATM    9  C6  UNK     1      19.930  -2.095  35.795  1.00  0.00     0.312 C 
BRANCH   9  10
HETATM   10  N2  UNK     1      19.704  -3.421  36.366  1.00  0.00     0.096 N 
HETATM   11  C3  UNK     1      19.749  -4.453  35.323  1.00  0.00     0.303 C 
HETATM   12  C1  UNK     1      19.516  -5.845  35.921  1.00  0.00     0.303 C 
HETATM   13  N1  UNK     1      20.501  -6.133  36.972  1.00  0.00     0.096 N 
HETATM   14  C2  UNK     1      20.454  -5.102  38.015  1.00  0.00     0.303 C 
HETATM   15  C4  UNK     1      20.687  -3.710  37.417  1.00  0.00     0.303 C 
BRANCH  13  16
HETATM   16  C5  UNK     1      20.277  -7.460  37.542  1.00  0.00     0.312 C 
BRANCH  16  17
HETATM   17  C7  UNK     1      21.313  -8.349  36.952  1.00  0.00    -0.011 A 
HETATM   18  C10 UNK     1      21.029  -9.154  35.920  1.00  0.00     0.092 A 
HETATM   19  C15 UNK     1      22.021 -10.051  35.303  1.00  0.00     0.288 A 
HETATM   20  O1  UNK     1      23.297 -10.033  35.843  1.00  0.00    -0.275 OA
HETATM   21  O2  UNK     1      21.724 -10.774  34.358  1.00  0.00    -0.260 OA
HETATM   22  C11 UNK     1      23.626  -9.197  36.929  1.00  0.00     0.090 A 
HETATM   23  C9  UNK     1      22.675  -8.353  37.503  1.00  0.00     0.006 A 
HETATM   24  C16 UNK     1      24.942  -9.262  37.391  1.00  0.00     0.045 A 
HETATM   25  C14 UNK     1      23.082  -7.553  38.580  1.00  0.00     0.015 A 
HETATM   26  C18 UNK     1      24.397  -7.608  39.054  1.00  0.00     0.007 A 
HETATM   27  C17 UNK     1      25.326  -8.461  38.461  1.00  0.00    -0.059 A 
HETATM   28  C22 UNK     1      26.726  -8.514  38.971  1.00  0.00     0.048 C 
ENDBRANCH  16  17
ENDBRANCH  13  16
ENDBRANCH   9  10
ENDBRANCH   2   9
TORSDOF 4
ENDMDL
MODEL 3
REMARK VINA RESULT:      -9.0     10.065     12.289
REMARK  4 active torsions:
REMARK  status: ('A' for Active; 'I' for Inactive)
REMARK    1  A    between atoms: C5_10  and  N1_3 
REMARK    2  A    between atoms: C6_11  and  N2_4 
REMARK    3  A    between atoms: C5_10  and  C7_12 
REMARK    4  A    between atoms: C6_11  and  C8_13 
ROOT
HETATM    1  N3  UNK     1      21.780 -10.534  34.567  1.00  0.00    -0.191 NA
HETATM    2  C8  UNK     1      20.399  -8.686  37.226  1.00  0.00    -0.009 A 
HETATM    3  C12 UNK     1      20.570 -10.001  36.796  1.00  0.00     0.052 A 
HETATM    4  C13 UNK     1      19.745  -8.424  38.429  1.00  0.00     0.010 A 
HETATM    5  C19 UNK     1      20.086 -11.056  37.569  1.00  0.00     0.023 A 
HETATM    6  C20 UNK     1      19.260  -9.479  39.203  1.00  0.00     0.001 A 
HETATM    7  C21 UNK     1      19.431 -10.794  38.774  1.00  0.00     0.002 A 
HETATM    8  C23 UNK     1      21.238 -10.296  35.565  1.00  0.00     0.100 C 
ENDROOT
BRANCH   2   9
HETATM    9  C6  UNK     1      20.907  -7.527  36.422  1.00  0.00     0.312 C 
BRANCH   9  10
HETATM   10  N2  UNK     1      20.312  -6.288  36.921  1.00  0.00     0.096 N 
HETATM   11  C3  UNK     1      21.345  -5.274  37.162  1.00  0.00     0.303 C 
HETATM   12  C1  UNK     1      20.722  -3.973  37.681  1.00  0.00     0.303 C 
HETATM   13  N1  UNK     1      19.714  -3.465  36.742  1.00  0.00     0.096 N 
HETATM   14  C2  UNK     1      18.681  -4.480  36.502  1.00  0.00     0.303 C 
HETATM   15  C4  UNK     1      19.304  -5.780  35.983  1.00  0.00     0.303 C 
BRANCH  13  16
HETATM   16  C5  UNK     1      19.120  -2.226  37.238  1.00  0.00     0.312 C 
BRANCH  16  17
HETATM   17  C7  UNK     1      18.416  -1.608  36.084  1.00  0.00    -0.011 A 
HETATM   18  C10 UNK     1      17.246  -0.974  36.243  1.00  0.00     0.092 A 
HETATM   19  C15 UNK     1      16.513  -0.348  35.130  1.00  0.00     0.288 A 
HETATM   20  O1  UNK     1      17.092  -0.439  33.873  1.00  0.00    -0.275 OA
HETATM   21  O2  UNK     1      15.445   0.224  35.314  1.00  0.00    -0.260 OA
HETATM   22  C11 UNK     1      18.321  -1.099  33.674  1.00  0.00     0.090 A 
HETATM   23  C9  UNK     1      19.004  -1.689  34.739  1.00  0.00     0.006 A 
HETATM   24  C16 UNK     1      18.809  -1.130  32.367  1.00  0.00     0.045 A 
HETATM   25  C14 UNK     1      20.220  -2.327  34.458  1.00  0.00     0.015 A 
HETATM   26  C18 UNK     1      20.722  -2.365  33.152  1.00  0.00     0.007 A 
HETATM   27  C17 UNK     1      20.018  -1.768  32.109  1.00  0.00    -0.059 A 
HETATM   28  C22 UNK     1      20.558  -1.813  30.720  1.00  0.00     0.048 C 
ENDBRANCH  16  17
ENDBRANCH  13  16
ENDBRANCH   9  10
ENDBRANCH   2   9
TORSDOF 4
ENDMDL
MODEL 4
REMARK VINA RESULT:      -8.7      4.972      7.831
REMARK  4 active torsions:
REMARK  status: ('A' for Active; 'I' for Inactive)
REMARK    1  A    between atoms: C5_10  and  N1_3 
REMARK    2  A    between atoms: C6_11  and  N2_4 
REMARK    3  A    between atoms: C5_10  and  C7_12 
REMARK    4  A    between atoms: C6_11  and  C8_13 
ROOT
HETATM    1  N3  UNK     1      21.128  -5.884  36.824  1.00  0.00    -0.191 NA
HETATM    2  C8  UNK     1      21.374  -9.393  36.973  1.00  0.00    -0.009 A 
HETATM    3  C12 UNK     1      20.518  -8.351  37.330  1.00  0.00     0.052 A 
HETATM    4  C13 UNK     1      21.025 -10.712  37.257  1.00  0.00     0.010 A 
HETATM    5  C19 UNK     1      19.311  -8.630  37.972  1.00  0.00     0.023 A 
HETATM    6  C20 UNK     1      19.818 -10.991  37.898  1.00  0.00     0.001 A 
HETATM    7  C21 UNK     1      18.961  -9.951  38.255  1.00  0.00     0.002 A 
HETATM    8  C23 UNK     1      20.855  -6.988  37.050  1.00  0.00     0.100 C 
ENDROOT
BRANCH   2   9
HETATM    9  C6  UNK     1      22.679  -9.131  36.282  1.00  0.00     0.312 C 
BRANCH   9  10
HETATM   10  N2  UNK     1      23.775  -9.270  37.240  1.00  0.00     0.096 N 
HETATM   11  C3  UNK     1      25.029  -9.598  36.554  1.00  0.00     0.303 C 
HETATM   12  C1  UNK     1      26.181  -9.739  37.556  1.00  0.00     0.303 C 
HETATM   13  N1  UNK     1      26.335  -8.513  38.350  1.00  0.00     0.096 N 
HETATM   14  C2  UNK     1      25.080  -8.186  39.037  1.00  0.00     0.303 C 
HETATM   15  C4  UNK     1      23.930  -8.045  38.034  1.00  0.00     0.303 C 
BRANCH  13  16
HETATM   16  C5  UNK     1      27.432  -8.650  39.307  1.00  0.00     0.312 C 
BRANCH  16  17
HETATM   17  C7  UNK     1      28.419  -7.593  38.963  1.00  0.00    -0.011 A 
HETATM   18  C10 UNK     1      28.271  -6.336  39.404  1.00  0.00     0.092 A 
HETATM   19  C15 UNK     1      29.223  -5.256  39.089  1.00  0.00     0.288 A 
HETATM   20  O1  UNK     1      30.309  -5.595  38.297  1.00  0.00    -0.275 OA
HETATM   21  O2  UNK     1      29.054  -4.118  39.511  1.00  0.00    -0.260 OA
HETATM   22  C11 UNK     1      30.492  -6.908  37.819  1.00  0.00     0.090 A 
HETATM   23  C9  UNK     1      29.581  -7.921  38.125  1.00  0.00     0.006 A 
HETATM   24  C16 UNK     1      31.621  -7.134  37.031  1.00  0.00     0.045 A 
HETATM   25  C14 UNK     1      29.834  -9.199  37.610  1.00  0.00     0.015 A 
HETATM   26  C18 UNK     1      30.962  -9.441  36.819  1.00  0.00     0.007 A 
HETATM   27  C17 UNK     1      31.854  -8.410  36.529  1.00  0.00    -0.059 A 
HETATM   28  C22 UNK     1      33.054  -8.675  35.684  1.00  0.00     0.048 C 
ENDBRANCH  16  17
ENDBRANCH  13  16
ENDBRANCH   9  10
ENDBRANCH   2   9
TORSDOF 4
ENDMDL
MODEL 5
REMARK VINA RESULT:      -8.6     31.988     35.070
REMARK  4 active torsions:
REMARK  status: ('A' for Active; 'I' for Inactive)
REMARK    1  A    between atoms: C5_10  and  N1_3 
REMARK    2  A    between atoms: C6_11  and  N2_4 
REMARK    3  A    between atoms: C5_10  and  C7_12 
REMARK    4  A    between atoms: C6_11  and  C8_13 
ROOT
HETATM    1  N3  UNK     1      19.254  12.272   5.139  1.00  0.00    -0.191 NA
HETATM    2  C8  UNK     1      17.444  13.884   7.693  1.00  0.00    -0.009 A 
HETATM    3  C12 UNK     1      17.738  14.002   6.335  1.00  0.00     0.052 A 
HETATM    4  C13 UNK     1      16.627  14.827   8.315  1.00  0.00     0.010 A 
HETATM    5  C19 UNK     1      17.213  15.063   5.597  1.00  0.00     0.023 A 
HETATM    6  C20 UNK     1      16.102  15.889   7.577  1.00  0.00     0.001 A 
HETATM    7  C21 UNK     1      16.395  16.007   6.220  1.00  0.00     0.002 A 
HETATM    8  C23 UNK     1      18.575  13.046   5.674  1.00  0.00     0.100 C 
ENDROOT
BRANCH   2   9
HETATM    9  C6  UNK     1      17.989  12.756   8.517  1.00  0.00     0.312 C 
BRANCH   9  10
HETATM   10  N2  UNK     1      16.884  12.013   9.119  1.00  0.00     0.096 N 
HETATM   11  C3  UNK     1      16.150  11.253   8.100  1.00  0.00     0.303 C 
HETATM   12  C1  UNK     1      14.993  10.469   8.731  1.00  0.00     0.303 C 
HETATM   13  N1  UNK     1      15.484   9.573   9.786  1.00  0.00     0.096 N 
HETATM   14  C2  UNK     1      16.216  10.334  10.805  1.00  0.00     0.303 C 
HETATM   15  C4  UNK     1      17.373  11.117  10.174  1.00  0.00     0.303 C 
BRANCH  13  16
HETATM   16  C5  UNK     1      14.380   8.827  10.387  1.00  0.00     0.312 C 
BRANCH  16  17
HETATM   17  C7  UNK     1      14.350   7.505   9.709  1.00  0.00    -0.011 A 
HETATM   18  C10 UNK     1      15.304   6.590   9.931  1.00  0.00     0.092 A 
HETATM   19  C15 UNK     1      15.316   5.268   9.283  1.00  0.00     0.288 A 
HETATM   20  O1  UNK     1      14.277   4.994   8.406  1.00  0.00    -0.275 OA
HETATM   21  O2  UNK     1      16.205   4.456   9.512  1.00  0.00    -0.260 OA
HETATM   22  C11 UNK     1      13.261   5.936   8.151  1.00  0.00     0.090 A 
HETATM   23  C9  UNK     1      13.262   7.185   8.774  1.00  0.00     0.006 A 
HETATM   24  C16 UNK     1      12.265   5.552   7.252  1.00  0.00     0.045 A 
HETATM   25  C14 UNK     1      12.216   8.066   8.466  1.00  0.00     0.015 A 
HETATM   26  C18 UNK     1      11.211   7.695   7.566  1.00  0.00     0.007 A 
HETATM   27  C17 UNK     1      11.235   6.441   6.960  1.00  0.00    -0.059 A 
HETATM   28  C22 UNK     1      10.162   6.052   6.001  1.00  0.00     0.048 C 
ENDBRANCH  16  17
ENDBRANCH  13  16
ENDBRANCH   9  10
ENDBRANCH   2   9
TORSDOF 4
ENDMDL
MODEL 6
REMARK VINA RESULT:      -8.4      5.920      8.329
REMARK  4 active torsions:
REMARK  status: ('A' for Active; 'I' for Inactive)
REMARK    1  A    between atoms: C5_10  and  N1_3 
REMARK    2  A    between atoms: C6_11  and  N2_4 
REMARK    3  A    between atoms: C5_10  and  C7_12 
REMARK    4  A    between atoms: C6_11  and  C8_13 
ROOT
HETATM    1  N3  UNK     1      19.584 -11.556  38.337  1.00  0.00    -0.191 NA
HETATM    2  C8  UNK     1      20.834  -9.520  35.751  1.00  0.00    -0.009 A 
HETATM    3  C12 UNK     1      19.918  -9.494  36.802  1.00  0.00     0.052 A 
HETATM    4  C13 UNK     1      20.996  -8.399  34.939  1.00  0.00     0.010 A 
HETATM    5  C19 UNK     1      19.164  -8.346  37.042  1.00  0.00     0.023 A 
HETATM    6  C20 UNK     1      20.242  -7.250  35.178  1.00  0.00     0.001 A 
HETATM    7  C21 UNK     1      19.327  -7.223  36.229  1.00  0.00     0.002 A 
HETATM    8  C23 UNK     1      19.734 -10.633  37.651  1.00  0.00     0.100 C 
ENDROOT
BRANCH   2   9
HETATM    9  C6  UNK     1      21.662 -10.737  35.464  1.00  0.00     0.312 C 
BRANCH   9  10
HETATM   10  N2  UNK     1      22.889 -10.690  36.258  1.00  0.00     0.096 N 
HETATM   11  C3  UNK     1      23.942 -11.505  35.639  1.00  0.00     0.303 C 
HETATM   12  C1  UNK     1      25.231 -11.453  36.467  1.00  0.00     0.303 C 
HETATM   13  N1  UNK     1      25.687 -10.068  36.638  1.00  0.00     0.096 N 
HETATM   14  C2  UNK     1      24.634  -9.254  37.258  1.00  0.00     0.303 C 
HETATM   15  C4  UNK     1      23.346  -9.306  36.429  1.00  0.00     0.303 C 
BRANCH  13  16
HETATM   16  C5  UNK     1      26.915 -10.020  37.429  1.00  0.00     0.312 C 
BRANCH  16  17
HETATM   17  C7  UNK     1      27.807  -9.039  36.757  1.00  0.00    -0.011 A 
HETATM   18  C10 UNK     1      28.257  -9.251  35.512  1.00  0.00     0.092 A 
HETATM   19  C15 UNK     1      29.142  -8.309  34.806  1.00  0.00     0.288 A 
HETATM   20  O1  UNK     1      29.505  -7.161  35.494  1.00  0.00    -0.275 OA
HETATM   21  O2  UNK     1      29.534  -8.537  33.667  1.00  0.00    -0.260 OA
HETATM   22  C11 UNK     1      29.047  -6.910  36.803  1.00  0.00     0.090 A 
HETATM   23  C9  UNK     1      28.209  -7.813  37.459  1.00  0.00     0.006 A 
HETATM   24  C16 UNK     1      29.476  -5.722  37.397  1.00  0.00     0.045 A 
HETATM   25  C14 UNK     1      27.799  -7.490  38.760  1.00  0.00     0.015 A 
HETATM   26  C18 UNK     1      28.221  -6.303  39.369  1.00  0.00     0.007 A 
HETATM   27  C17 UNK     1      29.058  -5.421  38.689  1.00  0.00    -0.059 A 
HETATM   28  C22 UNK     1      29.504  -4.158  39.344  1.00  0.00     0.048 C 
ENDBRANCH  16  17
ENDBRANCH  13  16
ENDBRANCH   9  10
ENDBRANCH   2   9
TORSDOF 4
ENDMDL
MODEL 7
REMARK VINA RESULT:      -8.4     18.377     20.232
REMARK  4 active torsions:
REMARK  status: ('A' for Active; 'I' for Inactive)
REMARK    1  A    between atoms: C5_10  and  N1_3 
REMARK    2  A    between atoms: C6_11  and  N2_4 
REMARK    3  A    between atoms: C5_10  and  C7_12 
REMARK    4  A    between atoms: C6_11  and  C8_13 
ROOT
HETATM    1  N3  UNK     1      16.328  12.535  36.247  1.00  0.00    -0.191 NA
HETATM    2  C8  UNK     1      14.155  10.854  34.045  1.00  0.00    -0.009 A 
HETATM    3  C12 UNK     1      14.546  12.143  34.406  1.00  0.00     0.052 A 
HETATM    4  C13 UNK     1      13.194  10.668  33.053  1.00  0.00     0.010 A 
HETATM    5  C19 UNK     1      13.975  13.247  33.774  1.00  0.00     0.023 A 
HETATM    6  C20 UNK     1      12.623  11.772  32.420  1.00  0.00     0.001 A 
HETATM    7  C21 UNK     1      13.013  13.061  32.780  1.00  0.00     0.002 A 
HETATM    8  C23 UNK     1      15.530  12.360  35.423  1.00  0.00     0.100 C 
ENDROOT
BRANCH   2   9
HETATM    9  C6  UNK     1      14.747   9.644  34.703  1.00  0.00     0.312 C 
BRANCH   9  10
HETATM   10  N2  UNK     1      15.664   8.983  33.775  1.00  0.00     0.096 N 
HETATM   11  C3  UNK     1      17.003   8.863  34.362  1.00  0.00     0.303 C 
HETATM   12  C1  UNK     1      17.964   8.166  33.392  1.00  0.00     0.303 C 
HETATM   13  N1  UNK     1      17.451   6.844  33.008  1.00  0.00     0.096 N 
HETATM   14  C2  UNK     1      16.112   6.966  32.420  1.00  0.00     0.303 C 
HETATM   15  C4  UNK     1      15.152   7.662  33.391  1.00  0.00     0.303 C 
BRANCH  13  16
HETATM   16  C5  UNK     1      18.367   6.181  32.082  1.00  0.00     0.312 C 
BRANCH  16  17
HETATM   17  C7  UNK     1      18.370   4.743  32.455  1.00  0.00    -0.011 A 
HETATM   18  C10 UNK     1      18.277   4.359  33.736  1.00  0.00     0.092 A 
HETATM   19  C15 UNK     1      18.276   2.947  34.154  1.00  0.00     0.288 A 
HETATM   20  O1  UNK     1      18.378   1.999  33.147  1.00  0.00    -0.275 OA
HETATM   21  O2  UNK     1      18.190   2.634  35.336  1.00  0.00    -0.260 OA
HETATM   22  C11 UNK     1      18.477   2.372  31.792  1.00  0.00     0.090 A 
HETATM   23  C9  UNK     1      18.477   3.715  31.411  1.00  0.00     0.006 A 
HETATM   24  C16 UNK     1      18.574   1.333  30.864  1.00  0.00     0.045 A 
HETATM   25  C14 UNK     1      18.580   4.002  30.043  1.00  0.00     0.015 A 
HETATM   26  C18 UNK     1      18.678   2.971  29.102  1.00  0.00     0.007 A 
HETATM   27  C17 UNK     1      18.675   1.640  29.511  1.00  0.00    -0.059 A 
HETATM   28  C22 UNK     1      18.781   0.547  28.503  1.00  0.00     0.048 C 
ENDBRANCH  16  17
ENDBRANCH  13  16
ENDBRANCH   9  10
ENDBRANCH   2   9
TORSDOF 4
ENDMDL
MODEL 8
REMARK VINA RESULT:      -8.4      1.857      3.360
REMARK  4 active torsions:
REMARK  status: ('A' for Active; 'I' for Inactive)
REMARK    1  A    between atoms: C5_10  and  N1_3 
REMARK    2  A    between atoms: C6_11  and  N2_4 
REMARK    3  A    between atoms: C5_10  and  C7_12 
REMARK    4  A    between atoms: C6_11  and  C8_13 
ROOT
HETATM    1  N3  UNK     1      31.987  -6.587  29.161  1.00  0.00    -0.191 NA
HETATM    2  C8  UNK     1      28.784  -7.952  29.680  1.00  0.00    -0.009 A 
HETATM    3  C12 UNK     1      29.961  -8.192  28.972  1.00  0.00     0.052 A 
HETATM    4  C13 UNK     1      27.707  -8.829  29.562  1.00  0.00     0.010 A 
HETATM    5  C19 UNK     1      30.061  -9.311  28.146  1.00  0.00     0.023 A 
HETATM    6  C20 UNK     1      27.807  -9.948  28.736  1.00  0.00     0.001 A 
HETATM    7  C21 UNK     1      28.983 -10.190  28.028  1.00  0.00     0.002 A 
HETATM    8  C23 UNK     1      31.081  -7.306  29.076  1.00  0.00     0.100 C 
ENDROOT
BRANCH   2   9
HETATM    9  C6  UNK     1      28.640  -6.760  30.578  1.00  0.00     0.312 C 
BRANCH   9  10
HETATM   10  N2  UNK     1      28.465  -7.207  31.959  1.00  0.00     0.096 N 
HETATM   11  C3  UNK     1      29.682  -7.860  32.455  1.00  0.00     0.303 C 
HETATM   12  C1  UNK     1      29.501  -8.325  33.904  1.00  0.00     0.303 C 
HETATM   13  N1  UNK     1      29.132  -7.199  34.772  1.00  0.00     0.096 N 
HETATM   14  C2  UNK     1      27.914  -6.548  34.276  1.00  0.00     0.303 C 
HETATM   15  C4  UNK     1      28.096  -6.083  32.828  1.00  0.00     0.303 C 
BRANCH  13  16
HETATM   16  C5  UNK     1      28.958  -7.645  36.153  1.00  0.00     0.312 C 
BRANCH  16  17
HETATM   17  C7  UNK     1      29.657  -6.646  37.005  1.00  0.00    -0.011 A 
HETATM   18  C10 UNK     1      28.987  -5.914  37.906  1.00  0.00     0.092 A 
HETATM   19  C15 UNK     1      29.635  -4.914  38.771  1.00  0.00     0.288 A 
HETATM   20  O1  UNK     1      31.003  -4.750  38.616  1.00  0.00    -0.275 OA
HETATM   21  O2  UNK     1      28.989  -4.263  39.584  1.00  0.00    -0.260 OA
HETATM   22  C11 UNK     1      31.734  -5.505  37.678  1.00  0.00     0.090 A 
HETATM   23  C9  UNK     1      31.106  -6.449  36.865  1.00  0.00     0.006 A 
HETATM   24  C16 UNK     1      33.106  -5.256  37.609  1.00  0.00     0.045 A 
HETATM   25  C14 UNK     1      31.904  -7.158  35.956  1.00  0.00     0.015 A 
HETATM   26  C18 UNK     1      33.280  -6.920  35.877  1.00  0.00     0.007 A 
HETATM   27  C17 UNK     1      33.880  -5.971  36.701  1.00  0.00    -0.059 A 
HETATM   28  C22 UNK     1      35.348  -5.721  36.610  1.00  0.00     0.048 C 
ENDBRANCH  16  17
ENDBRANCH  13  16
ENDBRANCH   9  10
ENDBRANCH   2   9
TORSDOF 4
ENDMDL
MODEL 9
REMARK VINA RESULT:      -8.4      1.922      2.881
REMARK  4 active torsions:
REMARK  status: ('A' for Active; 'I' for Inactive)
REMARK    1  A    between atoms: C5_10  and  N1_3 
REMARK    2  A    between atoms: C6_11  and  N2_4 
REMARK    3  A    between atoms: C5_10  and  C7_12 
REMARK    4  A    between atoms: C6_11  and  C8_13 
ROOT
HETATM    1  N3  UNK     1      27.553  -6.319  30.247  1.00  0.00    -0.191 NA
HETATM    2  C8  UNK     1      30.324  -8.326  29.417  1.00  0.00    -0.009 A 
HETATM    3  C12 UNK     1      28.930  -8.344  29.397  1.00  0.00     0.052 A 
HETATM    4  C13 UNK     1      31.043  -9.428  28.955  1.00  0.00     0.010 A 
HETATM    5  C19 UNK     1      28.254  -9.464  28.913  1.00  0.00     0.023 A 
HETATM    6  C20 UNK     1      30.367 -10.548  28.472  1.00  0.00     0.001 A 
HETATM    7  C21 UNK     1      28.973 -10.567  28.451  1.00  0.00     0.002 A 
HETATM    8  C23 UNK     1      28.169  -7.226  29.866  1.00  0.00     0.100 C 
ENDROOT
BRANCH   2   9
HETATM    9  C6  UNK     1      31.084  -7.140  29.929  1.00  0.00     0.312 C 
BRANCH   9  10
HETATM   10  N2  UNK     1      31.423  -7.347  31.336  1.00  0.00     0.096 N 
HETATM   11  C3  UNK     1      32.878  -7.371  31.523  1.00  0.00     0.303 C 
HETATM   12  C1  UNK     1      33.236  -7.583  32.999  1.00  0.00     0.303 C 
HETATM   13  N1  UNK     1      32.627  -6.544  33.839  1.00  0.00     0.096 N 
HETATM   14  C2  UNK     1      31.171  -6.522  33.652  1.00  0.00     0.303 C 
HETATM   15  C4  UNK     1      30.815  -6.309  32.176  1.00  0.00     0.303 C 
BRANCH  13  16
HETATM   16  C5  UNK     1      32.967  -6.749  35.246  1.00  0.00     0.312 C 
BRANCH  16  17
HETATM   17  C7  UNK     1      32.198  -5.734  36.013  1.00  0.00    -0.011 A 
HETATM   18  C10 UNK     1      32.469  -4.426  35.897  1.00  0.00     0.092 A 
HETATM   19  C15 UNK     1      31.736  -3.385  36.636  1.00  0.00     0.288 A 
HETATM   20  O1  UNK     1      30.726  -3.816  37.482  1.00  0.00    -0.275 OA
HETATM   21  O2  UNK     1      32.012  -2.198  36.504  1.00  0.00    -0.260 OA
HETATM   22  C11 UNK     1      30.417  -5.184  37.625  1.00  0.00     0.090 A 
HETATM   23  C9  UNK     1      31.121  -6.159  36.917  1.00  0.00     0.006 A 
HETATM   24  C16 UNK     1      29.381  -5.502  38.503  1.00  0.00     0.045 A 
HETATM   25  C14 UNK     1      30.754  -7.498  37.116  1.00  0.00     0.015 A 
HETATM   26  C18 UNK     1      29.717  -7.831  37.994  1.00  0.00     0.007 A 
HETATM   27  C17 UNK     1      29.031  -6.836  38.686  1.00  0.00    -0.059 A 
HETATM   28  C22 UNK     1      27.928  -7.199  39.621  1.00  0.00     0.048 C 
ENDBRANCH  16  17
ENDBRANCH  13  16
ENDBRANCH   9  10
ENDBRANCH   2   9
TORSDOF 4
ENDMDL
MODEL 10
REMARK VINA RESULT:      -8.4      4.614      7.216
REMARK  4 active torsions:
REMARK  status: ('A' for Active; 'I' for Inactive)
REMARK    1  A    between atoms: C5_10  and  N1_3 
REMARK    2  A    between atoms: C6_11  and  N2_4 
REMARK    3  A    between atoms: C5_10  and  C7_12 
REMARK    4  A    between atoms: C6_11  and  C8_13 
ROOT
HETATM    1  N3  UNK     1      22.413  -7.457  37.658  1.00  0.00    -0.191 NA
HETATM    2  C8  UNK     1      24.883  -9.851  36.908  1.00  0.00    -0.009 A 
HETATM    3  C12 UNK     1      23.512  -9.632  36.775  1.00  0.00     0.052 A 
HETATM    4  C13 UNK     1      25.451 -11.029  36.426  1.00  0.00     0.010 A 
HETATM    5  C19 UNK     1      22.709 -10.591  36.158  1.00  0.00     0.023 A 
HETATM    6  C20 UNK     1      24.649 -11.989  35.809  1.00  0.00     0.001 A 
HETATM    7  C21 UNK     1      23.279 -11.770  35.675  1.00  0.00     0.002 A 
HETATM    8  C23 UNK     1      22.904  -8.431  37.262  1.00  0.00     0.100 C 
ENDROOT
BRANCH   2   9
HETATM    9  C6  UNK     1      25.776  -8.843  37.565  1.00  0.00     0.312 C 
BRANCH   9  10
HETATM   10  N2  UNK     1      27.172  -9.242  37.395  1.00  0.00     0.096 N 
HETATM   11  C3  UNK     1      27.850  -8.372  36.427  1.00  0.00     0.303 C 
HETATM   12  C1  UNK     1      29.315  -8.787  36.250  1.00  0.00     0.303 C 
HETATM   13  N1  UNK     1      30.021  -8.771  37.538  1.00  0.00     0.096 N 
HETATM   14  C2  UNK     1      29.344  -9.643  38.504  1.00  0.00     0.303 C 
HETATM   15  C4  UNK     1      27.879  -9.227  38.681  1.00  0.00     0.303 C 
BRANCH  13  16
HETATM   16  C5  UNK     1      31.417  -9.169  37.368  1.00  0.00     0.312 C 
BRANCH  16  17
HETATM   17  C7  UNK     1      32.203  -7.909  37.283  1.00  0.00    -0.011 A 
HETATM   18  C10 UNK     1      32.054  -6.937  38.194  1.00  0.00     0.092 A 
HETATM   19  C15 UNK     1      32.809  -5.673  38.151  1.00  0.00     0.288 A 
HETATM   20  O1  UNK     1      33.705  -5.519  37.105  1.00  0.00    -0.275 OA
HETATM   21  O2  UNK     1      32.647  -4.807  39.003  1.00  0.00    -0.260 OA
HETATM   22  C11 UNK     1      33.884  -6.523  36.133  1.00  0.00     0.090 A 
HETATM   23  C9  UNK     1      33.161  -7.715  36.186  1.00  0.00     0.006 A 
HETATM   24  C16 UNK     1      34.813  -6.259  35.125  1.00  0.00     0.045 A 
HETATM   25  C14 UNK     1      33.395  -8.663  35.181  1.00  0.00     0.015 A 
HETATM   26  C18 UNK     1      34.324  -8.412  34.165  1.00  0.00     0.007 A 
HETATM   27  C17 UNK     1      35.031  -7.212  34.137  1.00  0.00    -0.059 A 
HETATM   28  C22 UNK     1      36.019  -6.951  33.050  1.00  0.00     0.048 C 
ENDBRANCH  16  17
ENDBRANCH  13  16
ENDBRANCH   9  10
ENDBRANCH   2   9
TORSDOF 4
ENDMDL
