MODEL 1
REMARK VINA RESULT:      -8.6      0.000      0.000
REMARK  3 active torsions:
REMARK  status: ('A' for Active; 'I' for Inactive)
REMARK    1  A    between atoms: C11_17  and  O2_3 
REMARK    2  A    between atoms: C3_9  and  O2_3 
REMARK    3  A    between atoms: C10_16  and  C11_17 
ROOT
HETATM    1 Cl1  UNK     1      20.920  -2.818  29.947  1.00  0.00    -0.078 Cl
HETATM    2  O1  UNK     1      19.239  -0.265  32.511  1.00  0.00    -0.320 OA
HETATM    3  O3  UNK     1      20.190  -0.272  28.535  1.00  0.00    -0.286 OA
HETATM    4  C1  UNK     1      19.267   0.891  30.371  1.00  0.00     0.050 A 
HETATM    5  C2  UNK     1      18.966   0.833  31.733  1.00  0.00     0.091 A 
HETATM    6  C3  UNK     1      18.056   3.067  31.624  1.00  0.00     0.082 A 
HETATM    7  C4  UNK     1      18.359   1.923  32.361  1.00  0.00     0.075 A 
HETATM    8  C5  UNK     1      18.963   2.037  29.630  1.00  0.00     0.021 A 
HETATM    9  C6  UNK     1      18.357   3.123  30.261  1.00  0.00     0.038 A 
HETATM   10  C7  UNK     1      19.908  -0.272  29.726  1.00  0.00     0.208 A 
HETATM   11  C8  UNK     1      20.179  -1.424  30.613  1.00  0.00     0.107 A 
HETATM   12  C9  UNK     1      19.836  -1.342  31.901  1.00  0.00     0.170 A 
ENDROOT
BRANCH   6  13
HETATM   13  O2  UNK     1      17.466   4.131  32.233  1.00  0.00    -0.275 OA
BRANCH  13  14
HETATM   14  C11 UNK     1      18.193   5.320  32.146  1.00  0.00     0.300 C 
HETATM   15  O4  UNK     1      19.407   5.405  32.045  1.00  0.00    -0.259 OA
BRANCH  14  16
HETATM   16  C10 UNK     1      17.295   6.503  32.181  1.00  0.00     0.057 A 
HETATM   17  C12 UNK     1      16.610   6.809  33.331  1.00  0.00     0.020 A 
HETATM   18  C14 UNK     1      15.777   7.922  33.334  1.00  0.00     0.020 A 
HETATM   19  C15 UNK     1      15.684   8.666  32.169  1.00  0.00     0.116 A 
HETATM   20  N1  UNK     1      16.353   8.375  31.031  1.00  0.00    -0.272 NA
HETATM   21  C13 UNK     1      17.153   7.285  31.066  1.00  0.00     0.133 A 
ENDBRANCH  14  16
ENDBRANCH  13  14
ENDBRANCH   6  13
TORSDOF 3
ENDMDL
MODEL 2
REMARK VINA RESULT:      -8.3      4.116      7.769
REMARK  3 active torsions:
REMARK  status: ('A' for Active; 'I' for Inactive)
REMARK    1  A    between atoms: C11_17  and  O2_3 
REMARK    2  A    between atoms: C3_9  and  O2_3 
REMARK    3  A    between atoms: C10_16  and  C11_17 
ROOT
HETATM    1 Cl1  UNK     1      15.449   9.260  34.279  1.00  0.00    -0.078 Cl
HETATM    2  O1  UNK     1      17.298   5.734  34.004  1.00  0.00    -0.320 OA
HETATM    3  O3  UNK     1      16.396   8.810  31.465  1.00  0.00    -0.286 OA
HETATM    4  C1  UNK     1      17.387   6.688  31.767  1.00  0.00     0.050 A 
HETATM    5  C2  UNK     1      17.666   5.671  32.682  1.00  0.00     0.091 A 
HETATM    6  C3  UNK     1      18.752   4.404  30.936  1.00  0.00     0.082 A 
HETATM    7  C4  UNK     1      18.350   4.527  32.266  1.00  0.00     0.075 A 
HETATM    8  C5  UNK     1      17.789   6.567  30.434  1.00  0.00     0.021 A 
HETATM    9  C6  UNK     1      18.472   5.422  30.023  1.00  0.00     0.038 A 
HETATM   10  C7  UNK     1      16.663   7.890  32.227  1.00  0.00     0.208 A 
HETATM   11  C8  UNK     1      16.291   7.901  33.659  1.00  0.00     0.107 A 
HETATM   12  C9  UNK     1      16.624   6.857  34.421  1.00  0.00     0.170 A 
ENDROOT
BRANCH   6  13
HETATM   13  O2  UNK     1      19.417   3.290  30.528  1.00  0.00    -0.275 OA
BRANCH  13  14
HETATM   14  C11 UNK     1      18.591   2.212  30.204  1.00  0.00     0.300 C 
HETATM   15  O4  UNK     1      17.427   2.292  29.840  1.00  0.00    -0.259 OA
BRANCH  14  16
HETATM   16  C10 UNK     1      19.310   0.920  30.348  1.00  0.00     0.057 A 
HETATM   17  C12 UNK     1      19.968   0.380  29.270  1.00  0.00     0.020 A 
HETATM   18  C14 UNK     1      20.633  -0.831  29.434  1.00  0.00     0.020 A 
HETATM   19  C15 UNK     1      20.594  -1.427  30.684  1.00  0.00     0.116 A 
HETATM   20  N1  UNK     1      19.951  -0.905  31.752  1.00  0.00    -0.272 NA
HETATM   21  C13 UNK     1      19.315   0.272  31.554  1.00  0.00     0.133 A 
ENDBRANCH  14  16
ENDBRANCH  13  14
ENDBRANCH   6  13
TORSDOF 3
ENDMDL
MODEL 3
REMARK VINA RESULT:      -8.3      1.481      2.489
REMARK  3 active torsions:
REMARK  status: ('A' for Active; 'I' for Inactive)
REMARK    1  A    between atoms: C11_17  and  O2_3 
REMARK    2  A    between atoms: C3_9  and  O2_3 
REMARK    3  A    between atoms: C10_16  and  C11_17 
ROOT
HETATM    1 Cl1  UNK     1      20.879  -3.077  30.322  1.00  0.00    -0.078 Cl
HETATM    2  O1  UNK     1      19.850   0.565  29.059  1.00  0.00    -0.320 OA
HETATM    3  O3  UNK     1      19.701  -1.496  32.587  1.00  0.00    -0.286 OA
HETATM    4  C1  UNK     1      19.256   0.506  31.417  1.00  0.00     0.050 A 
HETATM    5  C2  UNK     1      19.334   1.159  30.185  1.00  0.00     0.091 A 
HETATM    6  C3  UNK     1      18.344   3.129  31.169  1.00  0.00     0.082 A 
HETATM    7  C4  UNK     1      18.877   2.472  30.060  1.00  0.00     0.075 A 
HETATM    8  C5  UNK     1      18.722   1.163  32.529  1.00  0.00     0.021 A 
HETATM    9  C6  UNK     1      18.267   2.476  32.401  1.00  0.00     0.038 A 
HETATM   10  C7  UNK     1      19.745  -0.882  31.529  1.00  0.00     0.208 A 
HETATM   11  C8  UNK     1      20.287  -1.469  30.284  1.00  0.00     0.107 A 
HETATM   12  C9  UNK     1      20.301  -0.728  29.173  1.00  0.00     0.170 A 
ENDROOT
BRANCH   6  13
HETATM   13  O2  UNK     1      17.897   4.409  31.050  1.00  0.00    -0.275 OA
BRANCH  13  14
HETATM   14  C11 UNK     1      18.887   5.381  31.207  1.00  0.00     0.300 C 
HETATM   15  O4  UNK     1      19.820   5.576  30.444  1.00  0.00    -0.259 OA
BRANCH  14  16
HETATM   16  C10 UNK     1      18.663   6.182  32.438  1.00  0.00     0.057 A 
HETATM   17  C12 UNK     1      19.707   6.868  33.007  1.00  0.00     0.020 A 
HETATM   18  C14 UNK     1      19.468   7.609  34.160  1.00  0.00     0.020 A 
HETATM   19  C15 UNK     1      18.181   7.613  34.672  1.00  0.00     0.116 A 
HETATM   20  N1  UNK     1      17.145   6.942  34.121  1.00  0.00    -0.272 NA
HETATM   21  C13 UNK     1      17.416   6.232  33.002  1.00  0.00     0.133 A 
ENDBRANCH  14  16
ENDBRANCH  13  14
ENDBRANCH   6  13
TORSDOF 3
ENDMDL
MODEL 4
REMARK VINA RESULT:      -8.0     22.437     23.998
REMARK  3 active torsions:
REMARK  status: ('A' for Active; 'I' for Inactive)
REMARK    1  A    between atoms: C11_17  and  O2_3 
REMARK    2  A    between atoms: C3_9  and  O2_3 
REMARK    3  A    between atoms: C10_16  and  C11_17 
ROOT
HETATM    1 Cl1  UNK     1      18.197  10.883   9.658  1.00  0.00    -0.078 Cl
HETATM    2  O1  UNK     1      14.374   9.758   9.456  1.00  0.00    -0.320 OA
HETATM    3  O3  UNK     1      17.973   7.918  10.070  1.00  0.00    -0.286 OA
HETATM    4  C1  UNK     1      15.629   7.716   9.873  1.00  0.00     0.050 A 
HETATM    5  C2  UNK     1      14.431   8.400   9.658  1.00  0.00     0.091 A 
HETATM    6  C3  UNK     1      13.214   6.323   9.846  1.00  0.00     0.082 A 
HETATM    7  C4  UNK     1      13.221   7.704   9.645  1.00  0.00     0.075 A 
HETATM    8  C5  UNK     1      15.623   6.333  10.075  1.00  0.00     0.021 A 
HETATM    9  C6  UNK     1      14.412   5.640  10.061  1.00  0.00     0.038 A 
HETATM   10  C7  UNK     1      16.897   8.471   9.885  1.00  0.00     0.208 A 
HETATM   11  C8  UNK     1      16.774   9.928   9.659  1.00  0.00     0.107 A 
HETATM   12  C9  UNK     1      15.560  10.451   9.467  1.00  0.00     0.170 A 
ENDROOT
BRANCH   6  13
HETATM   13  O2  UNK     1      12.037   5.641   9.832  1.00  0.00    -0.275 OA
BRANCH  13  14
HETATM   14  C11 UNK     1      11.695   5.108   8.587  1.00  0.00     0.300 C 
HETATM   15  O4  UNK     1      12.320   4.248   7.986  1.00  0.00    -0.259 OA
BRANCH  14  16
HETATM   16  C10 UNK     1      10.444   5.717   8.066  1.00  0.00     0.057 A 
HETATM   17  C12 UNK     1      10.320   5.986   6.725  1.00  0.00     0.020 A 
HETATM   18  C14 UNK     1       9.137   6.557   6.267  1.00  0.00     0.020 A 
HETATM   19  C15 UNK     1       8.144   6.822   7.196  1.00  0.00     0.116 A 
HETATM   20  N1  UNK     1       8.254   6.562   8.517  1.00  0.00    -0.272 NA
HETATM   21  C13 UNK     1       9.418   6.008   8.926  1.00  0.00     0.133 A 
ENDBRANCH  14  16
ENDBRANCH  13  14
ENDBRANCH   6  13
TORSDOF 3
ENDMDL
MODEL 5
REMARK VINA RESULT:      -7.9      4.206      8.056
REMARK  3 active torsions:
REMARK  status: ('A' for Active; 'I' for Inactive)
REMARK    1  A    between atoms: C11_17  and  O2_3 
REMARK    2  A    between atoms: C3_9  and  O2_3 
REMARK    3  A    between atoms: C10_16  and  C11_17 
ROOT
HETATM    1 Cl1  UNK     1      13.795  10.412  33.824  1.00  0.00    -0.078 Cl
HETATM    2  O1  UNK     1      14.890   6.977  32.113  1.00  0.00    -0.320 OA
HETATM    3  O3  UNK     1      16.766  10.045  34.061  1.00  0.00    -0.286 OA
HETATM    4  C1  UNK     1      16.948   7.967  32.953  1.00  0.00     0.050 A 
HETATM    5  C2  UNK     1      16.252   6.950  32.297  1.00  0.00     0.091 A 
HETATM    6  C3  UNK     1      18.323   5.758  31.952  1.00  0.00     0.082 A 
HETATM    7  C4  UNK     1      16.940   5.844  31.796  1.00  0.00     0.075 A 
HETATM    8  C5  UNK     1      18.334   7.883  33.111  1.00  0.00     0.021 A 
HETATM    9  C6  UNK     1      19.018   6.776  32.609  1.00  0.00     0.038 A 
HETATM   10  C7  UNK     1      16.202   9.128  33.477  1.00  0.00     0.208 A 
HETATM   11  C8  UNK     1      14.741   9.103  33.248  1.00  0.00     0.107 A 
HETATM   12  C9  UNK     1      14.206   8.064  32.604  1.00  0.00     0.170 A 
ENDROOT
BRANCH   6  13
HETATM   13  O2  UNK     1      18.996   4.682  31.463  1.00  0.00    -0.275 OA
BRANCH  13  14
HETATM   14  C11 UNK     1      18.411   3.451  31.765  1.00  0.00     0.300 C 
HETATM   15  O4  UNK     1      17.840   3.171  32.808  1.00  0.00    -0.259 OA
BRANCH  14  16
HETATM   16  C10 UNK     1      18.556   2.495  30.636  1.00  0.00     0.057 A 
HETATM   17  C12 UNK     1      19.226   1.312  30.823  1.00  0.00     0.020 A 
HETATM   18  C14 UNK     1      19.347   0.438  29.749  1.00  0.00     0.020 A 
HETATM   19  C15 UNK     1      18.779   0.813  28.542  1.00  0.00     0.116 A 
HETATM   20  N1  UNK     1      18.117   1.974  28.345  1.00  0.00    -0.272 NA
HETATM   21  C13 UNK     1      18.021   2.799  29.413  1.00  0.00     0.133 A 
ENDBRANCH  14  16
ENDBRANCH  13  14
ENDBRANCH   6  13
TORSDOF 3
ENDMDL
MODEL 6
REMARK VINA RESULT:      -7.8      7.028      9.645
REMARK  3 active torsions:
REMARK  status: ('A' for Active; 'I' for Inactive)
REMARK    1  A    between atoms: C11_17  and  O2_3 
REMARK    2  A    between atoms: C3_9  and  O2_3 
REMARK    3  A    between atoms: C10_16  and  C11_17 
ROOT
HETATM    1 Cl1  UNK     1      19.918 -10.765  37.050  1.00  0.00    -0.078 Cl
HETATM    2  O1  UNK     1      18.593  -7.077  36.298  1.00  0.00    -0.320 OA
HETATM    3  O3  UNK     1      21.874  -8.737  38.085  1.00  0.00    -0.286 OA
HETATM    4  C1  UNK     1      20.718  -6.780  37.444  1.00  0.00     0.050 A 
HETATM    5  C2  UNK     1      19.576  -6.273  36.822  1.00  0.00     0.091 A 
HETATM    6  C3  UNK     1      20.360  -4.024  37.222  1.00  0.00     0.082 A 
HETATM    7  C4  UNK     1      19.396  -4.893  36.711  1.00  0.00     0.075 A 
HETATM    8  C5  UNK     1      21.685  -5.911  37.957  1.00  0.00     0.021 A 
HETATM    9  C6  UNK     1      21.502  -4.533  37.844  1.00  0.00     0.038 A 
HETATM   10  C7  UNK     1      20.890  -8.243  37.551  1.00  0.00     0.208 A 
HETATM   11  C8  UNK     1      19.800  -9.057  36.971  1.00  0.00     0.107 A 
HETATM   12  C9  UNK     1      18.762  -8.437  36.404  1.00  0.00     0.170 A 
ENDROOT
BRANCH   6  13
HETATM   13  O2  UNK     1      20.186  -2.679  37.117  1.00  0.00    -0.275 OA
BRANCH  13  14
HETATM   14  C11 UNK     1      20.212  -2.196  35.807  1.00  0.00     0.300 C 
HETATM   15  O4  UNK     1      21.123  -2.356  35.008  1.00  0.00    -0.259 OA
BRANCH  14  16
HETATM   16  C10 UNK     1      18.967  -1.454  35.482  1.00  0.00     0.057 A 
HETATM   17  C12 UNK     1      18.054  -1.184  36.472  1.00  0.00     0.020 A 
HETATM   18  C14 UNK     1      16.897  -0.488  36.139  1.00  0.00     0.020 A 
HETATM   19  C15 UNK     1      16.731  -0.103  34.818  1.00  0.00     0.116 A 
HETATM   20  N1  UNK     1      17.622  -0.363  33.836  1.00  0.00    -0.272 NA
HETATM   21  C13 UNK     1      18.734  -1.042  34.198  1.00  0.00     0.133 A 
ENDBRANCH  14  16
ENDBRANCH  13  14
ENDBRANCH   6  13
TORSDOF 3
ENDMDL
MODEL 7
REMARK VINA RESULT:      -7.8     22.986     24.652
REMARK  3 active torsions:
REMARK  status: ('A' for Active; 'I' for Inactive)
REMARK    1  A    between atoms: C11_17  and  O2_3 
REMARK    2  A    between atoms: C3_9  and  O2_3 
REMARK    3  A    between atoms: C10_16  and  C11_17 
ROOT
HETATM    1 Cl1  UNK     1      18.529  13.114   8.065  1.00  0.00    -0.078 Cl
HETATM    2  O1  UNK     1      15.207  10.925   7.756  1.00  0.00    -0.320 OA
HETATM    3  O3  UNK     1      18.738  10.675   9.802  1.00  0.00    -0.286 OA
HETATM    4  C1  UNK     1      16.634   9.721   9.316  1.00  0.00     0.050 A 
HETATM    5  C2  UNK     1      15.448   9.862   8.592  1.00  0.00     0.091 A 
HETATM    6  C3  UNK     1      14.630   7.794   9.534  1.00  0.00     0.082 A 
HETATM    7  C4  UNK     1      14.445   8.897   8.700  1.00  0.00     0.075 A 
HETATM    8  C5  UNK     1      16.821   8.616  10.152  1.00  0.00     0.021 A 
HETATM    9  C6  UNK     1      15.816   7.655  10.257  1.00  0.00     0.038 A 
HETATM   10  C7  UNK     1      17.682  10.752   9.188  1.00  0.00     0.208 A 
HETATM   11  C8  UNK     1      17.367  11.871   8.274  1.00  0.00     0.107 A 
HETATM   12  C9  UNK     1      16.190  11.879   7.643  1.00  0.00     0.170 A 
ENDROOT
BRANCH   6  13
HETATM   13  O2  UNK     1      13.654   6.852   9.641  1.00  0.00    -0.275 OA
BRANCH  13  14
HETATM   14  C11 UNK     1      13.587   5.967   8.562  1.00  0.00     0.300 C 
HETATM   15  O4  UNK     1      14.488   5.231   8.190  1.00  0.00    -0.259 OA
BRANCH  14  16
HETATM   16  C10 UNK     1      12.255   6.018   7.907  1.00  0.00     0.057 A 
HETATM   17  C12 UNK     1      12.133   6.540   6.642  1.00  0.00     0.020 A 
HETATM   18  C14 UNK     1      10.874   6.575   6.055  1.00  0.00     0.020 A 
HETATM   19  C15 UNK     1       9.805   6.077   6.783  1.00  0.00     0.116 A 
HETATM   20  N1  UNK     1       9.912   5.561   8.027  1.00  0.00    -0.272 NA
HETATM   21  C13 UNK     1      11.152   5.545   8.567  1.00  0.00     0.133 A 
ENDBRANCH  14  16
ENDBRANCH  13  14
ENDBRANCH   6  13
TORSDOF 3
ENDMDL
MODEL 8
REMARK VINA RESULT:      -7.8     22.071     23.419
REMARK  3 active torsions:
REMARK  status: ('A' for Active; 'I' for Inactive)
REMARK    1  A    between atoms: C11_17  and  O2_3 
REMARK    2  A    between atoms: C3_9  and  O2_3 
REMARK    3  A    between atoms: C10_16  and  C11_17 
ROOT
HETATM    1 Cl1  UNK     1      17.467   7.513  10.806  1.00  0.00    -0.078 Cl
HETATM    2  O1  UNK     1      13.493   7.824  10.614  1.00  0.00    -0.320 OA
HETATM    3  O3  UNK     1      16.347   5.346   9.056  1.00  0.00    -0.286 OA
HETATM    4  C1  UNK     1      14.060   5.906   9.230  1.00  0.00     0.050 A 
HETATM    5  C2  UNK     1      13.132   6.784   9.792  1.00  0.00     0.091 A 
HETATM    6  C3  UNK     1      11.341   5.588   8.700  1.00  0.00     0.082 A 
HETATM    7  C4  UNK     1      11.771   6.626   9.527  1.00  0.00     0.075 A 
HETATM    8  C5  UNK     1      13.632   4.865   8.401  1.00  0.00     0.021 A 
HETATM    9  C6  UNK     1      12.270   4.710   8.139  1.00  0.00     0.038 A 
HETATM   10  C7  UNK     1      15.495   6.090   9.522  1.00  0.00     0.208 A 
HETATM   11  C8  UNK     1      15.823   7.226  10.411  1.00  0.00     0.107 A 
HETATM   12  C9  UNK     1      14.832   7.987  10.879  1.00  0.00     0.170 A 
ENDROOT
BRANCH   6  13
HETATM   13  O2  UNK     1      10.015   5.431   8.439  1.00  0.00    -0.275 OA
BRANCH  13  14
HETATM   14  C11 UNK     1       9.279   4.896   9.499  1.00  0.00     0.300 C 
HETATM   15  O4  UNK     1       9.553   3.875  10.111  1.00  0.00    -0.259 OA
BRANCH  14  16
HETATM   16  C10 UNK     1       8.097   5.739   9.812  1.00  0.00     0.057 A 
HETATM   17  C12 UNK     1       7.315   5.443  10.901  1.00  0.00     0.020 A 
HETATM   18  C14 UNK     1       6.214   6.249  11.170  1.00  0.00     0.020 A 
HETATM   19  C15 UNK     1       5.968   7.314  10.318  1.00  0.00     0.116 A 
HETATM   20  N1  UNK     1       6.731   7.616   9.244  1.00  0.00    -0.272 NA
HETATM   21  C13 UNK     1       7.791   6.808   9.014  1.00  0.00     0.133 A 
ENDBRANCH  14  16
ENDBRANCH  13  14
ENDBRANCH   6  13
TORSDOF 3
ENDMDL
MODEL 9
REMARK VINA RESULT:      -7.7     14.843     17.833
REMARK  3 active torsions:
REMARK  status: ('A' for Active; 'I' for Inactive)
REMARK    1  A    between atoms: C11_17  and  O2_3 
REMARK    2  A    between atoms: C3_9  and  O2_3 
REMARK    3  A    between atoms: C10_16  and  C11_17 
ROOT
HETATM    1 Cl1  UNK     1      19.046   2.313  21.218  1.00  0.00    -0.078 Cl
HETATM    2  O1  UNK     1      19.442   2.545  17.254  1.00  0.00    -0.320 OA
HETATM    3  O3  UNK     1      18.686  -0.401  19.986  1.00  0.00    -0.286 OA
HETATM    4  C1  UNK     1      18.995   0.200  17.724  1.00  0.00     0.050 A 
HETATM    5  C2  UNK     1      19.256   1.248  16.840  1.00  0.00     0.091 A 
HETATM    6  C3  UNK     1      19.155  -0.295  14.985  1.00  0.00     0.082 A 
HETATM    7  C4  UNK     1      19.336   1.001  15.468  1.00  0.00     0.075 A 
HETATM    8  C5  UNK     1      18.813  -1.099  17.242  1.00  0.00     0.021 A 
HETATM    9  C6  UNK     1      18.894  -1.342  15.871  1.00  0.00     0.038 A 
HETATM   10  C7  UNK     1      18.914   0.482  19.171  1.00  0.00     0.208 A 
HETATM   11  C8  UNK     1      19.124   1.895  19.557  1.00  0.00     0.107 A 
HETATM   12  C9  UNK     1      19.365   2.796  18.603  1.00  0.00     0.170 A 
ENDROOT
BRANCH   6  13
HETATM   13  O2  UNK     1      19.233  -0.539  13.649  1.00  0.00    -0.275 OA
BRANCH  13  14
HETATM   14  C11 UNK     1      20.331  -1.314  13.269  1.00  0.00     0.300 C 
HETATM   15  O4  UNK     1      21.503  -1.035  13.471  1.00  0.00    -0.259 OA
BRANCH  14  16
HETATM   16  C10 UNK     1      19.899  -2.557  12.580  1.00  0.00     0.057 A 
HETATM   17  C12 UNK     1      20.295  -3.780  13.063  1.00  0.00     0.020 A 
HETATM   18  C14 UNK     1      19.875  -4.927  12.397  1.00  0.00     0.020 A 
HETATM   19  C15 UNK     1      19.075  -4.769  11.277  1.00  0.00     0.116 A 
HETATM   20  N1  UNK     1      18.679  -3.572  10.793  1.00  0.00    -0.272 NA
HETATM   21  C13 UNK     1      19.107  -2.479  11.466  1.00  0.00     0.133 A 
ENDBRANCH  14  16
ENDBRANCH  13  14
ENDBRANCH   6  13
TORSDOF 3
ENDMDL
MODEL 10
REMARK VINA RESULT:      -7.7      6.892      9.513
REMARK  3 active torsions:
REMARK  status: ('A' for Active; 'I' for Inactive)
REMARK    1  A    between atoms: C11_17  and  O2_3 
REMARK    2  A    between atoms: C3_9  and  O2_3 
REMARK    3  A    between atoms: C10_16  and  C11_17 
ROOT
HETATM    1 Cl1  UNK     1      22.791 -10.645  36.112  1.00  0.00    -0.078 Cl
HETATM    2  O1  UNK     1      20.473  -7.652  34.855  1.00  0.00    -0.320 OA
HETATM    3  O3  UNK     1      22.756  -8.444  38.153  1.00  0.00    -0.286 OA
HETATM    4  C1  UNK     1      21.315  -6.950  37.026  1.00  0.00     0.050 A 
HETATM    5  C2  UNK     1      20.553  -6.736  35.876  1.00  0.00     0.091 A 
HETATM    6  C3  UNK     1      19.874  -4.582  36.728  1.00  0.00     0.082 A 
HETATM    7  C4  UNK     1      19.832  -5.551  35.726  1.00  0.00     0.075 A 
HETATM    8  C5  UNK     1      21.360  -5.980  38.031  1.00  0.00     0.021 A 
HETATM    9  C6  UNK     1      20.637  -4.796  37.878  1.00  0.00     0.038 A 
HETATM   10  C7  UNK     1      22.072  -8.210  37.165  1.00  0.00     0.208 A 
HETATM   11  C8  UNK     1      21.945  -9.157  36.036  1.00  0.00     0.107 A 
HETATM   12  C9  UNK     1      21.180  -8.822  34.995  1.00  0.00     0.170 A 
ENDROOT
BRANCH   6  13
HETATM   13  O2  UNK     1      19.171  -3.426  36.586  1.00  0.00    -0.275 OA
BRANCH  13  14
HETATM   14  C11 UNK     1      19.842  -2.427  35.877  1.00  0.00     0.300 C 
HETATM   15  O4  UNK     1      21.028  -2.438  35.584  1.00  0.00    -0.259 OA
BRANCH  14  16
HETATM   16  C10 UNK     1      18.921  -1.323  35.501  1.00  0.00     0.057 A 
HETATM   17  C12 UNK     1      18.321  -0.570  36.480  1.00  0.00     0.020 A 
HETATM   18  C14 UNK     1      17.464   0.456  36.098  1.00  0.00     0.020 A 
HETATM   19  C15 UNK     1      17.263   0.662  34.742  1.00  0.00     0.116 A 
HETATM   20  N1  UNK     1      17.848  -0.073  33.771  1.00  0.00    -0.272 NA
HETATM   21  C13 UNK     1      18.674  -1.062  34.180  1.00  0.00     0.133 A 
ENDBRANCH  14  16
ENDBRANCH  13  14
ENDBRANCH   6  13
TORSDOF 3
ENDMDL
