MODEL 1
REMARK VINA RESULT:      -9.5      0.000      0.000
REMARK  7 active torsions:
REMARK  status: ('A' for Active; 'I' for Inactive)
REMARK    1  A    between atoms: C17_25  and  O2_3 
REMARK    2  A    between atoms: C18_26  and  O3_4 
REMARK       I    between atoms: C16_24  and  N1_8 
REMARK    3  A    between atoms: C4_12  and  N1_8 
REMARK    4  A    between atoms: C1_9  and  C2_10 
REMARK    5  A    between atoms: C17_25  and  C3_11 
REMARK    6  A    between atoms: C5_13  and  C9_17 
REMARK    7  A    between atoms: C13_21  and  C16_24 
ROOT
HETATM    1  S1  UNK     1      18.174  -0.469  37.165  1.00  0.00    -0.082 SA
HETATM    2  C1  UNK     1      19.436  -2.617  36.539  1.00  0.00    -0.000 A 
HETATM    3  C3  UNK     1      19.615  -1.721  35.446  1.00  0.00     0.085 A 
HETATM    4  C4  UNK     1      18.983  -0.540  35.673  1.00  0.00     0.094 A 
HETATM    5  C8  UNK     1      18.671  -2.064  37.543  1.00  0.00     0.065 A 
ENDROOT
BRANCH   4   6
HETATM    6  N1  UNK     1      18.897   0.608  34.880  1.00  0.00    -0.316 N 
HETATM    7  C16 UNK     1      17.779   1.034  34.178  1.00  0.00     0.262 C 
HETATM    8  O4  UNK     1      16.670   0.508  34.108  1.00  0.00    -0.267 OA
HETATM    9  H8  UNK     1      19.743   1.170  34.855  1.00  0.00     0.169 HD
BRANCH   7  10
HETATM   10  C13 UNK     1      18.034   2.282  33.448  1.00  0.00     0.108 A 
HETATM   11  C15 UNK     1      17.990   3.408  34.169  1.00  0.00     0.037 A 
HETATM   12  C12 UNK     1      18.228   4.695  33.534  1.00  0.00     0.002 A 
HETATM   13  C14 UNK     1      18.502   4.732  32.171  1.00  0.00     0.123 A 
HETATM   14  C19 UNK     1      18.194   5.895  34.248  1.00  0.00     0.014 A 
HETATM   15  O1  UNK     1      18.547   3.544  31.417  1.00  0.00    -0.271 OA
HETATM   16  C18 UNK     1      18.740   5.932  31.503  1.00  0.00     0.102 A 
HETATM   17  C20 UNK     1      18.323   2.297  31.997  1.00  0.00     0.304 A 
HETATM   18  O6  UNK     1      18.365   1.267  31.333  1.00  0.00    -0.259 OA
HETATM   19  C22 UNK     1      18.703   7.125  32.222  1.00  0.00     0.040 A 
HETATM   20  C23 UNK     1      18.431   7.107  33.591  1.00  0.00     0.004 A 
BRANCH  16  21
HETATM   21  O3  UNK     1      19.006   5.954  30.170  1.00  0.00    -0.353 OA
HETATM   22  C25 UNK     1      20.378   5.935  29.779  1.00  0.00     0.210 C 
ENDBRANCH  16  21
ENDBRANCH   7  10
ENDBRANCH   4   6
BRANCH   3  23
HETATM   23  C17 UNK     1      20.364  -2.001  34.245  1.00  0.00     0.296 C 
HETATM   24  O5  UNK     1      21.559  -2.329  34.237  1.00  0.00    -0.259 OA
BRANCH  23  25
HETATM   25  O2  UNK     1      19.630  -1.873  33.087  1.00  0.00    -0.322 OA
HETATM   26  C24 UNK     1      20.366  -1.764  31.864  1.00  0.00     0.213 C 
ENDBRANCH  23  25
ENDBRANCH   3  23
BRANCH   2  27
HETATM   27  C2  UNK     1      19.948  -3.956  36.673  1.00  0.00    -0.024 A 
HETATM   28  C6  UNK     1      20.907  -4.237  37.644  1.00  0.00     0.013 A 
HETATM   29  C10 UNK     1      21.404  -5.535  37.775  1.00  0.00     0.008 A 
HETATM   30  C5  UNK     1      20.941  -6.546  36.933  1.00  0.00    -0.059 A 
HETATM   31  C11 UNK     1      19.982  -6.261  35.962  1.00  0.00     0.008 A 
HETATM   32  C7  UNK     1      19.485  -4.964  35.832  1.00  0.00     0.013 A 
BRANCH  30  33
HETATM   33  C9  UNK     1      21.473  -7.933  37.072  1.00  0.00     0.034 C 
HETATM   34  C21 UNK     1      21.548  -8.662  35.734  1.00  0.00     0.010 C 
ENDBRANCH  30  33
ENDBRANCH   2  27
TORSDOF 7
ENDMDL
MODEL 2
REMARK VINA RESULT:      -9.3      1.137      1.957
REMARK  7 active torsions:
REMARK  status: ('A' for Active; 'I' for Inactive)
REMARK    1  A    between atoms: C17_25  and  O2_3 
REMARK    2  A    between atoms: C18_26  and  O3_4 
REMARK       I    between atoms: C16_24  and  N1_8 
REMARK    3  A    between atoms: C4_12  and  N1_8 
REMARK    4  A    between atoms: C1_9  and  C2_10 
REMARK    5  A    between atoms: C17_25  and  C3_11 
REMARK    6  A    between atoms: C5_13  and  C9_17 
REMARK    7  A    between atoms: C13_21  and  C16_24 
ROOT
HETATM    1  S1  UNK     1      17.958  -0.885  37.284  1.00  0.00    -0.082 SA
HETATM    2  C1  UNK     1      19.469  -2.891  36.742  1.00  0.00    -0.000 A 
HETATM    3  C3  UNK     1      19.720  -1.921  35.728  1.00  0.00     0.085 A 
HETATM    4  C4  UNK     1      18.966  -0.807  35.919  1.00  0.00     0.094 A 
HETATM    5  C8  UNK     1      18.531  -2.457  37.653  1.00  0.00     0.065 A 
ENDROOT
BRANCH   4   6
HETATM    6  N1  UNK     1      18.893   0.375  35.177  1.00  0.00    -0.316 N 
HETATM    7  C16 UNK     1      18.021   0.628  34.127  1.00  0.00     0.262 C 
HETATM    8  O4  UNK     1      17.162  -0.110  33.648  1.00  0.00    -0.267 OA
HETATM    9  H8  UNK     1      19.538   1.101  35.473  1.00  0.00     0.169 HD
BRANCH   7  10
HETATM   10  C13 UNK     1      18.213   1.973  33.570  1.00  0.00     0.108 A 
HETATM   11  C15 UNK     1      18.359   2.046  32.241  1.00  0.00     0.037 A 
HETATM   12  C12 UNK     1      18.556   3.335  31.595  1.00  0.00     0.002 A 
HETATM   13  C14 UNK     1      18.590   4.482  32.381  1.00  0.00     0.123 A 
HETATM   14  C19 UNK     1      18.710   3.459  30.213  1.00  0.00     0.014 A 
HETATM   15  O1  UNK     1      18.436   4.399  33.778  1.00  0.00    -0.271 OA
HETATM   16  C18 UNK     1      18.774   5.747  31.824  1.00  0.00     0.102 A 
HETATM   17  C20 UNK     1      18.246   3.180  34.425  1.00  0.00     0.304 A 
HETATM   18  O6  UNK     1      18.113   3.116  35.642  1.00  0.00    -0.259 OA
HETATM   19  C22 UNK     1      18.928   5.862  30.445  1.00  0.00     0.040 A 
HETATM   20  C23 UNK     1      18.896   4.721  29.640  1.00  0.00     0.004 A 
BRANCH  16  21
HETATM   21  O3  UNK     1      18.806   6.860  32.604  1.00  0.00    -0.353 OA
HETATM   22  C25 UNK     1      17.626   7.661  32.644  1.00  0.00     0.210 C 
ENDBRANCH  16  21
ENDBRANCH   7  10
ENDBRANCH   4   6
BRANCH   3  23
HETATM   23  C17 UNK     1      20.647  -2.073  34.633  1.00  0.00     0.296 C 
HETATM   24  O5  UNK     1      21.877  -2.128  34.771  1.00  0.00    -0.259 OA
BRANCH  23  25
HETATM   25  O2  UNK     1      20.042  -2.155  33.398  1.00  0.00    -0.322 OA
HETATM   26  C24 UNK     1      20.890  -2.443  32.280  1.00  0.00     0.213 C 
ENDBRANCH  23  25
ENDBRANCH   3  23
BRANCH   2  27
HETATM   27  C2  UNK     1      20.068  -4.192  36.884  1.00  0.00    -0.024 A 
HETATM   28  C6  UNK     1      21.107  -4.382  37.793  1.00  0.00     0.013 A 
HETATM   29  C10 UNK     1      21.688  -5.642  37.931  1.00  0.00     0.008 A 
HETATM   30  C5  UNK     1      21.230  -6.709  37.159  1.00  0.00    -0.059 A 
HETATM   31  C11 UNK     1      20.192  -6.516  36.248  1.00  0.00     0.008 A 
HETATM   32  C7  UNK     1      19.610  -5.256  36.111  1.00  0.00     0.013 A 
BRANCH  30  33
HETATM   33  C9  UNK     1      21.853  -8.057  37.305  1.00  0.00     0.034 C 
HETATM   34  C21 UNK     1      21.804  -8.863  36.011  1.00  0.00     0.010 C 
ENDBRANCH  30  33
ENDBRANCH   2  27
TORSDOF 7
ENDMDL
MODEL 3
REMARK VINA RESULT:      -9.1      7.122     10.725
REMARK  7 active torsions:
REMARK  status: ('A' for Active; 'I' for Inactive)
REMARK    1  A    between atoms: C17_25  and  O2_3 
REMARK    2  A    between atoms: C18_26  and  O3_4 
REMARK       I    between atoms: C16_24  and  N1_8 
REMARK    3  A    between atoms: C4_12  and  N1_8 
REMARK    4  A    between atoms: C1_9  and  C2_10 
REMARK    5  A    between atoms: C17_25  and  C3_11 
REMARK    6  A    between atoms: C5_13  and  C9_17 
REMARK    7  A    between atoms: C13_21  and  C16_24 
ROOT
HETATM    1  S1  UNK     1      19.468   8.506  34.301  1.00  0.00    -0.082 SA
HETATM    2  C1  UNK     1      18.636   6.679  32.699  1.00  0.00    -0.000 A 
HETATM    3  C3  UNK     1      17.676   7.729  32.633  1.00  0.00     0.085 A 
HETATM    4  C4  UNK     1      18.020   8.759  33.450  1.00  0.00     0.094 A 
HETATM    5  C8  UNK     1      19.664   6.971  33.569  1.00  0.00     0.065 A 
ENDROOT
BRANCH   4   6
HETATM    6  N1  UNK     1      17.375   9.975  33.695  1.00  0.00    -0.316 N 
HETATM    7  C16 UNK     1      16.326  10.180  34.580  1.00  0.00     0.262 C 
HETATM    8  O4  UNK     1      15.765   9.363  35.307  1.00  0.00    -0.267 OA
HETATM    9  H8  UNK     1      17.748  10.763  33.176  1.00  0.00     0.169 HD
BRANCH   7  10
HETATM   10  C13 UNK     1      15.887  11.581  34.591  1.00  0.00     0.108 A 
HETATM   11  C15 UNK     1      14.577  11.791  34.410  1.00  0.00     0.037 A 
HETATM   12  C12 UNK     1      14.046  13.145  34.404  1.00  0.00     0.002 A 
HETATM   13  C14 UNK     1      14.920  14.211  34.588  1.00  0.00     0.123 A 
HETATM   14  C19 UNK     1      12.687  13.411  34.221  1.00  0.00     0.014 A 
HETATM   15  O1  UNK     1      16.297  13.984  34.778  1.00  0.00    -0.271 OA
HETATM   16  C18 UNK     1      14.475  15.532  34.594  1.00  0.00     0.102 A 
HETATM   17  C20 UNK     1      16.835  12.700  34.789  1.00  0.00     0.304 A 
HETATM   18  O6  UNK     1      18.035  12.511  34.956  1.00  0.00    -0.259 OA
HETATM   19  C22 UNK     1      13.119  15.789  34.409  1.00  0.00     0.040 A 
HETATM   20  C23 UNK     1      12.226  14.731  34.223  1.00  0.00     0.004 A 
BRANCH  16  21
HETATM   21  O3  UNK     1      15.341  16.565  34.774  1.00  0.00    -0.353 OA
HETATM   22  C25 UNK     1      15.743  17.289  33.611  1.00  0.00     0.210 C 
ENDBRANCH  16  21
ENDBRANCH   7  10
ENDBRANCH   4   6
BRANCH   3  23
HETATM   23  C17 UNK     1      16.486   7.728  31.817  1.00  0.00     0.296 C 
HETATM   24  O5  UNK     1      16.313   8.482  30.849  1.00  0.00    -0.259 OA
BRANCH  23  25
HETATM   25  O2  UNK     1      15.541   6.806  32.208  1.00  0.00    -0.322 OA
HETATM   26  C24 UNK     1      14.199   7.280  32.362  1.00  0.00     0.213 C 
ENDBRANCH  23  25
ENDBRANCH   3  23
BRANCH   2  27
HETATM   27  C2  UNK     1      18.624   5.428  31.985  1.00  0.00    -0.024 A 
HETATM   28  C6  UNK     1      19.049   5.383  30.659  1.00  0.00     0.013 A 
HETATM   29  C10 UNK     1      19.037   4.171  29.967  1.00  0.00     0.008 A 
HETATM   30  C5  UNK     1      18.600   3.010  30.603  1.00  0.00    -0.059 A 
HETATM   31  C11 UNK     1      18.174   3.059  31.930  1.00  0.00     0.008 A 
HETATM   32  C7  UNK     1      18.187   4.270  32.622  1.00  0.00     0.013 A 
BRANCH  30  33
HETATM   33  C9  UNK     1      18.586   1.715  29.863  1.00  0.00     0.034 C 
HETATM   34  C21 UNK     1      17.887   1.826  28.511  1.00  0.00     0.010 C 
ENDBRANCH  30  33
ENDBRANCH   2  27
TORSDOF 7
ENDMDL
MODEL 4
REMARK VINA RESULT:      -9.0      2.462     10.438
REMARK  7 active torsions:
REMARK  status: ('A' for Active; 'I' for Inactive)
REMARK    1  A    between atoms: C17_25  and  O2_3 
REMARK    2  A    between atoms: C18_26  and  O3_4 
REMARK       I    between atoms: C16_24  and  N1_8 
REMARK    3  A    between atoms: C4_12  and  N1_8 
REMARK    4  A    between atoms: C1_9  and  C2_10 
REMARK    5  A    between atoms: C17_25  and  C3_11 
REMARK    6  A    between atoms: C5_13  and  C9_17 
REMARK    7  A    between atoms: C13_21  and  C16_24 
ROOT
HETATM    1  S1  UNK     1      18.018  -1.129  37.524  1.00  0.00    -0.082 SA
HETATM    2  C1  UNK     1      18.346   0.226  35.366  1.00  0.00    -0.000 A 
HETATM    3  C3  UNK     1      18.802  -1.092  35.078  1.00  0.00     0.085 A 
HETATM    4  C4  UNK     1      18.673  -1.903  36.161  1.00  0.00     0.094 A 
HETATM    5  C8  UNK     1      17.893   0.345  36.662  1.00  0.00     0.065 A 
ENDROOT
BRANCH   4   6
HETATM    6  N1  UNK     1      18.992  -3.254  36.324  1.00  0.00    -0.316 N 
HETATM    7  C16 UNK     1      20.037  -3.762  37.082  1.00  0.00     0.262 C 
HETATM    8  O4  UNK     1      20.873  -3.149  37.744  1.00  0.00    -0.267 OA
HETATM    9  H8  UNK     1      18.367  -3.897  35.846  1.00  0.00     0.169 HD
BRANCH   7  10
HETATM   10  C13 UNK     1      20.085  -5.228  37.035  1.00  0.00     0.108 A 
HETATM   11  C15 UNK     1      20.020  -5.859  38.213  1.00  0.00     0.037 A 
HETATM   12  C12 UNK     1      20.061  -7.313  38.270  1.00  0.00     0.002 A 
HETATM   13  C14 UNK     1      20.169  -8.029  37.082  1.00  0.00     0.123 A 
HETATM   14  C19 UNK     1      19.993  -8.013  39.476  1.00  0.00     0.014 A 
HETATM   15  O1  UNK     1      20.238  -7.359  35.845  1.00  0.00    -0.271 OA
HETATM   16  C18 UNK     1      20.213  -9.422  37.067  1.00  0.00     0.102 A 
HETATM   17  C20 UNK     1      20.201  -5.970  35.759  1.00  0.00     0.304 A 
HETATM   18  O6  UNK     1      20.261  -5.394  34.678  1.00  0.00    -0.259 OA
HETATM   19  C22 UNK     1      20.145 -10.113  38.274  1.00  0.00     0.040 A 
HETATM   20  C23 UNK     1      20.036  -9.411  39.477  1.00  0.00     0.004 A 
BRANCH  16  21
HETATM   21  O3  UNK     1      20.319 -10.110  35.899  1.00  0.00    -0.353 OA
HETATM   22  C25 UNK     1      21.596 -10.666  35.585  1.00  0.00     0.210 C 
ENDBRANCH  16  21
ENDBRANCH   7  10
ENDBRANCH   4   6
BRANCH   3  23
HETATM   23  C17 UNK     1      19.335  -1.538  33.813  1.00  0.00     0.296 C 
HETATM   24  O5  UNK     1      18.687  -1.552  32.757  1.00  0.00    -0.259 OA
BRANCH  23  25
HETATM   25  O2  UNK     1      20.646  -1.954  33.876  1.00  0.00    -0.322 OA
HETATM   26  C24 UNK     1      21.171  -2.615  32.718  1.00  0.00     0.213 C 
ENDBRANCH  23  25
ENDBRANCH   3  23
BRANCH   2  27
HETATM   27  C2  UNK     1      18.321   1.363  34.483  1.00  0.00    -0.024 A 
HETATM   28  C6  UNK     1      18.243   1.168  33.105  1.00  0.00     0.013 A 
HETATM   29  C10 UNK     1      18.219   2.269  32.249  1.00  0.00     0.008 A 
HETATM   30  C5  UNK     1      18.274   3.561  32.772  1.00  0.00    -0.059 A 
HETATM   31  C11 UNK     1      18.354   3.752  34.151  1.00  0.00     0.008 A 
HETATM   32  C7  UNK     1      18.377   2.651  35.008  1.00  0.00     0.013 A 
BRANCH  30  33
HETATM   33  C9  UNK     1      18.250   4.738  31.856  1.00  0.00     0.034 C 
HETATM   34  C21 UNK     1      19.021   4.483  30.563  1.00  0.00     0.010 C 
ENDBRANCH  30  33
ENDBRANCH   2  27
TORSDOF 7
ENDMDL
MODEL 5
REMARK VINA RESULT:      -8.9      7.259     10.891
REMARK  7 active torsions:
REMARK  status: ('A' for Active; 'I' for Inactive)
REMARK    1  A    between atoms: C17_25  and  O2_3 
REMARK    2  A    between atoms: C18_26  and  O3_4 
REMARK       I    between atoms: C16_24  and  N1_8 
REMARK    3  A    between atoms: C4_12  and  N1_8 
REMARK    4  A    between atoms: C1_9  and  C2_10 
REMARK    5  A    between atoms: C17_25  and  C3_11 
REMARK    6  A    between atoms: C5_13  and  C9_17 
REMARK    7  A    between atoms: C13_21  and  C16_24 
ROOT
HETATM    1  S1  UNK     1      19.160   8.785  34.282  1.00  0.00    -0.082 SA
HETATM    2  C1  UNK     1      18.475   6.907  32.668  1.00  0.00    -0.000 A 
HETATM    3  C3  UNK     1      17.453   7.896  32.581  1.00  0.00     0.085 A 
HETATM    4  C4  UNK     1      17.716   8.946  33.402  1.00  0.00     0.094 A 
HETATM    5  C8  UNK     1      19.465   7.263  33.558  1.00  0.00     0.065 A 
ENDROOT
BRANCH   4   6
HETATM    6  N1  UNK     1      16.993  10.121  33.631  1.00  0.00    -0.316 N 
HETATM    7  C16 UNK     1      16.023  10.306  34.606  1.00  0.00     0.262 C 
HETATM    8  O4  UNK     1      15.612   9.503  35.441  1.00  0.00    -0.267 OA
HETATM    9  H8  UNK     1      17.241  10.895  33.023  1.00  0.00     0.169 HD
BRANCH   7  10
HETATM   10  C13 UNK     1      15.464  11.663  34.568  1.00  0.00     0.108 A 
HETATM   11  C15 UNK     1      15.866  12.495  35.537  1.00  0.00     0.037 A 
HETATM   12  C12 UNK     1      15.365  13.860  35.585  1.00  0.00     0.002 A 
HETATM   13  C14 UNK     1      14.466  14.281  34.611  1.00  0.00     0.123 A 
HETATM   14  C19 UNK     1      15.759  14.763  36.575  1.00  0.00     0.014 A 
HETATM   15  O1  UNK     1      14.046  13.401  33.595  1.00  0.00    -0.271 OA
HETATM   16  C18 UNK     1      13.950  15.576  34.601  1.00  0.00     0.102 A 
HETATM   17  C20 UNK     1      14.508  12.089  33.522  1.00  0.00     0.304 A 
HETATM   18  O6  UNK     1      14.138  11.330  32.634  1.00  0.00    -0.259 OA
HETATM   19  C22 UNK     1      14.346  16.470  35.592  1.00  0.00     0.040 A 
HETATM   20  C23 UNK     1      15.249  16.065  36.578  1.00  0.00     0.004 A 
BRANCH  16  21
HETATM   21  O3  UNK     1      13.071  15.975  33.643  1.00  0.00    -0.353 OA
HETATM   22  C25 UNK     1      11.681  15.864  33.948  1.00  0.00     0.210 C 
ENDBRANCH  16  21
ENDBRANCH   7  10
ENDBRANCH   4   6
BRANCH   3  23
HETATM   23  C17 UNK     1      16.282   7.821  31.741  1.00  0.00     0.296 C 
HETATM   24  O5  UNK     1      16.103   8.531  30.741  1.00  0.00    -0.259 OA
BRANCH  23  25
HETATM   25  O2  UNK     1      15.363   6.879  32.147  1.00  0.00    -0.322 OA
HETATM   26  C24 UNK     1      14.066   7.360  32.519  1.00  0.00     0.213 C 
ENDBRANCH  23  25
ENDBRANCH   3  23
BRANCH   2  27
HETATM   27  C2  UNK     1      18.554   5.658  31.958  1.00  0.00    -0.024 A 
HETATM   28  C6  UNK     1      19.061   5.629  30.660  1.00  0.00     0.013 A 
HETATM   29  C10 UNK     1      19.138   4.418  29.971  1.00  0.00     0.008 A 
HETATM   30  C5  UNK     1      18.708   3.241  30.581  1.00  0.00    -0.059 A 
HETATM   31  C11 UNK     1      18.200   3.273  31.879  1.00  0.00     0.008 A 
HETATM   32  C7  UNK     1      18.123   4.483  32.569  1.00  0.00     0.013 A 
BRANCH  30  33
HETATM   33  C9  UNK     1      18.789   1.946  29.844  1.00  0.00     0.034 C 
HETATM   34  C21 UNK     1      17.874   1.915  28.623  1.00  0.00     0.010 C 
ENDBRANCH  30  33
ENDBRANCH   2  27
TORSDOF 7
ENDMDL
MODEL 6
REMARK VINA RESULT:      -8.9      3.682     11.289
REMARK  7 active torsions:
REMARK  status: ('A' for Active; 'I' for Inactive)
REMARK    1  A    between atoms: C17_25  and  O2_3 
REMARK    2  A    between atoms: C18_26  and  O3_4 
REMARK       I    between atoms: C16_24  and  N1_8 
REMARK    3  A    between atoms: C4_12  and  N1_8 
REMARK    4  A    between atoms: C1_9  and  C2_10 
REMARK    5  A    between atoms: C17_25  and  C3_11 
REMARK    6  A    between atoms: C5_13  and  C9_17 
REMARK    7  A    between atoms: C13_21  and  C16_24 
ROOT
HETATM    1  S1  UNK     1      15.400   6.537  31.963  1.00  0.00    -0.082 SA
HETATM    2  C1  UNK     1      16.693   8.438  33.109  1.00  0.00    -0.000 A 
HETATM    3  C3  UNK     1      17.554   7.303  33.135  1.00  0.00     0.085 A 
HETATM    4  C4  UNK     1      16.965   6.228  32.548  1.00  0.00     0.094 A 
HETATM    5  C8  UNK     1      15.488   8.160  32.500  1.00  0.00     0.065 A 
ENDROOT
BRANCH   4   6
HETATM    6  N1  UNK     1      17.440   4.928  32.355  1.00  0.00    -0.316 N 
HETATM    7  C16 UNK     1      18.230   4.495  31.300  1.00  0.00     0.262 C 
HETATM    8  O4  UNK     1      18.660   5.142  30.347  1.00  0.00    -0.267 OA
HETATM    9  H8  UNK     1      17.181   4.270  33.085  1.00  0.00     0.169 HD
BRANCH   7  10
HETATM   10  C13 UNK     1      18.549   3.066  31.407  1.00  0.00     0.108 A 
HETATM   11  C15 UNK     1      19.024   2.482  30.300  1.00  0.00     0.037 A 
HETATM   12  C12 UNK     1      19.369   1.068  30.307  1.00  0.00     0.002 A 
HETATM   13  C14 UNK     1      19.195   0.339  31.479  1.00  0.00     0.123 A 
HETATM   14  C19 UNK     1      19.869   0.418  29.177  1.00  0.00     0.014 A 
HETATM   15  O1  UNK     1      18.694   0.959  32.641  1.00  0.00    -0.271 OA
HETATM   16  C18 UNK     1      19.506  -1.017  31.552  1.00  0.00     0.102 A 
HETATM   17  C20 UNK     1      18.356   2.310  32.665  1.00  0.00     0.304 A 
HETATM   18  O6  UNK     1      17.921   2.842  33.680  1.00  0.00    -0.259 OA
HETATM   19  C22 UNK     1      20.004  -1.658  30.421  1.00  0.00     0.040 A 
HETATM   20  C23 UNK     1      20.186  -0.943  29.235  1.00  0.00     0.004 A 
BRANCH  16  21
HETATM   21  O3  UNK     1      19.331  -1.718  32.704  1.00  0.00    -0.353 OA
HETATM   22  C25 UNK     1      20.449  -2.459  33.192  1.00  0.00     0.210 C 
ENDBRANCH  16  21
ENDBRANCH   7  10
ENDBRANCH   4   6
BRANCH   3  23
HETATM   23  C17 UNK     1      18.881   7.269  33.701  1.00  0.00     0.296 C 
HETATM   24  O5  UNK     1      19.112   7.276  34.918  1.00  0.00    -0.259 OA
BRANCH  23  25
HETATM   25  O2  UNK     1      19.887   7.227  32.761  1.00  0.00    -0.322 OA
HETATM   26  C24 UNK     1      20.939   6.280  32.982  1.00  0.00     0.213 C 
ENDBRANCH  23  25
ENDBRANCH   3  23
BRANCH   2  27
HETATM   27  C2  UNK     1      16.956   9.755  33.628  1.00  0.00    -0.024 A 
HETATM   28  C6  UNK     1      18.258  10.251  33.634  1.00  0.00     0.013 A 
HETATM   29  C10 UNK     1      18.513  11.527  34.137  1.00  0.00     0.008 A 
HETATM   30  C5  UNK     1      17.466  12.302  34.634  1.00  0.00    -0.059 A 
HETATM   31  C11 UNK     1      16.164  11.802  34.628  1.00  0.00     0.008 A 
HETATM   32  C7  UNK     1      15.909  10.527  34.124  1.00  0.00     0.013 A 
BRANCH  30  33
HETATM   33  C9  UNK     1      17.739  13.666  35.174  1.00  0.00     0.034 C 
HETATM   34  C21 UNK     1      18.455  14.557  34.164  1.00  0.00     0.010 C 
ENDBRANCH  30  33
ENDBRANCH   2  27
TORSDOF 7
ENDMDL
MODEL 7
REMARK VINA RESULT:      -8.6      2.138      3.115
REMARK  7 active torsions:
REMARK  status: ('A' for Active; 'I' for Inactive)
REMARK    1  A    between atoms: C17_25  and  O2_3 
REMARK    2  A    between atoms: C18_26  and  O3_4 
REMARK       I    between atoms: C16_24  and  N1_8 
REMARK    3  A    between atoms: C4_12  and  N1_8 
REMARK    4  A    between atoms: C1_9  and  C2_10 
REMARK    5  A    between atoms: C17_25  and  C3_11 
REMARK    6  A    between atoms: C5_13  and  C9_17 
REMARK    7  A    between atoms: C13_21  and  C16_24 
ROOT
HETATM    1  S1  UNK     1      20.479  -2.646  33.577  1.00  0.00    -0.082 SA
HETATM    2  C1  UNK     1      19.914  -3.874  35.761  1.00  0.00    -0.000 A 
HETATM    3  C3  UNK     1      19.439  -2.540  35.923  1.00  0.00     0.085 A 
HETATM    4  C4  UNK     1      19.688  -1.794  34.815  1.00  0.00     0.094 A 
HETATM    5  C8  UNK     1      20.502  -4.068  34.530  1.00  0.00     0.065 A 
ENDROOT
BRANCH   4   6
HETATM    6  N1  UNK     1      19.399  -0.454  34.542  1.00  0.00    -0.316 N 
HETATM    7  C16 UNK     1      18.224   0.031  33.985  1.00  0.00     0.262 C 
HETATM    8  O4  UNK     1      17.228  -0.596  33.628  1.00  0.00    -0.267 OA
HETATM    9  H8  UNK     1      20.129   0.199  34.807  1.00  0.00     0.169 HD
BRANCH   7  10
HETATM   10  C13 UNK     1      18.252   1.491  33.835  1.00  0.00     0.108 A 
HETATM   11  C15 UNK     1      18.315   1.954  32.581  1.00  0.00     0.037 A 
HETATM   12  C12 UNK     1      18.349   3.387  32.330  1.00  0.00     0.002 A 
HETATM   13  C14 UNK     1      18.315   4.261  33.412  1.00  0.00     0.123 A 
HETATM   14  C19 UNK     1      18.413   3.916  31.039  1.00  0.00     0.014 A 
HETATM   15  O1  UNK     1      18.249   3.767  34.729  1.00  0.00    -0.271 OA
HETATM   16  C18 UNK     1      18.344   5.643  33.240  1.00  0.00     0.102 A 
HETATM   17  C20 UNK     1      18.215   2.401  35.001  1.00  0.00     0.304 A 
HETATM   18  O6  UNK     1      18.157   1.979  36.151  1.00  0.00    -0.259 OA
HETATM   19  C22 UNK     1      18.408   6.163  31.949  1.00  0.00     0.040 A 
HETATM   20  C23 UNK     1      18.443   5.301  30.850  1.00  0.00     0.004 A 
BRANCH  16  21
HETATM   21  O3  UNK     1      18.311   6.486  34.307  1.00  0.00    -0.353 OA
HETATM   22  C25 UNK     1      17.099   7.206  34.531  1.00  0.00     0.210 C 
ENDBRANCH  16  21
ENDBRANCH   7  10
ENDBRANCH   4   6
BRANCH   3  23
HETATM   23  C17 UNK     1      18.778  -2.022  37.096  1.00  0.00     0.296 C 
HETATM   24  O5  UNK     1      19.306  -1.957  38.215  1.00  0.00    -0.259 OA
BRANCH  23  25
HETATM   25  O2  UNK     1      17.487  -1.597  36.867  1.00  0.00    -0.322 OA
HETATM   26  C24 UNK     1      17.060  -0.422  37.565  1.00  0.00     0.213 C 
ENDBRANCH  23  25
ENDBRANCH   3  23
BRANCH   2  27
HETATM   27  C2  UNK     1      19.837  -4.957  36.707  1.00  0.00    -0.024 A 
HETATM   28  C6  UNK     1      20.822  -5.096  37.683  1.00  0.00     0.013 A 
HETATM   29  C10 UNK     1      20.748  -6.145  38.599  1.00  0.00     0.008 A 
HETATM   30  C5  UNK     1      19.692  -7.053  38.536  1.00  0.00    -0.059 A 
HETATM   31  C11 UNK     1      18.709  -6.913  37.557  1.00  0.00     0.008 A 
HETATM   32  C7  UNK     1      18.782  -5.863  36.641  1.00  0.00     0.013 A 
BRANCH  30  33
HETATM   33  C9  UNK     1      19.614  -8.177  39.515  1.00  0.00     0.034 C 
HETATM   34  C21 UNK     1      20.776  -9.155  39.368  1.00  0.00     0.010 C 
ENDBRANCH  30  33
ENDBRANCH   2  27
TORSDOF 7
ENDMDL
MODEL 8
REMARK VINA RESULT:      -8.3      4.270     11.570
REMARK  7 active torsions:
REMARK  status: ('A' for Active; 'I' for Inactive)
REMARK    1  A    between atoms: C17_25  and  O2_3 
REMARK    2  A    between atoms: C18_26  and  O3_4 
REMARK       I    between atoms: C16_24  and  N1_8 
REMARK    3  A    between atoms: C4_12  and  N1_8 
REMARK    4  A    between atoms: C1_9  and  C2_10 
REMARK    5  A    between atoms: C17_25  and  C3_11 
REMARK    6  A    between atoms: C5_13  and  C9_17 
REMARK    7  A    between atoms: C13_21  and  C16_24 
ROOT
HETATM    1  S1  UNK     1      15.088   7.324  31.571  1.00  0.00    -0.082 SA
HETATM    2  C1  UNK     1      15.672   8.955  33.468  1.00  0.00    -0.000 A 
HETATM    3  C3  UNK     1      16.499   7.811  33.662  1.00  0.00     0.085 A 
HETATM    4  C4  UNK     1      16.271   6.874  32.704  1.00  0.00     0.094 A 
HETATM    5  C8  UNK     1      14.855   8.823  32.366  1.00  0.00     0.065 A 
ENDROOT
BRANCH   4   6
HETATM    6  N1  UNK     1      16.851   5.617  32.511  1.00  0.00    -0.316 N 
HETATM    7  C16 UNK     1      17.907   5.327  31.660  1.00  0.00     0.262 C 
HETATM    8  O4  UNK     1      18.532   6.089  30.924  1.00  0.00    -0.267 OA
HETATM    9  H8  UNK     1      16.450   4.875  33.076  1.00  0.00     0.169 HD
BRANCH   7  10
HETATM   10  C13 UNK     1      18.267   3.904  31.700  1.00  0.00     0.108 A 
HETATM   11  C15 UNK     1      18.615   3.349  30.533  1.00  0.00     0.037 A 
HETATM   12  C12 UNK     1      18.987   1.944  30.471  1.00  0.00     0.002 A 
HETATM   13  C14 UNK     1      18.972   1.192  31.642  1.00  0.00     0.123 A 
HETATM   14  C19 UNK     1      19.359   1.323  29.277  1.00  0.00     0.014 A 
HETATM   15  O1  UNK     1      18.604   1.781  32.867  1.00  0.00    -0.271 OA
HETATM   16  C18 UNK     1      19.317  -0.158  31.651  1.00  0.00     0.102 A 
HETATM   17  C20 UNK     1      18.244   3.124  32.957  1.00  0.00     0.304 A 
HETATM   18  O6  UNK     1      17.925   3.629  34.028  1.00  0.00    -0.259 OA
HETATM   19  C22 UNK     1      19.687  -0.770  30.455  1.00  0.00     0.040 A 
HETATM   20  C23 UNK     1      19.708  -0.031  29.270  1.00  0.00     0.004 A 
BRANCH  16  21
HETATM   21  O3  UNK     1      19.298  -0.881  32.802  1.00  0.00    -0.353 OA
HETATM   22  C25 UNK     1      20.046  -2.097  32.821  1.00  0.00     0.210 C 
ENDBRANCH  16  21
ENDBRANCH   7  10
ENDBRANCH   4   6
BRANCH   3  23
HETATM   23  C17 UNK     1      17.461   7.641  34.724  1.00  0.00     0.296 C 
HETATM   24  O5  UNK     1      17.198   7.797  35.925  1.00  0.00    -0.259 OA
BRANCH  23  25
HETATM   25  O2  UNK     1      18.717   7.283  34.287  1.00  0.00    -0.322 OA
HETATM   26  C24 UNK     1      19.675   8.338  34.140  1.00  0.00     0.213 C 
ENDBRANCH  23  25
ENDBRANCH   3  23
BRANCH   2  27
HETATM   27  C2  UNK     1      15.621  10.150  34.269  1.00  0.00    -0.024 A 
HETATM   28  C6  UNK     1      14.565  10.345  35.157  1.00  0.00     0.013 A 
HETATM   29  C10 UNK     1      14.515  11.503  35.933  1.00  0.00     0.008 A 
HETATM   30  C5  UNK     1      15.519  12.463  35.818  1.00  0.00    -0.059 A 
HETATM   31  C11 UNK     1      16.574  12.266  34.927  1.00  0.00     0.008 A 
HETATM   32  C7  UNK     1      16.625  11.108  34.152  1.00  0.00     0.013 A 
BRANCH  30  33
HETATM   33  C9  UNK     1      15.464  13.703  36.647  1.00  0.00     0.034 C 
HETATM   34  C21 UNK     1      15.094  13.414  38.099  1.00  0.00     0.010 C 
ENDBRANCH  30  33
ENDBRANCH   2  27
TORSDOF 7
ENDMDL
MODEL 9
REMARK VINA RESULT:      -8.3      9.689     12.813
REMARK  7 active torsions:
REMARK  status: ('A' for Active; 'I' for Inactive)
REMARK    1  A    between atoms: C17_25  and  O2_3 
REMARK    2  A    between atoms: C18_26  and  O3_4 
REMARK       I    between atoms: C16_24  and  N1_8 
REMARK    3  A    between atoms: C4_12  and  N1_8 
REMARK    4  A    between atoms: C1_9  and  C2_10 
REMARK    5  A    between atoms: C17_25  and  C3_11 
REMARK    6  A    between atoms: C5_13  and  C9_17 
REMARK    7  A    between atoms: C13_21  and  C16_24 
ROOT
HETATM    1  S1  UNK     1      27.383 -10.250  39.154  1.00  0.00    -0.082 SA
HETATM    2  C1  UNK     1      29.186  -8.636  38.293  1.00  0.00    -0.000 A 
HETATM    3  C3  UNK     1      27.944  -8.134  37.810  1.00  0.00     0.085 A 
HETATM    4  C4  UNK     1      26.910  -8.920  38.210  1.00  0.00     0.094 A 
HETATM    5  C8  UNK     1      29.026  -9.784  39.039  1.00  0.00     0.065 A 
ENDROOT
BRANCH   4   6
HETATM    6  N1  UNK     1      25.538  -8.803  37.968  1.00  0.00    -0.316 N 
HETATM    7  C16 UNK     1      24.803  -9.548  37.056  1.00  0.00     0.262 C 
HETATM    8  O4  UNK     1      25.193 -10.433  36.297  1.00  0.00    -0.267 OA
HETATM    9  H8  UNK     1      25.063  -8.116  38.545  1.00  0.00     0.169 HD
BRANCH   7  10
HETATM   10  C13 UNK     1      23.385  -9.168  37.058  1.00  0.00     0.108 A 
HETATM   11  C15 UNK     1      23.007  -8.297  38.001  1.00  0.00     0.037 A 
HETATM   12  C12 UNK     1      21.621  -7.862  38.084  1.00  0.00     0.002 A 
HETATM   13  C14 UNK     1      20.702  -8.366  37.170  1.00  0.00     0.123 A 
HETATM   14  C19 UNK     1      21.183  -6.953  39.050  1.00  0.00     0.014 A 
HETATM   15  O1  UNK     1      21.105  -9.282  36.179  1.00  0.00    -0.271 OA
HETATM   16  C18 UNK     1      19.361  -7.988  37.195  1.00  0.00     0.102 A 
HETATM   17  C20 UNK     1      22.424  -9.717  36.075  1.00  0.00     0.304 A 
HETATM   18  O6  UNK     1      22.767 -10.515  35.209  1.00  0.00    -0.259 OA
HETATM   19  C22 UNK     1      18.931  -7.082  38.162  1.00  0.00     0.040 A 
HETATM   20  C23 UNK     1      19.840  -6.566  39.088  1.00  0.00     0.004 A 
BRANCH  16  21
HETATM   21  O3  UNK     1      18.472  -8.489  36.296  1.00  0.00    -0.353 OA
HETATM   22  C25 UNK     1      17.772  -7.550  35.480  1.00  0.00     0.210 C 
ENDBRANCH  16  21
ENDBRANCH   7  10
ENDBRANCH   4   6
BRANCH   3  23
HETATM   23  C17 UNK     1      27.774  -6.952  37.001  1.00  0.00     0.296 C 
HETATM   24  O5  UNK     1      28.330  -6.778  35.907  1.00  0.00    -0.259 OA
BRANCH  23  25
HETATM   25  O2  UNK     1      26.929  -6.015  37.553  1.00  0.00    -0.322 OA
HETATM   26  C24 UNK     1      27.446  -5.239  38.640  1.00  0.00     0.213 C 
ENDBRANCH  23  25
ENDBRANCH   3  23
BRANCH   2  27
HETATM   27  C2  UNK     1      30.500  -8.086  38.083  1.00  0.00    -0.024 A 
HETATM   28  C6  UNK     1      30.786  -6.791  38.511  1.00  0.00     0.013 A 
HETATM   29  C10 UNK     1      32.059  -6.258  38.307  1.00  0.00     0.008 A 
HETATM   30  C5  UNK     1      33.042  -7.020  37.676  1.00  0.00    -0.059 A 
HETATM   31  C11 UNK     1      32.752  -8.316  37.248  1.00  0.00     0.008 A 
HETATM   32  C7  UNK     1      31.480  -8.849  37.453  1.00  0.00     0.013 A 
BRANCH  30  33
HETATM   33  C9  UNK     1      34.402  -6.449  37.457  1.00  0.00     0.034 C 
HETATM   34  C21 UNK     1      34.855  -6.567  36.005  1.00  0.00     0.010 C 
ENDBRANCH  30  33
ENDBRANCH   2  27
TORSDOF 7
ENDMDL
MODEL 10
REMARK VINA RESULT:      -8.3     10.603     13.835
REMARK  7 active torsions:
REMARK  status: ('A' for Active; 'I' for Inactive)
REMARK    1  A    between atoms: C17_25  and  O2_3 
REMARK    2  A    between atoms: C18_26  and  O3_4 
REMARK       I    between atoms: C16_24  and  N1_8 
REMARK    3  A    between atoms: C4_12  and  N1_8 
REMARK    4  A    between atoms: C1_9  and  C2_10 
REMARK    5  A    between atoms: C17_25  and  C3_11 
REMARK    6  A    between atoms: C5_13  and  C9_17 
REMARK    7  A    between atoms: C13_21  and  C16_24 
ROOT
HETATM    1  S1  UNK     1      28.794  -4.756  38.700  1.00  0.00    -0.082 SA
HETATM    2  C1  UNK     1      30.820  -5.737  37.461  1.00  0.00    -0.000 A 
HETATM    3  C3  UNK     1      29.724  -6.599  37.171  1.00  0.00     0.085 A 
HETATM    4  C4  UNK     1      28.588  -6.171  37.781  1.00  0.00     0.094 A 
HETATM    5  C8  UNK     1      30.454  -4.693  38.283  1.00  0.00     0.065 A 
ENDROOT
BRANCH   4   6
HETATM    6  N1  UNK     1      27.297  -6.706  37.770  1.00  0.00    -0.316 N 
HETATM    7  C16 UNK     1      26.787  -7.628  38.673  1.00  0.00     0.262 C 
HETATM    8  O4  UNK     1      27.346  -8.149  39.637  1.00  0.00    -0.267 OA
HETATM    9  H8  UNK     1      26.698  -6.349  37.032  1.00  0.00     0.169 HD
BRANCH   7  10
HETATM   10  C13 UNK     1      25.394  -7.976  38.370  1.00  0.00     0.108 A 
HETATM   11  C15 UNK     1      24.456  -7.330  39.073  1.00  0.00     0.037 A 
HETATM   12  C12 UNK     1      23.046  -7.607  38.845  1.00  0.00     0.002 A 
HETATM   13  C14 UNK     1      22.694  -8.553  37.888  1.00  0.00     0.123 A 
HETATM   14  C19 UNK     1      22.035  -6.955  39.553  1.00  0.00     0.014 A 
HETATM   15  O1  UNK     1      23.684  -9.231  37.151  1.00  0.00    -0.271 OA
HETATM   16  C18 UNK     1      21.362  -8.865  37.621  1.00  0.00     0.102 A 
HETATM   17  C20 UNK     1      25.042  -8.986  37.347  1.00  0.00     0.304 A 
HETATM   18  O6  UNK     1      25.898  -9.581  36.701  1.00  0.00    -0.259 OA
HETATM   19  C22 UNK     1      20.359  -8.211  38.332  1.00  0.00     0.040 A 
HETATM   20  C23 UNK     1      20.694  -7.258  39.297  1.00  0.00     0.004 A 
BRANCH  16  21
HETATM   21  O3  UNK     1      21.031  -9.792  36.683  1.00  0.00    -0.353 OA
HETATM   22  C25 UNK     1      20.040 -10.756  37.041  1.00  0.00     0.210 C 
ENDBRANCH  16  21
ENDBRANCH   7  10
ENDBRANCH   4   6
BRANCH   3  23
HETATM   23  C17 UNK     1      29.781  -7.778  36.341  1.00  0.00     0.296 C 
HETATM   24  O5  UNK     1      30.077  -7.763  35.138  1.00  0.00    -0.259 OA
BRANCH  23  25
HETATM   25  O2  UNK     1      29.476  -8.945  37.008  1.00  0.00    -0.322 OA
HETATM   26  C24 UNK     1      30.436  -9.415  37.961  1.00  0.00     0.213 C 
ENDBRANCH  23  25
ENDBRANCH   3  23
BRANCH   2  27
HETATM   27  C2  UNK     1      32.180  -5.855  37.003  1.00  0.00    -0.024 A 
HETATM   28  C6  UNK     1      33.066  -6.695  37.674  1.00  0.00     0.013 A 
HETATM   29  C10 UNK     1      34.384  -6.810  37.230  1.00  0.00     0.008 A 
HETATM   30  C5  UNK     1      34.812  -6.084  36.119  1.00  0.00    -0.059 A 
HETATM   31  C11 UNK     1      33.922  -5.243  35.451  1.00  0.00     0.008 A 
HETATM   32  C7  UNK     1      32.604  -5.128  35.894  1.00  0.00     0.013 A 
BRANCH  30  33
HETATM   33  C9  UNK     1      36.221  -6.206  35.647  1.00  0.00     0.034 C 
HETATM   34  C21 UNK     1      36.383  -7.277  34.572  1.00  0.00     0.010 C 
ENDBRANCH  30  33
ENDBRANCH   2  27
TORSDOF 7
ENDMDL
