MODEL 1
REMARK VINA RESULT:      -9.2      0.000      0.000
REMARK  7 active torsions:
REMARK  status: ('A' for Active; 'I' for Inactive)
REMARK    1  A    between atoms: C14_17  and  O1_1 
REMARK    2  A    between atoms: C1_4  and  N1_3 
REMARK    3  A    between atoms: C2_5  and  N1_3 
REMARK    4  A    between atoms: C3_6  and  N1_3 
REMARK    5  A    between atoms: C17_20  and  C6_9 
REMARK    6  A    between atoms: C13_16  and  C19_22 
REMARK    7  A    between atoms: C19_22  and  C21_24 
ROOT
HETATM    1  O2  UNK     1      18.071   2.118  28.103  1.00  0.00    -0.287 OA
HETATM    2  C19 UNK     1      18.448   1.977  29.275  1.00  0.00     0.184 C 
ENDROOT
BRANCH   2   3
HETATM    3  C13 UNK     1      19.092   0.743  29.707  1.00  0.00     0.048 A 
HETATM    4  C14 UNK     1      19.055   0.342  31.043  1.00  0.00     0.090 A 
HETATM    5  C7  UNK     1      19.680  -0.849  31.449  1.00  0.00     0.008 A 
HETATM    6  C10 UNK     1      20.351  -1.643  30.489  1.00  0.00    -0.023 A 
HETATM    7  C18 UNK     1      19.653  -1.269  32.790  1.00  0.00     0.015 A 
HETATM    8  C15 UNK     1      20.377  -1.222  29.148  1.00  0.00     0.013 A 
HETATM    9  C20 UNK     1      20.974  -2.832  30.896  1.00  0.00     0.012 A 
HETATM   10  C16 UNK     1      19.751  -0.037  28.761  1.00  0.00     0.019 A 
HETATM   11  C23 UNK     1      20.939  -3.235  32.231  1.00  0.00     0.001 A 
HETATM   12  C22 UNK     1      20.279  -2.455  33.176  1.00  0.00     0.001 A 
BRANCH   4  13
HETATM   13  O1  UNK     1      18.399   1.127  31.949  1.00  0.00    -0.359 OA
HETATM   14  H23 UNK     1      17.689   1.622  31.509  1.00  0.00     0.217 HD
ENDBRANCH   4  13
ENDBRANCH   2   3
BRANCH   2  15
HETATM   15  C21 UNK     1      18.278   3.085  30.274  1.00  0.00     0.056 C 
HETATM   16  C17 UNK     1      19.077   4.162  30.240  1.00  0.00     0.015 C 
BRANCH  16  17
HETATM   17  C6  UNK     1      18.998   5.291  31.183  1.00  0.00    -0.036 A 
HETATM   18  C11 UNK     1      17.768   5.875  31.441  1.00  0.00     0.013 A 
HETATM   19  C4  UNK     1      17.694   6.943  32.334  1.00  0.00     0.030 A 
HETATM   20  C1  UNK     1      18.849   7.413  32.958  1.00  0.00     0.030 A 
HETATM   21  C5  UNK     1      20.081   6.814  32.688  1.00  0.00     0.030 A 
HETATM   22  C12 UNK     1      20.155   5.746  31.795  1.00  0.00     0.013 A 
BRANCH  20  23
HETATM   23  N1  UNK     1      18.774   8.494  33.861  1.00  0.00    -0.382 N 
BRANCH  23  24
HETATM   24  C2  UNK     1      17.699   9.460  33.760  1.00  0.00     0.118 C 
HETATM   25  C8  UNK     1      16.559   9.069  34.681  1.00  0.00     0.026 C 
ENDBRANCH  23  24
BRANCH  23  26
HETATM   26  C3  UNK     1      19.763   8.644  34.911  1.00  0.00     0.118 C 
HETATM   27  C9  UNK     1      20.698   9.792  34.586  1.00  0.00     0.026 C 
ENDBRANCH  23  26
ENDBRANCH  20  23
ENDBRANCH  16  17
ENDBRANCH   2  15
TORSDOF 7
ENDMDL
MODEL 2
REMARK VINA RESULT:      -8.8      6.923     10.332
REMARK  7 active torsions:
REMARK  status: ('A' for Active; 'I' for Inactive)
REMARK    1  A    between atoms: C14_17  and  O1_1 
REMARK    2  A    between atoms: C1_4  and  N1_3 
REMARK    3  A    between atoms: C2_5  and  N1_3 
REMARK    4  A    between atoms: C3_6  and  N1_3 
REMARK    5  A    between atoms: C17_20  and  C6_9 
REMARK    6  A    between atoms: C13_16  and  C19_22 
REMARK    7  A    between atoms: C19_22  and  C21_24 
ROOT
HETATM    1  O2  UNK     1      23.318  -5.375  38.396  1.00  0.00    -0.287 OA
HETATM    2  C19 UNK     1      22.088  -5.428  38.258  1.00  0.00     0.184 C 
ENDROOT
BRANCH   2   3
HETATM    3  C13 UNK     1      21.372  -6.685  38.433  1.00  0.00     0.048 A 
HETATM    4  C14 UNK     1      21.621  -7.777  37.601  1.00  0.00     0.090 A 
HETATM    5  C7  UNK     1      20.925  -8.984  37.777  1.00  0.00     0.008 A 
HETATM    6  C10 UNK     1      19.964  -9.085  38.811  1.00  0.00    -0.023 A 
HETATM    7  C18 UNK     1      21.163 -10.094  36.948  1.00  0.00     0.015 A 
HETATM    8  C15 UNK     1      19.728  -7.976  39.639  1.00  0.00     0.013 A 
HETATM    9  C20 UNK     1      19.270 -10.293  38.987  1.00  0.00     0.012 A 
HETATM   10  C16 UNK     1      20.428  -6.784  39.450  1.00  0.00     0.019 A 
HETATM   11  C23 UNK     1      19.517 -11.385  38.155  1.00  0.00     0.001 A 
HETATM   12  C22 UNK     1      20.462 -11.286  37.138  1.00  0.00     0.001 A 
BRANCH   4  13
HETATM   13  O1  UNK     1      22.555  -7.651  36.610  1.00  0.00    -0.359 OA
HETATM   14  H23 UNK     1      23.379  -7.287  36.974  1.00  0.00     0.217 HD
ENDBRANCH   4  13
ENDBRANCH   2   3
BRANCH   2  15
HETATM   15  C21 UNK     1      21.299  -4.192  37.936  1.00  0.00     0.056 C 
HETATM   16  C17 UNK     1      20.586  -4.114  36.802  1.00  0.00     0.015 C 
BRANCH  16  17
HETATM   17  C6  UNK     1      19.793  -2.942  36.392  1.00  0.00    -0.036 A 
HETATM   18  C11 UNK     1      19.883  -2.483  35.088  1.00  0.00     0.013 A 
HETATM   19  C4  UNK     1      19.132  -1.374  34.701  1.00  0.00     0.030 A 
HETATM   20  C1  UNK     1      18.300  -0.738  35.623  1.00  0.00     0.030 A 
HETATM   21  C5  UNK     1      18.220  -1.212  36.934  1.00  0.00     0.030 A 
HETATM   22  C12 UNK     1      18.971  -2.322  37.320  1.00  0.00     0.013 A 
BRANCH  20  23
HETATM   23  N1  UNK     1      17.541   0.384  35.232  1.00  0.00    -0.382 N 
BRANCH  23  24
HETATM   24  C2  UNK     1      16.110   0.270  35.036  1.00  0.00     0.118 C 
HETATM   25  C8  UNK     1      15.375   0.719  36.285  1.00  0.00     0.026 C 
ENDBRANCH  23  24
BRANCH  23  26
HETATM   26  C3  UNK     1      18.181   1.670  35.034  1.00  0.00     0.118 C 
HETATM   27  C9  UNK     1      18.098   2.076  33.575  1.00  0.00     0.026 C 
ENDBRANCH  23  26
ENDBRANCH  20  23
ENDBRANCH  16  17
ENDBRANCH   2  15
TORSDOF 7
ENDMDL
MODEL 3
REMARK VINA RESULT:      -8.7     11.186     15.368
REMARK  7 active torsions:
REMARK  status: ('A' for Active; 'I' for Inactive)
REMARK    1  A    between atoms: C14_17  and  O1_1 
REMARK    2  A    between atoms: C1_4  and  N1_3 
REMARK    3  A    between atoms: C2_5  and  N1_3 
REMARK    4  A    between atoms: C3_6  and  N1_3 
REMARK    5  A    between atoms: C17_20  and  C6_9 
REMARK    6  A    between atoms: C13_16  and  C19_22 
REMARK    7  A    between atoms: C19_22  and  C21_24 
ROOT
HETATM    1  O2  UNK     1      27.028  -9.740  39.713  1.00  0.00    -0.287 OA
HETATM    2  C19 UNK     1      26.893  -8.700  39.053  1.00  0.00     0.184 C 
ENDROOT
BRANCH   2   3
HETATM    3  C13 UNK     1      28.000  -7.765  38.902  1.00  0.00     0.048 A 
HETATM    4  C14 UNK     1      29.276  -8.211  38.558  1.00  0.00     0.090 A 
HETATM    5  C7  UNK     1      30.338  -7.301  38.415  1.00  0.00     0.008 A 
HETATM    6  C10 UNK     1      30.101  -5.922  38.622  1.00  0.00    -0.023 A 
HETATM    7  C18 UNK     1      31.630  -7.732  38.070  1.00  0.00     0.015 A 
HETATM    8  C15 UNK     1      28.808  -5.491  38.966  1.00  0.00     0.013 A 
HETATM    9  C20 UNK     1      31.162  -5.014  38.478  1.00  0.00     0.012 A 
HETATM   10  C16 UNK     1      27.766  -6.408  39.104  1.00  0.00     0.019 A 
HETATM   11  C23 UNK     1      32.439  -5.458  38.135  1.00  0.00     0.001 A 
HETATM   12  C22 UNK     1      32.672  -6.815  37.932  1.00  0.00     0.001 A 
BRANCH   4  13
HETATM   13  O1  UNK     1      29.477  -9.549  38.363  1.00  0.00    -0.359 OA
HETATM   14  H23 UNK     1      28.962 -10.060  39.008  1.00  0.00     0.217 HD
ENDBRANCH   4  13
ENDBRANCH   2   3
BRANCH   2  15
HETATM   15  C21 UNK     1      25.594  -8.391  38.367  1.00  0.00     0.056 C 
HETATM   16  C17 UNK     1      24.483  -8.158  39.083  1.00  0.00     0.015 C 
BRANCH  16  17
HETATM   17  C6  UNK     1      23.162  -7.860  38.503  1.00  0.00    -0.036 A 
HETATM   18  C11 UNK     1      22.829  -8.391  37.267  1.00  0.00     0.013 A 
HETATM   19  C4  UNK     1      21.578  -8.109  36.719  1.00  0.00     0.030 A 
HETATM   20  C1  UNK     1      20.677  -7.301  37.413  1.00  0.00     0.030 A 
HETATM   21  C5  UNK     1      21.028  -6.774  38.656  1.00  0.00     0.030 A 
HETATM   22  C12 UNK     1      22.278  -7.056  39.205  1.00  0.00     0.013 A 
BRANCH  20  23
HETATM   23  N1  UNK     1      19.412  -7.016  36.857  1.00  0.00    -0.382 N 
BRANCH  23  24
HETATM   24  C2  UNK     1      18.567  -8.087  36.369  1.00  0.00     0.118 C 
HETATM   25  C8  UNK     1      17.567  -7.545  35.366  1.00  0.00     0.026 C 
ENDBRANCH  23  24
BRANCH  23  26
HETATM   26  C3  UNK     1      18.936  -5.649  36.780  1.00  0.00     0.118 C 
HETATM   27  C9  UNK     1      19.912  -4.799  35.989  1.00  0.00     0.026 C 
ENDBRANCH  23  26
ENDBRANCH  20  23
ENDBRANCH  16  17
ENDBRANCH   2  15
TORSDOF 7
ENDMDL
MODEL 4
REMARK VINA RESULT:      -8.5     13.078     15.932
REMARK  7 active torsions:
REMARK  status: ('A' for Active; 'I' for Inactive)
REMARK    1  A    between atoms: C14_17  and  O1_1 
REMARK    2  A    between atoms: C1_4  and  N1_3 
REMARK    3  A    between atoms: C2_5  and  N1_3 
REMARK    4  A    between atoms: C3_6  and  N1_3 
REMARK    5  A    between atoms: C17_20  and  C6_9 
REMARK    6  A    between atoms: C13_16  and  C19_22 
REMARK    7  A    between atoms: C19_22  and  C21_24 
ROOT
HETATM    1  O2  UNK     1      28.630  -9.964  39.266  1.00  0.00    -0.287 OA
HETATM    2  C19 UNK     1      27.971  -8.936  39.056  1.00  0.00     0.184 C 
ENDROOT
BRANCH   2   3
HETATM    3  C13 UNK     1      28.635  -7.682  38.722  1.00  0.00     0.048 A 
HETATM    4  C14 UNK     1      29.611  -7.628  37.727  1.00  0.00     0.090 A 
HETATM    5  C7  UNK     1      30.246  -6.414  37.413  1.00  0.00     0.008 A 
HETATM    6  C10 UNK     1      29.885  -5.241  38.117  1.00  0.00    -0.023 A 
HETATM    7  C18 UNK     1      31.232  -6.341  36.414  1.00  0.00     0.015 A 
HETATM    8  C15 UNK     1      28.899  -5.315  39.114  1.00  0.00     0.013 A 
HETATM    9  C20 UNK     1      30.520  -4.029  37.801  1.00  0.00     0.012 A 
HETATM   10  C16 UNK     1      28.279  -6.528  39.414  1.00  0.00     0.019 A 
HETATM   11  C23 UNK     1      31.497  -3.974  36.807  1.00  0.00     0.001 A 
HETATM   12  C22 UNK     1      31.852  -5.128  36.114  1.00  0.00     0.001 A 
BRANCH   4  13
HETATM   13  O1  UNK     1      29.940  -8.776  37.062  1.00  0.00    -0.359 OA
HETATM   14  H23 UNK     1      29.557  -9.545  37.516  1.00  0.00     0.217 HD
ENDBRANCH   4  13
ENDBRANCH   2   3
BRANCH   2  15
HETATM   15  C21 UNK     1      26.471  -8.961  39.109  1.00  0.00     0.056 C 
HETATM   16  C17 UNK     1      25.745  -8.487  38.085  1.00  0.00     0.015 C 
BRANCH  16  17
HETATM   17  C6  UNK     1      24.272  -8.456  38.050  1.00  0.00    -0.036 A 
HETATM   18  C11 UNK     1      23.582  -7.842  39.082  1.00  0.00     0.013 A 
HETATM   19  C4  UNK     1      22.188  -7.812  39.048  1.00  0.00     0.030 A 
HETATM   20  C1  UNK     1      21.503  -8.396  37.982  1.00  0.00     0.030 A 
HETATM   21  C5  UNK     1      22.213  -9.011  36.950  1.00  0.00     0.030 A 
HETATM   22  C12 UNK     1      23.607  -9.041  36.984  1.00  0.00     0.013 A 
BRANCH  20  23
HETATM   23  N1  UNK     1      20.093  -8.367  37.948  1.00  0.00    -0.382 N 
BRANCH  23  24
HETATM   24  C2  UNK     1      19.343  -9.551  37.582  1.00  0.00     0.118 C 
HETATM   25  C8  UNK     1      19.354 -10.549  38.723  1.00  0.00     0.026 C 
ENDBRANCH  23  24
BRANCH  23  26
HETATM   26  C3  UNK     1      19.376  -7.155  38.295  1.00  0.00     0.118 C 
HETATM   27  C9  UNK     1      18.308  -6.866  37.258  1.00  0.00     0.026 C 
ENDBRANCH  23  26
ENDBRANCH  20  23
ENDBRANCH  16  17
ENDBRANCH   2  15
TORSDOF 7
ENDMDL
MODEL 5
REMARK VINA RESULT:      -8.5     22.084     23.932
REMARK  7 active torsions:
REMARK  status: ('A' for Active; 'I' for Inactive)
REMARK    1  A    between atoms: C14_17  and  O1_1 
REMARK    2  A    between atoms: C1_4  and  N1_3 
REMARK    3  A    between atoms: C2_5  and  N1_3 
REMARK    4  A    between atoms: C3_6  and  N1_3 
REMARK    5  A    between atoms: C17_20  and  C6_9 
REMARK    6  A    between atoms: C13_16  and  C19_22 
REMARK    7  A    between atoms: C19_22  and  C21_24 
ROOT
HETATM    1  O2  UNK     1      14.909   4.622   9.759  1.00  0.00    -0.287 OA
HETATM    2  C19 UNK     1      14.588   5.730   9.305  1.00  0.00     0.184 C 
ENDROOT
BRANCH   2   3
HETATM    3  C13 UNK     1      13.331   5.904   8.588  1.00  0.00     0.048 A 
HETATM    4  C14 UNK     1      12.108   5.645   9.207  1.00  0.00     0.090 A 
HETATM    5  C7  UNK     1      10.901   5.816   8.507  1.00  0.00     0.008 A 
HETATM    6  C10 UNK     1      10.937   6.255   7.162  1.00  0.00    -0.023 A 
HETATM    7  C18 UNK     1       9.660   5.559   9.114  1.00  0.00     0.015 A 
HETATM    8  C15 UNK     1      12.178   6.512   6.557  1.00  0.00     0.013 A 
HETATM    9  C20 UNK     1       9.731   6.426   6.465  1.00  0.00     0.012 A 
HETATM   10  C16 UNK     1      13.366   6.337   7.266  1.00  0.00     0.019 A 
HETATM   11  C23 UNK     1       8.507   6.166   7.082  1.00  0.00     0.001 A 
HETATM   12  C22 UNK     1       8.472   5.734   8.404  1.00  0.00     0.001 A 
BRANCH   4  13
HETATM   13  O1  UNK     1      12.103   5.223  10.507  1.00  0.00    -0.359 OA
HETATM   14  H23 UNK     1      11.360   4.615  10.657  1.00  0.00     0.217 HD
ENDBRANCH   4  13
ENDBRANCH   2   3
BRANCH   2  15
HETATM   15  C21 UNK     1      15.469   6.927   9.508  1.00  0.00     0.056 C 
HETATM   16  C17 UNK     1      14.951   8.092   9.926  1.00  0.00     0.015 C 
BRANCH  16  17
HETATM   17  C6  UNK     1      15.731   9.324  10.140  1.00  0.00    -0.036 A 
HETATM   18  C11 UNK     1      17.020   9.407   9.639  1.00  0.00     0.013 A 
HETATM   19  C4  UNK     1      17.757  10.574   9.842  1.00  0.00     0.030 A 
HETATM   20  C1  UNK     1      17.195  11.642  10.543  1.00  0.00     0.030 A 
HETATM   21  C5  UNK     1      15.896  11.542  11.042  1.00  0.00     0.030 A 
HETATM   22  C12 UNK     1      15.158  10.376  10.838  1.00  0.00     0.013 A 
BRANCH  20  23
HETATM   23  N1  UNK     1      17.941  12.820  10.749  1.00  0.00    -0.382 N 
BRANCH  23  24
HETATM   24  C2  UNK     1      18.222  13.287  12.091  1.00  0.00     0.118 C 
HETATM   25  C8  UNK     1      19.651  12.950  12.472  1.00  0.00     0.026 C 
ENDBRANCH  23  24
BRANCH  23  26
HETATM   26  C3  UNK     1      18.450  13.573   9.618  1.00  0.00     0.118 C 
HETATM   27  C9  UNK     1      17.353  14.441   9.033  1.00  0.00     0.026 C 
ENDBRANCH  23  26
ENDBRANCH  20  23
ENDBRANCH  16  17
ENDBRANCH   2  15
TORSDOF 7
ENDMDL
MODEL 6
REMARK VINA RESULT:      -8.5     12.568     15.608
REMARK  7 active torsions:
REMARK  status: ('A' for Active; 'I' for Inactive)
REMARK    1  A    between atoms: C14_17  and  O1_1 
REMARK    2  A    between atoms: C1_4  and  N1_3 
REMARK    3  A    between atoms: C2_5  and  N1_3 
REMARK    4  A    between atoms: C3_6  and  N1_3 
REMARK    5  A    between atoms: C17_20  and  C6_9 
REMARK    6  A    between atoms: C13_16  and  C19_22 
REMARK    7  A    between atoms: C19_22  and  C21_24 
ROOT
HETATM    1  O2  UNK     1      27.871  -9.438  40.190  1.00  0.00    -0.287 OA
HETATM    2  C19 UNK     1      27.491  -8.858  39.163  1.00  0.00     0.184 C 
ENDROOT
BRANCH   2   3
HETATM    3  C13 UNK     1      28.425  -8.079  38.360  1.00  0.00     0.048 A 
HETATM    4  C14 UNK     1      28.739  -6.762  38.697  1.00  0.00     0.090 A 
HETATM    5  C7  UNK     1      29.640  -6.018  37.916  1.00  0.00     0.008 A 
HETATM    6  C10 UNK     1      30.230  -6.620  36.779  1.00  0.00    -0.023 A 
HETATM    7  C18 UNK     1      29.968  -4.691  38.240  1.00  0.00     0.015 A 
HETATM    8  C15 UNK     1      29.903  -7.947  36.456  1.00  0.00     0.013 A 
HETATM    9  C20 UNK     1      31.131  -5.876  36.000  1.00  0.00     0.012 A 
HETATM   10  C16 UNK     1      29.006  -8.671  37.243  1.00  0.00     0.019 A 
HETATM   11  C23 UNK     1      31.445  -4.559  36.335  1.00  0.00     0.001 A 
HETATM   12  C22 UNK     1      30.864  -3.968  37.453  1.00  0.00     0.001 A 
BRANCH   4  13
HETATM   13  O1  UNK     1      28.154  -6.206  39.801  1.00  0.00    -0.359 OA
HETATM   14  H23 UNK     1      27.214  -6.444  39.835  1.00  0.00     0.217 HD
ENDBRANCH   4  13
ENDBRANCH   2   3
BRANCH   2  15
HETATM   15  C21 UNK     1      26.067  -8.966  38.702  1.00  0.00     0.056 C 
HETATM   16  C17 UNK     1      25.165  -8.034  39.048  1.00  0.00     0.015 C 
BRANCH  16  17
HETATM   17  C6  UNK     1      23.745  -8.061  38.657  1.00  0.00    -0.036 A 
HETATM   18  C11 UNK     1      23.393  -8.554  37.412  1.00  0.00     0.013 A 
HETATM   19  C4  UNK     1      22.048  -8.579  37.043  1.00  0.00     0.030 A 
HETATM   20  C1  UNK     1      21.073  -8.112  37.924  1.00  0.00     0.030 A 
HETATM   21  C5  UNK     1      21.444  -7.618  39.176  1.00  0.00     0.030 A 
HETATM   22  C12 UNK     1      22.789  -7.592  39.545  1.00  0.00     0.013 A 
BRANCH  20  23
HETATM   23  N1  UNK     1      19.714  -8.137  37.551  1.00  0.00    -0.382 N 
BRANCH  23  24
HETATM   24  C2  UNK     1      18.941  -6.912  37.510  1.00  0.00     0.118 C 
HETATM   25  C8  UNK     1      18.161  -6.831  36.212  1.00  0.00     0.026 C 
ENDBRANCH  23  24
BRANCH  23  26
HETATM   26  C3  UNK     1      19.075  -9.387  37.188  1.00  0.00     0.118 C 
HETATM   27  C9  UNK     1      19.247 -10.403  38.301  1.00  0.00     0.026 C 
ENDBRANCH  23  26
ENDBRANCH  20  23
ENDBRANCH  16  17
ENDBRANCH   2  15
TORSDOF 7
ENDMDL
MODEL 7
REMARK VINA RESULT:      -8.5     12.544     15.630
REMARK  7 active torsions:
REMARK  status: ('A' for Active; 'I' for Inactive)
REMARK    1  A    between atoms: C14_17  and  O1_1 
REMARK    2  A    between atoms: C1_4  and  N1_3 
REMARK    3  A    between atoms: C2_5  and  N1_3 
REMARK    4  A    between atoms: C3_6  and  N1_3 
REMARK    5  A    between atoms: C17_20  and  C6_9 
REMARK    6  A    between atoms: C13_16  and  C19_22 
REMARK    7  A    between atoms: C19_22  and  C21_24 
ROOT
HETATM    1  O2  UNK     1      27.877  -9.496  40.234  1.00  0.00    -0.287 OA
HETATM    2  C19 UNK     1      27.488  -8.908  39.214  1.00  0.00     0.184 C 
ENDROOT
BRANCH   2   3
HETATM    3  C13 UNK     1      28.412  -8.116  38.413  1.00  0.00     0.048 A 
HETATM    4  C14 UNK     1      28.702  -6.792  38.748  1.00  0.00     0.090 A 
HETATM    5  C7  UNK     1      29.593  -6.036  37.969  1.00  0.00     0.008 A 
HETATM    6  C10 UNK     1      30.198  -6.630  36.836  1.00  0.00    -0.023 A 
HETATM    7  C18 UNK     1      29.896  -4.702  38.291  1.00  0.00     0.015 A 
HETATM    8  C15 UNK     1      29.895  -7.963  36.516  1.00  0.00     0.013 A 
HETATM    9  C20 UNK     1      31.090  -5.873  36.059  1.00  0.00     0.012 A 
HETATM   10  C16 UNK     1      29.008  -8.700  37.300  1.00  0.00     0.019 A 
HETATM   11  C23 UNK     1      31.380  -4.550  36.392  1.00  0.00     0.001 A 
HETATM   12  C22 UNK     1      30.784  -3.966  37.506  1.00  0.00     0.001 A 
BRANCH   4  13
HETATM   13  O1  UNK     1      28.103  -6.244  39.848  1.00  0.00    -0.359 OA
HETATM   14  H23 UNK     1      27.422  -5.609  39.574  1.00  0.00     0.217 HD
ENDBRANCH   4  13
ENDBRANCH   2   3
BRANCH   2  15
HETATM   15  C21 UNK     1      26.062  -9.023  38.761  1.00  0.00     0.056 C 
HETATM   16  C17 UNK     1      25.180  -8.047  39.030  1.00  0.00     0.015 C 
BRANCH  16  17
HETATM   17  C6  UNK     1      23.760  -8.074  38.640  1.00  0.00    -0.036 A 
HETATM   18  C11 UNK     1      23.409  -8.543  37.384  1.00  0.00     0.013 A 
HETATM   19  C4  UNK     1      22.065  -8.568  37.016  1.00  0.00     0.030 A 
HETATM   20  C1  UNK     1      21.088  -8.126  37.908  1.00  0.00     0.030 A 
HETATM   21  C5  UNK     1      21.457  -7.657  39.170  1.00  0.00     0.030 A 
HETATM   22  C12 UNK     1      22.802  -7.631  39.538  1.00  0.00     0.013 A 
BRANCH  20  23
HETATM   23  N1  UNK     1      19.728  -8.151  37.535  1.00  0.00    -0.382 N 
BRANCH  23  24
HETATM   24  C2  UNK     1      19.095  -9.397  37.153  1.00  0.00     0.118 C 
HETATM   25  C8  UNK     1      19.219 -10.410  38.275  1.00  0.00     0.026 C 
ENDBRANCH  23  24
BRANCH  23  26
HETATM   26  C3  UNK     1      18.942  -6.933  37.543  1.00  0.00     0.118 C 
HETATM   27  C9  UNK     1      18.190  -6.788  36.234  1.00  0.00     0.026 C 
ENDBRANCH  23  26
ENDBRANCH  20  23
ENDBRANCH  16  17
ENDBRANCH   2  15
TORSDOF 7
ENDMDL
MODEL 8
REMARK VINA RESULT:      -8.4     23.576     25.666
REMARK  7 active torsions:
REMARK  status: ('A' for Active; 'I' for Inactive)
REMARK    1  A    between atoms: C14_17  and  O1_1 
REMARK    2  A    between atoms: C1_4  and  N1_3 
REMARK    3  A    between atoms: C2_5  and  N1_3 
REMARK    4  A    between atoms: C3_6  and  N1_3 
REMARK    5  A    between atoms: C17_20  and  C6_9 
REMARK    6  A    between atoms: C13_16  and  C19_22 
REMARK    7  A    between atoms: C19_22  and  C21_24 
ROOT
HETATM    1  O2  UNK     1      13.779   8.046  11.063  1.00  0.00    -0.287 OA
HETATM    2  C19 UNK     1      13.955   8.176   9.844  1.00  0.00     0.184 C 
ENDROOT
BRANCH   2   3
HETATM    3  C13 UNK     1      12.992   7.640   8.891  1.00  0.00     0.048 A 
HETATM    4  C14 UNK     1      11.619   7.775   9.103  1.00  0.00     0.090 A 
HETATM    5  C7  UNK     1      10.697   7.254   8.179  1.00  0.00     0.008 A 
HETATM    6  C10 UNK     1      11.175   6.590   7.024  1.00  0.00    -0.023 A 
HETATM    7  C18 UNK     1       9.312   7.379   8.376  1.00  0.00     0.015 A 
HETATM    8  C15 UNK     1      12.560   6.466   6.827  1.00  0.00     0.013 A 
HETATM    9  C20 UNK     1      10.253   6.071   6.101  1.00  0.00     0.012 A 
HETATM   10  C16 UNK     1      13.461   6.988   7.755  1.00  0.00     0.019 A 
HETATM   11  C23 UNK     1       8.881   6.203   6.312  1.00  0.00     0.001 A 
HETATM   12  C22 UNK     1       8.411   6.857   7.448  1.00  0.00     0.001 A 
BRANCH   4  13
HETATM   13  O1  UNK     1      11.186   8.422  10.227  1.00  0.00    -0.359 OA
HETATM   14  H23 UNK     1      11.704   8.135  10.996  1.00  0.00     0.217 HD
ENDBRANCH   4  13
ENDBRANCH   2   3
BRANCH   2  15
HETATM   15  C21 UNK     1      15.150   8.915   9.316  1.00  0.00     0.056 C 
HETATM   16  C17 UNK     1      15.030  10.174   8.868  1.00  0.00     0.015 C 
BRANCH  16  17
HETATM   17  C6  UNK     1      16.138  10.975   8.320  1.00  0.00    -0.036 A 
HETATM   18  C11 UNK     1      15.859  12.006   7.437  1.00  0.00     0.013 A 
HETATM   19  C4  UNK     1      16.909  12.764   6.919  1.00  0.00     0.030 A 
HETATM   20  C1  UNK     1      18.224  12.482   7.291  1.00  0.00     0.030 A 
HETATM   21  C5  UNK     1      18.489  11.440   8.181  1.00  0.00     0.030 A 
HETATM   22  C12 UNK     1      17.439  10.682   8.699  1.00  0.00     0.013 A 
BRANCH  20  23
HETATM   23  N1  UNK     1      19.285  13.248   6.766  1.00  0.00    -0.382 N 
BRANCH  23  24
HETATM   24  C2  UNK     1      19.099  14.031   5.561  1.00  0.00     0.118 C 
HETATM   25  C8  UNK     1      19.742  13.330   4.380  1.00  0.00     0.026 C 
ENDBRANCH  23  24
BRANCH  23  26
HETATM   26  C3  UNK     1      20.571  13.275   7.435  1.00  0.00     0.118 C 
HETATM   27  C9  UNK     1      20.678  14.506   8.314  1.00  0.00     0.026 C 
ENDBRANCH  23  26
ENDBRANCH  20  23
ENDBRANCH  16  17
ENDBRANCH   2  15
TORSDOF 7
ENDMDL
MODEL 9
REMARK VINA RESULT:      -8.4     12.397     15.451
REMARK  7 active torsions:
REMARK  status: ('A' for Active; 'I' for Inactive)
REMARK    1  A    between atoms: C14_17  and  O1_1 
REMARK    2  A    between atoms: C1_4  and  N1_3 
REMARK    3  A    between atoms: C2_5  and  N1_3 
REMARK    4  A    between atoms: C3_6  and  N1_3 
REMARK    5  A    between atoms: C17_20  and  C6_9 
REMARK    6  A    between atoms: C13_16  and  C19_22 
REMARK    7  A    between atoms: C19_22  and  C21_24 
ROOT
HETATM    1  O2  UNK     1      22.789  -8.520  40.306  1.00  0.00    -0.287 OA
HETATM    2  C19 UNK     1      23.081  -8.094  39.179  1.00  0.00     0.184 C 
ENDROOT
BRANCH   2   3
HETATM    3  C13 UNK     1      22.066  -7.985  38.139  1.00  0.00     0.048 A 
HETATM    4  C14 UNK     1      20.816  -7.426  38.409  1.00  0.00     0.090 A 
HETATM    5  C7  UNK     1      19.844  -7.326  37.400  1.00  0.00     0.008 A 
HETATM    6  C10 UNK     1      20.144  -7.798  36.100  1.00  0.00    -0.023 A 
HETATM    7  C18 UNK     1      18.580  -6.766  37.654  1.00  0.00     0.015 A 
HETATM    8  C15 UNK     1      21.408  -8.356  35.847  1.00  0.00     0.013 A 
HETATM    9  C20 UNK     1      19.172  -7.696  35.092  1.00  0.00     0.012 A 
HETATM   10  C16 UNK     1      22.362  -8.448  36.861  1.00  0.00     0.019 A 
HETATM   11  C23 UNK     1      17.922  -7.138  35.361  1.00  0.00     0.001 A 
HETATM   12  C22 UNK     1      17.627  -6.674  36.639  1.00  0.00     0.001 A 
BRANCH   4  13
HETATM   13  O1  UNK     1      20.554  -6.977  39.674  1.00  0.00    -0.359 OA
HETATM   14  H23 UNK     1      21.385  -6.852  40.161  1.00  0.00     0.217 HD
ENDBRANCH   4  13
ENDBRANCH   2   3
BRANCH   2  15
HETATM   15  C21 UNK     1      24.480  -7.652  38.865  1.00  0.00     0.056 C 
HETATM   16  C17 UNK     1      25.520  -8.472  39.082  1.00  0.00     0.015 C 
BRANCH  16  17
HETATM   17  C6  UNK     1      26.927  -8.124  38.819  1.00  0.00    -0.036 A 
HETATM   18  C11 UNK     1      27.313  -6.794  38.840  1.00  0.00     0.013 A 
HETATM   19  C4  UNK     1      28.645  -6.465  38.592  1.00  0.00     0.030 A 
HETATM   20  C1  UNK     1      29.574  -7.471  38.325  1.00  0.00     0.030 A 
HETATM   21  C5  UNK     1      29.170  -8.807  38.307  1.00  0.00     0.030 A 
HETATM   22  C12 UNK     1      27.838  -9.135  38.556  1.00  0.00     0.013 A 
BRANCH  20  23
HETATM   23  N1  UNK     1      30.921  -7.139  38.073  1.00  0.00    -0.382 N 
BRANCH  23  24
HETATM   24  C2  UNK     1      31.970  -8.115  38.285  1.00  0.00     0.118 C 
HETATM   25  C8  UNK     1      32.554  -8.550  36.954  1.00  0.00     0.026 C 
ENDBRANCH  23  24
BRANCH  23  26
HETATM   26  C3  UNK     1      31.272  -5.819  37.585  1.00  0.00     0.118 C 
HETATM   27  C9  UNK     1      32.308  -5.185  38.493  1.00  0.00     0.026 C 
ENDBRANCH  23  26
ENDBRANCH  20  23
ENDBRANCH  16  17
ENDBRANCH   2  15
TORSDOF 7
ENDMDL
MODEL 10
REMARK VINA RESULT:      -8.4      3.685      9.246
REMARK  7 active torsions:
REMARK  status: ('A' for Active; 'I' for Inactive)
REMARK    1  A    between atoms: C14_17  and  O1_1 
REMARK    2  A    between atoms: C1_4  and  N1_3 
REMARK    3  A    between atoms: C2_5  and  N1_3 
REMARK    4  A    between atoms: C3_6  and  N1_3 
REMARK    5  A    between atoms: C17_20  and  C6_9 
REMARK    6  A    between atoms: C13_16  and  C19_22 
REMARK    7  A    between atoms: C19_22  and  C21_24 
ROOT
HETATM    1  O2  UNK     1      18.784   6.345  30.738  1.00  0.00    -0.287 OA
HETATM    2  C19 UNK     1      18.055   5.957  31.662  1.00  0.00     0.184 C 
ENDROOT
BRANCH   2   3
HETATM    3  C13 UNK     1      17.061   6.846  32.250  1.00  0.00     0.048 A 
HETATM    4  C14 UNK     1      17.446   7.965  32.990  1.00  0.00     0.090 A 
HETATM    5  C7  UNK     1      16.480   8.816  33.554  1.00  0.00     0.008 A 
HETATM    6  C10 UNK     1      15.108   8.529  33.363  1.00  0.00    -0.023 A 
HETATM    7  C18 UNK     1      16.848   9.946  34.303  1.00  0.00     0.015 A 
HETATM    8  C15 UNK     1      14.740   7.399  32.613  1.00  0.00     0.013 A 
HETATM    9  C20 UNK     1      14.144   9.380  33.926  1.00  0.00     0.012 A 
HETATM   10  C16 UNK     1      15.712   6.564  32.060  1.00  0.00     0.019 A 
HETATM   11  C23 UNK     1      14.526  10.498  34.667  1.00  0.00     0.001 A 
HETATM   12  C22 UNK     1      15.876  10.781  34.855  1.00  0.00     0.001 A 
BRANCH   4  13
HETATM   13  O1  UNK     1      18.779   8.218  33.158  1.00  0.00    -0.359 OA
HETATM   14  H23 UNK     1      18.980   9.130  32.892  1.00  0.00     0.217 HD
ENDBRANCH   4  13
ENDBRANCH   2   3
BRANCH   2  15
HETATM   15  C21 UNK     1      18.154   4.551  32.179  1.00  0.00     0.056 C 
HETATM   16  C17 UNK     1      18.295   4.316  33.492  1.00  0.00     0.015 C 
BRANCH  16  17
HETATM   17  C6  UNK     1      18.414   2.976  34.093  1.00  0.00    -0.036 A 
HETATM   18  C11 UNK     1      18.072   1.863  33.343  1.00  0.00     0.013 A 
HETATM   19  C4  UNK     1      18.185   0.595  33.912  1.00  0.00     0.030 A 
HETATM   20  C1  UNK     1      18.640   0.456  35.223  1.00  0.00     0.030 A 
HETATM   21  C5  UNK     1      18.981   1.588  35.966  1.00  0.00     0.030 A 
HETATM   22  C12 UNK     1      18.868   2.856  35.397  1.00  0.00     0.013 A 
BRANCH  20  23
HETATM   23  N1  UNK     1      18.755  -0.826  35.799  1.00  0.00    -0.382 N 
BRANCH  23  24
HETATM   24  C2  UNK     1      17.609  -1.454  36.425  1.00  0.00     0.118 C 
HETATM   25  C8  UNK     1      17.719  -1.351  37.934  1.00  0.00     0.026 C 
ENDBRANCH  23  24
BRANCH  23  26
HETATM   26  C3  UNK     1      20.016  -1.539  35.757  1.00  0.00     0.118 C 
HETATM   27  C9  UNK     1      20.077  -2.421  34.525  1.00  0.00     0.026 C 
ENDBRANCH  23  26
ENDBRANCH  20  23
ENDBRANCH  16  17
ENDBRANCH   2  15
TORSDOF 7
ENDMDL
