MODEL 1
REMARK VINA RESULT:      -7.9      0.000      0.000
REMARK  3 active torsions:
REMARK  status: ('A' for Active; 'I' for Inactive)
REMARK    1  A    between atoms: C1_8  and  N1_5 
REMARK       I    between atoms: C3_10  and  N1_5 
REMARK    2  A    between atoms: C1_8  and  C2_9 
REMARK    3  A    between atoms: C3_10  and  C4_11 
ROOT
HETATM    1 Br1  UNK     1      19.034   1.945  20.910  1.00  0.00    -0.051 Br
HETATM    2  O1  UNK     1      19.231   0.739  14.968  1.00  0.00    -0.274 OA
HETATM    3  O3  UNK     1      19.156  -0.759  13.243  1.00  0.00    -0.259 OA
HETATM    4  C4  UNK     1      18.931  -1.644  15.430  1.00  0.00     0.108 A 
HETATM    5  C5  UNK     1      19.011  -0.054  17.256  1.00  0.00     0.000 A 
HETATM    6  C7  UNK     1      18.884  -1.410  16.746  1.00  0.00     0.037 A 
HETATM    7  C9  UNK     1      19.182   0.991  16.353  1.00  0.00     0.089 A 
HETATM    8  C11 UNK     1      19.111  -0.548  14.451  1.00  0.00     0.304 A 
HETATM    9  C12 UNK     1      18.966   0.237  18.622  1.00  0.00     0.033 A 
HETATM   10  C13 UNK     1      19.309   2.312  16.775  1.00  0.00     0.039 A 
HETATM   11  C15 UNK     1      19.094   1.558  19.060  1.00  0.00     0.011 A 
HETATM   12  C16 UNK     1      19.264   2.593  18.138  1.00  0.00     0.022 A 
ENDROOT
BRANCH   4  13
HETATM   13  C3  UNK     1      18.793  -3.045  15.013  1.00  0.00     0.259 C 
HETATM   14  O2  UNK     1      17.655  -3.521  14.930  1.00  0.00    -0.267 OA
HETATM   15  N1  UNK     1      19.962  -3.753  14.722  1.00  0.00    -0.348 N 
HETATM   16  C8  UNK     1      21.287  -3.147  14.836  1.00  0.00     0.153 C 
BRANCH  15  17
HETATM   17  C1  UNK     1      19.940  -5.143  14.285  1.00  0.00     0.167 C 
BRANCH  17  18
HETATM   18  C2  UNK     1      19.438  -5.219  12.884  1.00  0.00    -0.004 A 
HETATM   19  C10 UNK     1      18.488  -6.107  12.373  1.00  0.00     0.149 A 
HETATM   20  N3  UNK     1      18.264  -5.908  11.071  1.00  0.00    -0.185 NA
HETATM   21  N2  UNK     1      19.085  -4.887  10.773  1.00  0.00    -0.285 N 
HETATM   22  C14 UNK     1      19.128  -4.373   9.424  1.00  0.00     0.179 C 
HETATM   23  C6  UNK     1      19.814  -4.437  11.834  1.00  0.00     0.122 A 
ENDBRANCH  17  18
ENDBRANCH  15  17
ENDBRANCH   4  13
TORSDOF 3
ENDMDL
MODEL 2
REMARK VINA RESULT:      -7.7     17.201     20.799
REMARK  3 active torsions:
REMARK  status: ('A' for Active; 'I' for Inactive)
REMARK    1  A    between atoms: C1_8  and  N1_5 
REMARK       I    between atoms: C3_10  and  N1_5 
REMARK    2  A    between atoms: C1_8  and  C2_9 
REMARK    3  A    between atoms: C3_10  and  C4_11 
ROOT
HETATM    1 Br1  UNK     1      16.608  14.732  34.548  1.00  0.00    -0.051 Br
HETATM    2  O1  UNK     1      15.573   8.763  34.878  1.00  0.00    -0.274 OA
HETATM    3  O3  UNK     1      16.246   6.609  34.517  1.00  0.00    -0.259 OA
HETATM    4  C4  UNK     1      17.754   8.317  33.866  1.00  0.00     0.108 A 
HETATM    5  C5  UNK     1      17.038  10.599  34.250  1.00  0.00     0.000 A 
HETATM    6  C7  UNK     1      18.012   9.627  33.780  1.00  0.00     0.037 A 
HETATM    7  C9  UNK     1      15.839  10.144  34.790  1.00  0.00     0.089 A 
HETATM    8  C11 UNK     1      16.486   7.810  34.437  1.00  0.00     0.304 A 
HETATM    9  C12 UNK     1      17.265  11.977  34.181  1.00  0.00     0.033 A 
HETATM   10  C13 UNK     1      14.865  11.022  35.259  1.00  0.00     0.039 A 
HETATM   11  C15 UNK     1      16.296  12.870  34.647  1.00  0.00     0.011 A 
HETATM   12  C16 UNK     1      15.099  12.393  35.186  1.00  0.00     0.022 A 
ENDROOT
BRANCH   4  13
HETATM   13  C3  UNK     1      18.799   7.415  33.366  1.00  0.00     0.259 C 
HETATM   14  O2  UNK     1      19.737   7.131  34.119  1.00  0.00    -0.267 OA
HETATM   15  N1  UNK     1      18.659   6.920  32.066  1.00  0.00    -0.348 N 
HETATM   16  C8  UNK     1      17.532   7.285  31.211  1.00  0.00     0.153 C 
BRANCH  15  17
HETATM   17  C1  UNK     1      19.629   6.007  31.475  1.00  0.00     0.167 C 
BRANCH  17  18
HETATM   18  C2  UNK     1      18.960   4.719  31.135  1.00  0.00    -0.004 A 
HETATM   19  C10 UNK     1      18.211   3.904  31.987  1.00  0.00     0.149 A 
HETATM   20  N3  UNK     1      17.750   2.816  31.365  1.00  0.00    -0.185 NA
HETATM   21  N2  UNK     1      18.219   2.959  30.113  1.00  0.00    -0.285 N 
HETATM   22  C14 UNK     1      17.922   1.955  29.119  1.00  0.00     0.179 C 
HETATM   23  C6  UNK     1      18.955   4.091  29.926  1.00  0.00     0.122 A 
ENDBRANCH  17  18
ENDBRANCH  15  17
ENDBRANCH   4  13
TORSDOF 3
ENDMDL
MODEL 3
REMARK VINA RESULT:      -7.7     22.673     24.868
REMARK  3 active torsions:
REMARK  status: ('A' for Active; 'I' for Inactive)
REMARK    1  A    between atoms: C1_8  and  N1_5 
REMARK       I    between atoms: C3_10  and  N1_5 
REMARK    2  A    between atoms: C1_8  and  C2_9 
REMARK    3  A    between atoms: C3_10  and  C4_11 
ROOT
HETATM    1 Br1  UNK     1      30.520  -9.011  38.287  1.00  0.00    -0.051 Br
HETATM    2  O1  UNK     1      25.551  -5.550  38.660  1.00  0.00    -0.274 OA
HETATM    3  O3  UNK     1      23.293  -5.344  38.942  1.00  0.00    -0.259 OA
HETATM    4  C4  UNK     1      24.176  -7.542  39.007  1.00  0.00     0.108 A 
HETATM    5  C5  UNK     1      26.570  -7.757  38.707  1.00  0.00     0.000 A 
HETATM    6  C7  UNK     1      25.253  -8.332  38.929  1.00  0.00     0.037 A 
HETATM    7  C9  UNK     1      26.689  -6.377  38.577  1.00  0.00     0.089 A 
HETATM    8  C11 UNK     1      24.278  -6.072  38.872  1.00  0.00     0.304 A 
HETATM    9  C12 UNK     1      27.722  -8.544  38.620  1.00  0.00     0.033 A 
HETATM   10  C13 UNK     1      27.921  -5.763  38.364  1.00  0.00     0.039 A 
HETATM   11  C15 UNK     1      28.965  -7.942  38.406  1.00  0.00     0.011 A 
HETATM   12  C16 UNK     1      29.064  -6.555  38.279  1.00  0.00     0.022 A 
ENDROOT
BRANCH   4  13
HETATM   13  C3  UNK     1      22.891  -8.216  39.233  1.00  0.00     0.259 C 
HETATM   14  O2  UNK     1      22.427  -8.220  40.379  1.00  0.00    -0.267 OA
HETATM   15  N1  UNK     1      22.262  -8.801  38.130  1.00  0.00    -0.348 N 
HETATM   16  C8  UNK     1      22.850  -8.770  36.793  1.00  0.00     0.153 C 
BRANCH  15  17
HETATM   17  C1  UNK     1      20.978  -9.481  38.239  1.00  0.00     0.167 C 
BRANCH  17  18
HETATM   18  C2  UNK     1      19.903  -8.612  37.681  1.00  0.00    -0.004 A 
HETATM   19  C10 UNK     1      19.365  -7.458  38.256  1.00  0.00     0.149 A 
HETATM   20  N3  UNK     1      18.412  -6.915  37.495  1.00  0.00    -0.185 NA
HETATM   21  N2  UNK     1      18.359  -7.742  36.437  1.00  0.00    -0.285 N 
HETATM   22  C14 UNK     1      17.423  -7.479  35.369  1.00  0.00     0.179 C 
HETATM   23  C6  UNK     1      19.239  -8.781  36.504  1.00  0.00     0.122 A 
ENDBRANCH  17  18
ENDBRANCH  15  17
ENDBRANCH   4  13
TORSDOF 3
ENDMDL
MODEL 4
REMARK VINA RESULT:      -7.6     13.325     14.555
REMARK  3 active torsions:
REMARK  status: ('A' for Active; 'I' for Inactive)
REMARK    1  A    between atoms: C1_8  and  N1_5 
REMARK       I    between atoms: C3_10  and  N1_5 
REMARK    2  A    between atoms: C1_8  and  C2_9 
REMARK    3  A    between atoms: C3_10  and  C4_11 
ROOT
HETATM    1 Br1  UNK     1       6.893  11.268  12.618  1.00  0.00    -0.051 Br
HETATM    2  O1  UNK     1       6.959   6.436   8.950  1.00  0.00    -0.274 OA
HETATM    3  O3  UNK     1       8.078   5.036   7.533  1.00  0.00    -0.259 OA
HETATM    4  C4  UNK     1       9.327   6.817   8.473  1.00  0.00     0.108 A 
HETATM    5  C5  UNK     1       8.138   8.299   9.975  1.00  0.00     0.000 A 
HETATM    6  C7  UNK     1       9.344   7.887   9.275  1.00  0.00     0.037 A 
HETATM    7  C9  UNK     1       6.972   7.562   9.796  1.00  0.00     0.089 A 
HETATM    8  C11 UNK     1       8.098   6.017   8.268  1.00  0.00     0.304 A 
HETATM    9  C12 UNK     1       8.111   9.409  10.824  1.00  0.00     0.033 A 
HETATM   10  C13 UNK     1       5.783   7.902  10.438  1.00  0.00     0.039 A 
HETATM   11  C15 UNK     1       6.925   9.763  11.473  1.00  0.00     0.011 A 
HETATM   12  C16 UNK     1       5.764   9.011  11.282  1.00  0.00     0.022 A 
ENDROOT
BRANCH   4  13
HETATM   13  C3  UNK     1      10.594   6.481   7.810  1.00  0.00     0.259 C 
HETATM   14  O2  UNK     1      10.899   7.099   6.783  1.00  0.00    -0.267 OA
HETATM   15  N1  UNK     1      11.387   5.488   8.393  1.00  0.00    -0.348 N 
HETATM   16  C8  UNK     1      10.984   4.784   9.608  1.00  0.00     0.153 C 
BRANCH  15  17
HETATM   17  C1  UNK     1      12.668   5.087   7.827  1.00  0.00     0.167 C 
BRANCH  17  18
HETATM   18  C2  UNK     1      13.776   5.629   8.665  1.00  0.00    -0.004 A 
HETATM   19  C10 UNK     1      14.654   4.906   9.476  1.00  0.00     0.149 A 
HETATM   20  N3  UNK     1      15.533   5.699  10.095  1.00  0.00    -0.185 NA
HETATM   21  N2  UNK     1      15.195   6.926   9.662  1.00  0.00    -0.285 N 
HETATM   22  C14 UNK     1      15.935   8.077  10.123  1.00  0.00     0.179 C 
HETATM   23  C6  UNK     1      14.140   6.935   8.798  1.00  0.00     0.122 A 
ENDBRANCH  17  18
ENDBRANCH  15  17
ENDBRANCH   4  13
TORSDOF 3
ENDMDL
MODEL 5
REMARK VINA RESULT:      -7.6     12.276     13.721
REMARK  3 active torsions:
REMARK  status: ('A' for Active; 'I' for Inactive)
REMARK    1  A    between atoms: C1_8  and  N1_5 
REMARK       I    between atoms: C3_10  and  N1_5 
REMARK    2  A    between atoms: C1_8  and  C2_9 
REMARK    3  A    between atoms: C3_10  and  C4_11 
ROOT
HETATM    1 Br1  UNK     1      16.268  13.946   6.741  1.00  0.00    -0.051 Br
HETATM    2  O1  UNK     1      17.290   8.804   9.794  1.00  0.00    -0.274 OA
HETATM    3  O3  UNK     1      16.522   6.868  10.734  1.00  0.00    -0.259 OA
HETATM    4  C4  UNK     1      14.913   8.246   9.673  1.00  0.00     0.108 A 
HETATM    5  C5  UNK     1      15.730  10.298   8.678  1.00  0.00     0.000 A 
HETATM    6  C7  UNK     1      14.655   9.373   8.998  1.00  0.00     0.037 A 
HETATM    7  C9  UNK     1      17.025   9.992   9.084  1.00  0.00     0.089 A 
HETATM    8  C11 UNK     1      16.282   7.899  10.114  1.00  0.00     0.304 A 
HETATM    9  C12 UNK     1      15.507  11.485   7.974  1.00  0.00     0.033 A 
HETATM   10  C13 UNK     1      18.100  10.835   8.808  1.00  0.00     0.039 A 
HETATM   11  C15 UNK     1      16.575  12.341   7.692  1.00  0.00     0.011 A 
HETATM   12  C16 UNK     1      17.869  12.016   8.107  1.00  0.00     0.022 A 
ENDROOT
BRANCH   4  13
HETATM   13  C3  UNK     1      13.762   7.376   9.948  1.00  0.00     0.259 C 
HETATM   14  O2  UNK     1      12.997   7.692  10.867  1.00  0.00    -0.267 OA
HETATM   15  N1  UNK     1      13.595   6.247   9.141  1.00  0.00    -0.348 N 
HETATM   16  C8  UNK     1      14.527   5.915   8.066  1.00  0.00     0.153 C 
BRANCH  15  17
HETATM   17  C1  UNK     1      12.481   5.325   9.317  1.00  0.00     0.167 C 
BRANCH  17  18
HETATM   18  C2  UNK     1      11.362   5.714   8.411  1.00  0.00    -0.004 A 
HETATM   19  C10 UNK     1      11.372   5.728   7.015  1.00  0.00     0.149 A 
HETATM   20  N3  UNK     1      10.202   6.130   6.509  1.00  0.00    -0.185 NA
HETATM   21  N2  UNK     1       9.461   6.366   7.605  1.00  0.00    -0.285 N 
HETATM   22  C14 UNK     1       8.100   6.827   7.463  1.00  0.00     0.179 C 
HETATM   23  C6  UNK     1      10.118   6.130   8.776  1.00  0.00     0.122 A 
ENDBRANCH  17  18
ENDBRANCH  15  17
ENDBRANCH   4  13
TORSDOF 3
ENDMDL
MODEL 6
REMARK VINA RESULT:      -7.5     12.545     13.933
REMARK  3 active torsions:
REMARK  status: ('A' for Active; 'I' for Inactive)
REMARK    1  A    between atoms: C1_8  and  N1_5 
REMARK       I    between atoms: C3_10  and  N1_5 
REMARK    2  A    between atoms: C1_8  and  C2_9 
REMARK    3  A    between atoms: C3_10  and  C4_11 
ROOT
HETATM    1 Br1  UNK     1      17.885  10.939   8.987  1.00  0.00    -0.051 Br
HETATM    2  O1  UNK     1      14.191   6.329  10.369  1.00  0.00    -0.274 OA
HETATM    3  O3  UNK     1      12.122   5.360  10.317  1.00  0.00    -0.259 OA
HETATM    4  C4  UNK     1      12.327   7.484   9.286  1.00  0.00     0.108 A 
HETATM    5  C5  UNK     1      14.521   8.508   9.342  1.00  0.00     0.000 A 
HETATM    6  C7  UNK     1      13.116   8.516   8.967  1.00  0.00     0.037 A 
HETATM    7  C9  UNK     1      15.026   7.413  10.036  1.00  0.00     0.089 A 
HETATM    8  C11 UNK     1      12.842   6.308  10.022  1.00  0.00     0.304 A 
HETATM    9  C12 UNK     1      15.382   9.563   9.028  1.00  0.00     0.033 A 
HETATM   10  C13 UNK     1      16.363   7.343  10.423  1.00  0.00     0.039 A 
HETATM   11  C15 UNK     1      16.725   9.507   9.412  1.00  0.00     0.011 A 
HETATM   12  C16 UNK     1      17.214   8.399  10.107  1.00  0.00     0.022 A 
ENDROOT
BRANCH   4  13
HETATM   13  C3  UNK     1      10.924   7.583   8.863  1.00  0.00     0.259 C 
HETATM   14  O2  UNK     1      10.167   8.312   9.516  1.00  0.00    -0.267 OA
HETATM   15  N1  UNK     1      10.533   6.856   7.735  1.00  0.00    -0.348 N 
HETATM   16  C8  UNK     1      11.465   6.007   6.995  1.00  0.00     0.153 C 
BRANCH  15  17
HETATM   17  C1  UNK     1       9.171   6.895   7.221  1.00  0.00     0.167 C 
BRANCH  17  18
HETATM   18  C2  UNK     1       8.235   6.343   8.241  1.00  0.00    -0.004 A 
HETATM   19  C10 UNK     1       7.222   7.027   8.917  1.00  0.00     0.149 A 
HETATM   20  N3  UNK     1       6.564   6.236   9.770  1.00  0.00    -0.185 NA
HETATM   21  N2  UNK     1       7.177   5.049   9.619  1.00  0.00    -0.285 N 
HETATM   22  C14 UNK     1       6.737   3.913  10.394  1.00  0.00     0.179 C 
HETATM   23  C6  UNK     1       8.192   5.064   8.709  1.00  0.00     0.122 A 
ENDBRANCH  17  18
ENDBRANCH  15  17
ENDBRANCH   4  13
TORSDOF 3
ENDMDL
MODEL 7
REMARK VINA RESULT:      -7.3     12.206     13.591
REMARK  3 active torsions:
REMARK  status: ('A' for Active; 'I' for Inactive)
REMARK    1  A    between atoms: C1_8  and  N1_5 
REMARK       I    between atoms: C3_10  and  N1_5 
REMARK    2  A    between atoms: C1_8  and  C2_9 
REMARK    3  A    between atoms: C3_10  and  C4_11 
ROOT
HETATM    1 Br1  UNK     1      15.424  13.848   9.018  1.00  0.00    -0.051 Br
HETATM    2  O1  UNK     1      16.821   8.006   9.869  1.00  0.00    -0.274 OA
HETATM    3  O3  UNK     1      16.192   5.812   9.992  1.00  0.00    -0.259 OA
HETATM    4  C4  UNK     1      14.480   7.385   9.537  1.00  0.00     0.108 A 
HETATM    5  C5  UNK     1      15.150   9.709   9.407  1.00  0.00     0.000 A 
HETATM    6  C7  UNK     1      14.140   8.665   9.345  1.00  0.00     0.037 A 
HETATM    7  C9  UNK     1      16.470   9.355   9.668  1.00  0.00     0.089 A 
HETATM    8  C11 UNK     1      15.877   6.984   9.815  1.00  0.00     0.304 A 
HETATM    9  C12 UNK     1      14.840  11.059   9.211  1.00  0.00     0.033 A 
HETATM   10  C13 UNK     1      17.485  10.306   9.739  1.00  0.00     0.039 A 
HETATM   11  C15 UNK     1      15.848  12.024   9.281  1.00  0.00     0.011 A 
HETATM   12  C16 UNK     1      17.168  11.648   9.544  1.00  0.00     0.022 A 
ENDROOT
BRANCH   4  13
HETATM   13  C3  UNK     1      13.390   6.404   9.455  1.00  0.00     0.259 C 
HETATM   14  O2  UNK     1      12.893   5.993  10.510  1.00  0.00    -0.267 OA
HETATM   15  N1  UNK     1      12.971   6.006   8.182  1.00  0.00    -0.348 N 
HETATM   16  C8  UNK     1      13.590   6.521   6.962  1.00  0.00     0.153 C 
BRANCH  15  17
HETATM   17  C1  UNK     1      11.889   5.050   7.985  1.00  0.00     0.167 C 
BRANCH  17  18
HETATM   18  C2  UNK     1      10.607   5.781   7.776  1.00  0.00    -0.004 A 
HETATM   19  C10 UNK     1       9.979   6.055   6.559  1.00  0.00     0.149 A 
HETATM   20  N3  UNK     1       8.839   6.732   6.724  1.00  0.00    -0.185 NA
HETATM   21  N2  UNK     1       8.762   6.880   8.057  1.00  0.00    -0.285 N 
HETATM   22  C14 UNK     1       7.640   7.580   8.636  1.00  0.00     0.179 C 
HETATM   23  C6  UNK     1       9.806   6.324   8.735  1.00  0.00     0.122 A 
ENDBRANCH  17  18
ENDBRANCH  15  17
ENDBRANCH   4  13
TORSDOF 3
ENDMDL
MODEL 8
REMARK VINA RESULT:      -7.3     19.985     21.368
REMARK  3 active torsions:
REMARK  status: ('A' for Active; 'I' for Inactive)
REMARK    1  A    between atoms: C1_8  and  N1_5 
REMARK       I    between atoms: C3_10  and  N1_5 
REMARK    2  A    between atoms: C1_8  and  C2_9 
REMARK    3  A    between atoms: C3_10  and  C4_11 
ROOT
HETATM    1 Br1  UNK     1      16.164   1.945  37.575  1.00  0.00    -0.051 Br
HETATM    2  O1  UNK     1      19.534  -1.812  34.208  1.00  0.00    -0.274 OA
HETATM    3  O3  UNK     1      20.768  -3.724  34.000  1.00  0.00    -0.259 OA
HETATM    4  C4  UNK     1      19.824  -3.293  36.131  1.00  0.00     0.108 A 
HETATM    5  C5  UNK     1      18.517  -1.266  36.348  1.00  0.00     0.000 A 
HETATM    6  C7  UNK     1      19.085  -2.485  36.900  1.00  0.00     0.037 A 
HETATM    7  C9  UNK     1      18.755  -0.957  35.012  1.00  0.00     0.089 A 
HETATM    8  C11 UNK     1      20.090  -2.986  34.708  1.00  0.00     0.304 A 
HETATM    9  C12 UNK     1      17.738  -0.393  37.113  1.00  0.00     0.033 A 
HETATM   10  C13 UNK     1      18.239   0.195  34.422  1.00  0.00     0.039 A 
HETATM   11  C15 UNK     1      17.215   0.767  36.535  1.00  0.00     0.011 A 
HETATM   12  C16 UNK     1      17.464   1.060  35.192  1.00  0.00     0.022 A 
ENDROOT
BRANCH   4  13
HETATM   13  C3  UNK     1      20.354  -4.500  36.778  1.00  0.00     0.259 C 
HETATM   14  O2  UNK     1      21.516  -4.476  37.200  1.00  0.00    -0.267 OA
HETATM   15  N1  UNK     1      19.502  -5.603  36.891  1.00  0.00    -0.348 N 
HETATM   16  C8  UNK     1      18.134  -5.585  36.377  1.00  0.00     0.153 C 
BRANCH  15  17
HETATM   17  C1  UNK     1      19.919  -6.844  37.529  1.00  0.00     0.167 C 
BRANCH  17  18
HETATM   18  C2  UNK     1      20.509  -7.757  36.508  1.00  0.00    -0.004 A 
HETATM   19  C10 UNK     1      20.678  -7.504  35.145  1.00  0.00     0.149 A 
HETATM   20  N3  UNK     1      21.239  -8.536  34.509  1.00  0.00    -0.185 NA
HETATM   21  N2  UNK     1      21.421  -9.437  35.490  1.00  0.00    -0.285 N 
HETATM   22  C14 UNK     1      22.019 -10.715  35.186  1.00  0.00     0.179 C 
HETATM   23  C6  UNK     1      20.995  -9.013  36.714  1.00  0.00     0.122 A 
ENDBRANCH  17  18
ENDBRANCH  15  17
ENDBRANCH   4  13
TORSDOF 3
ENDMDL
MODEL 9
REMARK VINA RESULT:      -7.2     11.903     13.247
REMARK  3 active torsions:
REMARK  status: ('A' for Active; 'I' for Inactive)
REMARK    1  A    between atoms: C1_8  and  N1_5 
REMARK       I    between atoms: C3_10  and  N1_5 
REMARK    2  A    between atoms: C1_8  and  C2_9 
REMARK    3  A    between atoms: C3_10  and  C4_11 
ROOT
HETATM    1 Br1  UNK     1      19.970  12.112   9.362  1.00  0.00    -0.051 Br
HETATM    2  O1  UNK     1      14.573  10.308  11.465  1.00  0.00    -0.274 OA
HETATM    3  O3  UNK     1      12.922   8.734  11.602  1.00  0.00    -0.259 OA
HETATM    4  C4  UNK     1      14.810   8.181  10.281  1.00  0.00     0.108 A 
HETATM    5  C5  UNK     1      16.558   9.852  10.137  1.00  0.00     0.000 A 
HETATM    6  C7  UNK     1      16.003   8.550   9.801  1.00  0.00     0.037 A 
HETATM    7  C9  UNK     1      15.828  10.702  10.962  1.00  0.00     0.089 A 
HETATM    8  C11 UNK     1      14.016   9.068  11.161  1.00  0.00     0.304 A 
HETATM    9  C12 UNK     1      17.800  10.278   9.660  1.00  0.00     0.033 A 
HETATM   10  C13 UNK     1      16.303  11.961  11.322  1.00  0.00     0.039 A 
HETATM   11  C15 UNK     1      18.289  11.539  10.012  1.00  0.00     0.011 A 
HETATM   12  C16 UNK     1      17.543  12.378  10.842  1.00  0.00     0.022 A 
ENDROOT
BRANCH   4  13
HETATM   13  C3  UNK     1      14.335   6.849   9.887  1.00  0.00     0.259 C 
HETATM   14  O2  UNK     1      14.587   5.894  10.631  1.00  0.00    -0.267 OA
HETATM   15  N1  UNK     1      13.610   6.745   8.696  1.00  0.00    -0.348 N 
HETATM   16  C8  UNK     1      13.336   7.904   7.849  1.00  0.00     0.153 C 
BRANCH  15  17
HETATM   17  C1  UNK     1      13.079   5.475   8.219  1.00  0.00     0.167 C 
BRANCH  17  18
HETATM   18  C2  UNK     1      11.627   5.623   7.914  1.00  0.00    -0.004 A 
HETATM   19  C10 UNK     1      11.038   5.770   6.656  1.00  0.00     0.149 A 
HETATM   20  N3  UNK     1       9.709   5.878   6.733  1.00  0.00    -0.185 NA
HETATM   21  N2  UNK     1       9.473   5.798   8.054  1.00  0.00    -0.285 N 
HETATM   22  C14 UNK     1       8.118   5.878   8.545  1.00  0.00     0.179 C 
HETATM   23  C6  UNK     1      10.599   5.644   8.807  1.00  0.00     0.122 A 
ENDBRANCH  17  18
ENDBRANCH  15  17
ENDBRANCH   4  13
TORSDOF 3
ENDMDL
MODEL 10
REMARK VINA RESULT:      -7.2     18.526     20.437
REMARK  3 active torsions:
REMARK  status: ('A' for Active; 'I' for Inactive)
REMARK    1  A    between atoms: C1_8  and  N1_5 
REMARK       I    between atoms: C3_10  and  N1_5 
REMARK    2  A    between atoms: C1_8  and  C2_9 
REMARK    3  A    between atoms: C3_10  and  C4_11 
ROOT
HETATM    1 Br1  UNK     1      17.579   8.608  33.136  1.00  0.00    -0.051 Br
HETATM    2  O1  UNK     1      18.406   2.715  31.958  1.00  0.00    -0.274 OA
HETATM    3  O3  UNK     1      18.721   0.571  32.684  1.00  0.00    -0.259 OA
HETATM    4  C4  UNK     1      18.504   2.238  34.354  1.00  0.00     0.108 A 
HETATM    5  C5  UNK     1      18.170   4.509  33.581  1.00  0.00     0.000 A 
HETATM    6  C7  UNK     1      18.323   3.531  34.646  1.00  0.00     0.037 A 
HETATM    7  C9  UNK     1      18.216   4.077  32.259  1.00  0.00     0.089 A 
HETATM    8  C11 UNK     1      18.555   1.755  32.955  1.00  0.00     0.304 A 
HETATM    9  C12 UNK     1      17.978   5.869  33.840  1.00  0.00     0.033 A 
HETATM   10  C13 UNK     1      18.075   4.963  31.193  1.00  0.00     0.039 A 
HETATM   11  C15 UNK     1      17.837   6.769  32.780  1.00  0.00     0.011 A 
HETATM   12  C16 UNK     1      17.884   6.317  31.459  1.00  0.00     0.022 A 
ENDROOT
BRANCH   4  13
HETATM   13  C3  UNK     1      18.647   1.327  35.497  1.00  0.00     0.259 C 
HETATM   14  O2  UNK     1      19.693   1.376  36.156  1.00  0.00    -0.267 OA
HETATM   15  N1  UNK     1      17.582   0.467  35.779  1.00  0.00    -0.348 N 
HETATM   16  C8  UNK     1      16.365   0.445  34.970  1.00  0.00     0.153 C 
BRANCH  15  17
HETATM   17  C1  UNK     1      17.612  -0.465  36.898  1.00  0.00     0.167 C 
BRANCH  17  18
HETATM   18  C2  UNK     1      18.609  -1.540  36.626  1.00  0.00    -0.004 A 
HETATM   19  C10 UNK     1      19.193  -1.861  35.399  1.00  0.00     0.149 A 
HETATM   20  N3  UNK     1      20.049  -2.882  35.501  1.00  0.00    -0.185 NA
HETATM   21  N2  UNK     1      19.993  -3.196  36.807  1.00  0.00    -0.285 N 
HETATM   22  C14 UNK     1      20.800  -4.279  37.317  1.00  0.00     0.179 C 
HETATM   23  C6  UNK     1      19.138  -2.415  37.526  1.00  0.00     0.122 A 
ENDBRANCH  17  18
ENDBRANCH  15  17
ENDBRANCH   4  13
TORSDOF 3
ENDMDL
