MODEL 1
REMARK VINA RESULT:     -10.0      0.000      0.000
REMARK  2 active torsions:
REMARK  status: ('A' for Active; 'I' for Inactive)
REMARK    1  A    between atoms: C1_5  and  N1_4 
REMARK       I    between atoms: C10_14  and  N1_4 
REMARK    2  A    between atoms: C10_14  and  C12_16 
ROOT
HETATM    1  O1  UNK     1      18.659   4.677  29.707  1.00  0.00    -0.267 OA
HETATM    2  N1  UNK     1      18.558   4.993  32.014  1.00  0.00    -0.348 N 
HETATM    3  C10 UNK     1      18.679   4.252  30.856  1.00  0.00     0.258 C 
HETATM    4  H8  UNK     1      18.650   4.540  32.918  1.00  0.00     0.163 HD
ENDROOT
BRANCH   3   5
HETATM    5  C12 UNK     1      18.848   2.812  31.121  1.00  0.00     0.108 A 
HETATM    6  C13 UNK     1      19.416   2.093  30.146  1.00  0.00     0.037 A 
HETATM    7  C14 UNK     1      19.626   0.664  30.315  1.00  0.00    -0.001 A 
HETATM    8  C16 UNK     1      19.224   0.060  31.502  1.00  0.00     0.089 A 
HETATM    9  C17 UNK     1      20.217  -0.125  29.324  1.00  0.00     0.014 A 
HETATM   10  O2  UNK     1      18.627   0.821  32.525  1.00  0.00    -0.274 OA
HETATM   11  C18 UNK     1      19.396  -1.305  31.726  1.00  0.00     0.038 A 
HETATM   12  C15 UNK     1      18.414   2.191  32.393  1.00  0.00     0.304 A 
HETATM   13  O3  UNK     1      17.892   2.846  33.289  1.00  0.00    -0.259 OA
HETATM   14  C20 UNK     1      19.986  -2.083  30.734  1.00  0.00     0.003 A 
HETATM   15  C19 UNK     1      20.396  -1.495  29.535  1.00  0.00     0.001 A 
ENDBRANCH   3   5
BRANCH   2  16
HETATM   16  C1  UNK     1      18.385   6.430  32.009  1.00  0.00     0.118 C 
HETATM   17  C2  UNK     1      19.533   7.109  32.766  1.00  0.00     0.030 C 
HETATM   18  C3  UNK     1      19.337   6.997  34.275  1.00  0.00     0.007 C 
HETATM   19  C5  UNK     1      18.051   7.698  34.701  1.00  0.00     0.039 C 
HETATM   20  C6  UNK     1      16.865   7.362  33.831  1.00  0.00    -0.050 A 
HETATM   21  C4  UNK     1      17.022   6.801  32.549  1.00  0.00    -0.029 A 
HETATM   22  C8  UNK     1      15.577   7.677  34.293  1.00  0.00     0.007 A 
HETATM   23  C7  UNK     1      15.883   6.551  31.767  1.00  0.00     0.010 A 
HETATM   24  C9  UNK     1      14.608   6.860  32.242  1.00  0.00     0.001 A 
HETATM   25  C11 UNK     1      14.456   7.423  33.504  1.00  0.00     0.001 A 
ENDBRANCH   2  16
TORSDOF 2
ENDMDL
MODEL 2
REMARK VINA RESULT:      -9.7      2.699      3.913
REMARK  2 active torsions:
REMARK  status: ('A' for Active; 'I' for Inactive)
REMARK    1  A    between atoms: C1_5  and  N1_4 
REMARK       I    between atoms: C10_14  and  N1_4 
REMARK    2  A    between atoms: C10_14  and  C12_16 
ROOT
HETATM    1  O1  UNK     1      17.643   2.919  31.343  1.00  0.00    -0.267 OA
HETATM    2  N1  UNK     1      18.471   4.310  33.019  1.00  0.00    -0.348 N 
HETATM    3  C10 UNK     1      18.057   3.109  32.481  1.00  0.00     0.258 C 
HETATM    4  H8  UNK     1      18.853   4.339  33.960  1.00  0.00     0.163 HD
ENDROOT
BRANCH   3   5
HETATM    5  C12 UNK     1      18.158   1.994  33.440  1.00  0.00     0.108 A 
HETATM    6  C13 UNK     1      17.842   2.275  34.709  1.00  0.00     0.037 A 
HETATM    7  C14 UNK     1      17.909   1.239  35.728  1.00  0.00    -0.001 A 
HETATM    8  C16 UNK     1      18.309  -0.042  35.361  1.00  0.00     0.089 A 
HETATM    9  C17 UNK     1      17.587   1.488  37.065  1.00  0.00     0.014 A 
HETATM   10  O2  UNK     1      18.640  -0.332  34.024  1.00  0.00    -0.274 OA
HETATM   11  C18 UNK     1      18.394  -1.078  36.289  1.00  0.00     0.038 A 
HETATM   12  C15 UNK     1      18.584   0.638  33.026  1.00  0.00     0.304 A 
HETATM   13  O3  UNK     1      18.875   0.377  31.863  1.00  0.00    -0.259 OA
HETATM   14  C20 UNK     1      18.072  -0.822  37.619  1.00  0.00     0.003 A 
HETATM   15  C19 UNK     1      17.668   0.458  38.007  1.00  0.00     0.001 A 
ENDBRANCH   3   5
BRANCH   2  16
HETATM   16  C1  UNK     1      18.467   5.548  32.269  1.00  0.00     0.118 C 
HETATM   17  C2  UNK     1      19.894   5.930  31.860  1.00  0.00     0.030 C 
HETATM   18  C3  UNK     1      20.658   6.535  33.033  1.00  0.00     0.007 C 
HETATM   19  C5  UNK     1      19.978   7.815  33.511  1.00  0.00     0.039 C 
HETATM   20  C6  UNK     1      18.483   7.681  33.665  1.00  0.00    -0.050 A 
HETATM   21  C4  UNK     1      17.765   6.638  33.050  1.00  0.00    -0.029 A 
HETATM   22  C8  UNK     1      17.788   8.662  34.390  1.00  0.00     0.007 A 
HETATM   23  C7  UNK     1      16.370   6.590  33.192  1.00  0.00     0.010 A 
HETATM   24  C9  UNK     1      15.692   7.566  33.923  1.00  0.00     0.001 A 
HETATM   25  C11 UNK     1      16.402   8.601  34.521  1.00  0.00     0.001 A 
ENDBRANCH   2  16
TORSDOF 2
ENDMDL
MODEL 3
REMARK VINA RESULT:      -9.3      7.224     10.502
REMARK  2 active torsions:
REMARK  status: ('A' for Active; 'I' for Inactive)
REMARK    1  A    between atoms: C1_5  and  N1_4 
REMARK       I    between atoms: C10_14  and  N1_4 
REMARK    2  A    between atoms: C10_14  and  C12_16 
ROOT
HETATM    1  O1  UNK     1      21.612  -4.106  37.513  1.00  0.00    -0.267 OA
HETATM    2  N1  UNK     1      19.908  -3.831  35.948  1.00  0.00    -0.348 N 
HETATM    3  C10 UNK     1      20.709  -4.548  36.812  1.00  0.00     0.258 C 
HETATM    4  H8  UNK     1      19.148  -4.294  35.458  1.00  0.00     0.163 HD
ENDROOT
BRANCH   3   5
HETATM    5  C12 UNK     1      20.377  -5.984  36.831  1.00  0.00     0.108 A 
HETATM    6  C13 UNK     1      20.285  -6.553  38.039  1.00  0.00     0.037 A 
HETATM    7  C14 UNK     1      19.961  -7.966  38.161  1.00  0.00    -0.001 A 
HETATM    8  C16 UNK     1      19.752  -8.711  37.005  1.00  0.00     0.089 A 
HETATM    9  C17 UNK     1      19.853  -8.601  39.401  1.00  0.00     0.014 A 
HETATM   10  O2  UNK     1      19.851  -8.107  35.737  1.00  0.00    -0.274 OA
HETATM   11  C18 UNK     1      19.439 -10.068  37.053  1.00  0.00     0.038 A 
HETATM   12  C15 UNK     1      20.158  -6.757  35.588  1.00  0.00     0.304 A 
HETATM   13  O3  UNK     1      20.243  -6.239  34.480  1.00  0.00    -0.259 OA
HETATM   14  C20 UNK     1      19.334 -10.694  38.293  1.00  0.00     0.003 A 
HETATM   15  C19 UNK     1      19.539  -9.961  39.465  1.00  0.00     0.001 A 
ENDBRANCH   3   5
BRANCH   2  16
HETATM   16  C1  UNK     1      20.043  -2.402  35.758  1.00  0.00     0.118 C 
HETATM   17  C2  UNK     1      19.071  -1.647  36.673  1.00  0.00     0.030 C 
HETATM   18  C3  UNK     1      17.652  -1.682  36.115  1.00  0.00     0.007 C 
HETATM   19  C5  UNK     1      17.597  -0.998  34.752  1.00  0.00     0.039 C 
HETATM   20  C6  UNK     1      18.708  -1.417  33.822  1.00  0.00    -0.050 A 
HETATM   21  C4  UNK     1      19.876  -2.043  34.298  1.00  0.00    -0.029 A 
HETATM   22  C8  UNK     1      18.595  -1.117  32.455  1.00  0.00     0.007 A 
HETATM   23  C7  UNK     1      20.896  -2.372  33.390  1.00  0.00     0.010 A 
HETATM   24  C9  UNK     1      20.766  -2.076  32.033  1.00  0.00     0.001 A 
HETATM   25  C11 UNK     1      19.617  -1.449  31.566  1.00  0.00     0.001 A 
ENDBRANCH   2  16
TORSDOF 2
ENDMDL
MODEL 4
REMARK VINA RESULT:      -8.8     22.777     24.435
REMARK  2 active torsions:
REMARK  status: ('A' for Active; 'I' for Inactive)
REMARK    1  A    between atoms: C1_5  and  N1_4 
REMARK       I    between atoms: C10_14  and  N1_4 
REMARK    2  A    between atoms: C10_14  and  C12_16 
ROOT
HETATM    1  O1  UNK     1      13.872   5.657  10.255  1.00  0.00    -0.267 OA
HETATM    2  N1  UNK     1      12.282   6.924   9.117  1.00  0.00    -0.348 N 
HETATM    3  C10 UNK     1      13.414   6.731   9.881  1.00  0.00     0.258 C 
HETATM    4  H8  UNK     1      12.028   7.860   8.815  1.00  0.00     0.163 HD
ENDROOT
BRANCH   3   5
HETATM    5  C12 UNK     1      14.078   7.997  10.240  1.00  0.00     0.108 A 
HETATM    6  C13 UNK     1      15.261   8.230   9.659  1.00  0.00     0.037 A 
HETATM    7  C14 UNK     1      15.993   9.453   9.949  1.00  0.00    -0.001 A 
HETATM    8  C16 UNK     1      15.444  10.370  10.840  1.00  0.00     0.089 A 
HETATM    9  C17 UNK     1      17.230   9.738   9.365  1.00  0.00     0.014 A 
HETATM   10  O2  UNK     1      14.199  10.120  11.448  1.00  0.00    -0.274 OA
HETATM   11  C18 UNK     1      16.095  11.560  11.161  1.00  0.00     0.038 A 
HETATM   12  C15 UNK     1      13.475   8.959  11.189  1.00  0.00     0.304 A 
HETATM   13  O3  UNK     1      12.392   8.749  11.725  1.00  0.00    -0.259 OA
HETATM   14  C20 UNK     1      17.327  11.836  10.574  1.00  0.00     0.003 A 
HETATM   15  C19 UNK     1      17.893  10.927   9.677  1.00  0.00     0.001 A 
ENDBRANCH   3   5
BRANCH   2  16
HETATM   16  C1  UNK     1      11.462   5.831   8.640  1.00  0.00     0.118 C 
HETATM   17  C2  UNK     1      12.047   5.247   7.349  1.00  0.00     0.030 C 
HETATM   18  C3  UNK     1      11.725   6.134   6.150  1.00  0.00     0.007 C 
HETATM   19  C5  UNK     1      10.216   6.231   5.947  1.00  0.00     0.039 C 
HETATM   20  C6  UNK     1       9.452   6.499   7.220  1.00  0.00    -0.050 A 
HETATM   21  C4  UNK     1      10.024   6.275   8.488  1.00  0.00    -0.029 A 
HETATM   22  C8  UNK     1       8.117   6.924   7.132  1.00  0.00     0.007 A 
HETATM   23  C7  UNK     1       9.250   6.500   9.638  1.00  0.00     0.010 A 
HETATM   24  C9  UNK     1       7.927   6.931   9.535  1.00  0.00     0.001 A 
HETATM   25  C11 UNK     1       7.362   7.142   8.283  1.00  0.00     0.001 A 
ENDBRANCH   2  16
TORSDOF 2
ENDMDL
MODEL 5
REMARK VINA RESULT:      -8.6     23.096     24.957
REMARK  2 active torsions:
REMARK  status: ('A' for Active; 'I' for Inactive)
REMARK    1  A    between atoms: C1_5  and  N1_4 
REMARK       I    between atoms: C10_14  and  N1_4 
REMARK    2  A    between atoms: C10_14  and  C12_16 
ROOT
HETATM    1  O1  UNK     1      11.121   7.291   6.393  1.00  0.00    -0.267 OA
HETATM    2  N1  UNK     1      12.048   7.011   8.513  1.00  0.00    -0.348 N 
HETATM    3  C10 UNK     1      11.020   7.191   7.611  1.00  0.00     0.258 C 
HETATM    4  H8  UNK     1      11.840   6.882   9.499  1.00  0.00     0.163 HD
ENDROOT
BRANCH   3   5
HETATM    5  C12 UNK     1       9.700   7.259   8.262  1.00  0.00     0.108 A 
HETATM    6  C13 UNK     1       9.541   8.219   9.180  1.00  0.00     0.037 A 
HETATM    7  C14 UNK     1       8.273   8.366   9.877  1.00  0.00    -0.001 A 
HETATM    8  C16 UNK     1       7.234   7.492   9.575  1.00  0.00     0.089 A 
HETATM    9  C17 UNK     1       8.063   9.355  10.841  1.00  0.00     0.014 A 
HETATM   10  O2  UNK     1       7.406   6.483   8.608  1.00  0.00    -0.274 OA
HETATM   11  C18 UNK     1       5.995   7.579  10.207  1.00  0.00     0.038 A 
HETATM   12  C15 UNK     1       8.608   6.319   7.924  1.00  0.00     0.304 A 
HETATM   13  O3  UNK     1       8.749   5.436   7.084  1.00  0.00    -0.259 OA
HETATM   14  C20 UNK     1       5.794   8.567  11.167  1.00  0.00     0.003 A 
HETATM   15  C19 UNK     1       6.825   9.455  11.483  1.00  0.00     0.001 A 
ENDBRANCH   3   5
BRANCH   2  16
HETATM   16  C1  UNK     1      13.435   6.912   8.111  1.00  0.00     0.118 C 
HETATM   17  C2  UNK     1      13.920   5.462   8.215  1.00  0.00     0.030 C 
HETATM   18  C3  UNK     1      14.215   5.084   9.663  1.00  0.00     0.007 C 
HETATM   19  C5  UNK     1      15.328   5.963  10.228  1.00  0.00     0.039 C 
HETATM   20  C6  UNK     1      15.148   7.430   9.928  1.00  0.00    -0.050 A 
HETATM   21  C4  UNK     1      14.287   7.877   8.906  1.00  0.00    -0.029 A 
HETATM   22  C8  UNK     1      15.908   8.366  10.647  1.00  0.00     0.007 A 
HETATM   23  C7  UNK     1      14.193   9.253   8.643  1.00  0.00     0.010 A 
HETATM   24  C9  UNK     1      14.948  10.173   9.372  1.00  0.00     0.001 A 
HETATM   25  C11 UNK     1      15.805   9.729  10.373  1.00  0.00     0.001 A 
ENDBRANCH   2  16
TORSDOF 2
ENDMDL
MODEL 6
REMARK VINA RESULT:      -8.5     22.882     24.324
REMARK  2 active torsions:
REMARK  status: ('A' for Active; 'I' for Inactive)
REMARK    1  A    between atoms: C1_5  and  N1_4 
REMARK       I    between atoms: C10_14  and  N1_4 
REMARK    2  A    between atoms: C10_14  and  C12_16 
ROOT
HETATM    1  O1  UNK     1      10.456   6.933   6.799  1.00  0.00    -0.267 OA
HETATM    2  N1  UNK     1       9.728   6.386   8.944  1.00  0.00    -0.348 N 
HETATM    3  C10 UNK     1      10.669   6.584   7.954  1.00  0.00     0.258 C 
HETATM    4  H8  UNK     1      10.026   6.153   9.887  1.00  0.00     0.163 HD
ENDROOT
BRANCH   3   5
HETATM    5  C12 UNK     1      12.044   6.330   8.421  1.00  0.00     0.108 A 
HETATM    6  C13 UNK     1      12.788   7.410   8.684  1.00  0.00     0.037 A 
HETATM    7  C14 UNK     1      14.158   7.261   9.151  1.00  0.00    -0.001 A 
HETATM    8  C16 UNK     1      14.678   5.981   9.314  1.00  0.00     0.089 A 
HETATM    9  C17 UNK     1      14.971   8.361   9.440  1.00  0.00     0.014 A 
HETATM   10  O2  UNK     1      13.890   4.848   9.035  1.00  0.00    -0.274 OA
HETATM   11  C18 UNK     1      15.982   5.770   9.757  1.00  0.00     0.038 A 
HETATM   12  C15 UNK     1      12.575   4.959   8.589  1.00  0.00     0.304 A 
HETATM   13  O3  UNK     1      11.897   3.966   8.347  1.00  0.00    -0.259 OA
HETATM   14  C20 UNK     1      16.785   6.871  10.042  1.00  0.00     0.003 A 
HETATM   15  C19 UNK     1      16.281   8.164   9.885  1.00  0.00     0.001 A 
ENDBRANCH   3   5
BRANCH   2  16
HETATM   16  C1  UNK     1       8.310   6.575   8.726  1.00  0.00     0.118 C 
HETATM   17  C2  UNK     1       7.943   8.059   8.852  1.00  0.00     0.030 C 
HETATM   18  C3  UNK     1       7.871   8.484  10.315  1.00  0.00     0.007 C 
HETATM   19  C5  UNK     1       6.787   7.698  11.047  1.00  0.00     0.039 C 
HETATM   20  C6  UNK     1       6.825   6.216  10.767  1.00  0.00    -0.050 A 
HETATM   21  C4  UNK     1       7.509   5.689   9.654  1.00  0.00    -0.029 A 
HETATM   22  C8  UNK     1       6.106   5.351  11.607  1.00  0.00     0.007 A 
HETATM   23  C7  UNK     1       7.472   4.306   9.420  1.00  0.00     0.010 A 
HETATM   24  C9  UNK     1       6.761   3.456  10.268  1.00  0.00     0.001 A 
HETATM   25  C11 UNK     1       6.079   3.979  11.361  1.00  0.00     0.001 A 
ENDBRANCH   2  16
TORSDOF 2
ENDMDL
MODEL 7
REMARK VINA RESULT:      -8.5     22.834     24.552
REMARK  2 active torsions:
REMARK  status: ('A' for Active; 'I' for Inactive)
REMARK    1  A    between atoms: C1_5  and  N1_4 
REMARK       I    between atoms: C10_14  and  N1_4 
REMARK    2  A    between atoms: C10_14  and  C12_16 
ROOT
HETATM    1  O1  UNK     1      11.121   6.488   6.848  1.00  0.00    -0.267 OA
HETATM    2  N1  UNK     1      12.312   7.037   8.773  1.00  0.00    -0.348 N 
HETATM    3  C10 UNK     1      11.173   6.805   8.030  1.00  0.00     0.258 C 
HETATM    4  H8  UNK     1      12.238   7.238   9.766  1.00  0.00     0.163 HD
ENDROOT
BRANCH   3   5
HETATM    5  C12 UNK     1       9.939   6.979   8.817  1.00  0.00     0.108 A 
HETATM    6  C13 UNK     1       9.145   5.907   8.917  1.00  0.00     0.037 A 
HETATM    7  C14 UNK     1       7.905   5.980   9.674  1.00  0.00    -0.001 A 
HETATM    8  C16 UNK     1       7.560   7.181  10.286  1.00  0.00     0.089 A 
HETATM    9  C17 UNK     1       7.047   4.885   9.805  1.00  0.00     0.014 A 
HETATM   10  O2  UNK     1       8.399   8.306  10.178  1.00  0.00    -0.274 OA
HETATM   11  C18 UNK     1       6.386   7.317  11.024  1.00  0.00     0.038 A 
HETATM   12  C15 UNK     1       9.593   8.266   9.462  1.00  0.00     0.304 A 
HETATM   13  O3  UNK     1      10.317   9.252   9.372  1.00  0.00    -0.259 OA
HETATM   14  C20 UNK     1       5.536   6.221  11.151  1.00  0.00     0.003 A 
HETATM   15  C19 UNK     1       5.866   5.007  10.543  1.00  0.00     0.001 A 
ENDBRANCH   3   5
BRANCH   2  16
HETATM   16  C1  UNK     1      13.645   6.925   8.220  1.00  0.00     0.118 C 
HETATM   17  C2  UNK     1      14.150   5.482   8.327  1.00  0.00     0.030 C 
HETATM   18  C3  UNK     1      14.612   5.166   9.747  1.00  0.00     0.007 C 
HETATM   19  C5  UNK     1      15.775   6.071  10.144  1.00  0.00     0.039 C 
HETATM   20  C6  UNK     1      15.550   7.524   9.805  1.00  0.00    -0.050 A 
HETATM   21  C4  UNK     1      14.575   7.925   8.872  1.00  0.00    -0.029 A 
HETATM   22  C8  UNK     1      16.380   8.491  10.394  1.00  0.00     0.007 A 
HETATM   23  C7  UNK     1      14.441   9.288   8.564  1.00  0.00     0.010 A 
HETATM   24  C9  UNK     1      15.266  10.240   9.163  1.00  0.00     0.001 A 
HETATM   25  C11 UNK     1      16.235   9.841  10.077  1.00  0.00     0.001 A 
ENDBRANCH   2  16
TORSDOF 2
ENDMDL
MODEL 8
REMARK VINA RESULT:      -8.5     14.648     17.564
REMARK  2 active torsions:
REMARK  status: ('A' for Active; 'I' for Inactive)
REMARK    1  A    between atoms: C1_5  and  N1_4 
REMARK       I    between atoms: C10_14  and  N1_4 
REMARK    2  A    between atoms: C10_14  and  C12_16 
ROOT
HETATM    1  O1  UNK     1      30.149  -4.189  31.978  1.00  0.00    -0.267 OA
HETATM    2  N1  UNK     1      29.910  -6.485  31.658  1.00  0.00    -0.348 N 
HETATM    3  C10 UNK     1      30.287  -5.351  32.346  1.00  0.00     0.258 C 
HETATM    4  H8  UNK     1      30.020  -7.399  32.088  1.00  0.00     0.163 HD
ENDROOT
BRANCH   3   5
HETATM    5  C12 UNK     1      30.910  -5.657  33.646  1.00  0.00     0.108 A 
HETATM    6  C13 UNK     1      32.214  -5.380  33.758  1.00  0.00     0.037 A 
HETATM    7  C14 UNK     1      32.917  -5.646  35.003  1.00  0.00    -0.001 A 
HETATM    8  C16 UNK     1      32.213  -6.195  36.070  1.00  0.00     0.089 A 
HETATM    9  C17 UNK     1      34.278  -5.371  35.164  1.00  0.00     0.014 A 
HETATM   10  O2  UNK     1      30.840  -6.485  35.947  1.00  0.00    -0.274 OA
HETATM   11  C18 UNK     1      32.827  -6.475  37.289  1.00  0.00     0.038 A 
HETATM   12  C15 UNK     1      30.140  -6.240  34.768  1.00  0.00     0.304 A 
HETATM   13  O3  UNK     1      28.945  -6.497  34.670  1.00  0.00    -0.259 OA
HETATM   14  C20 UNK     1      34.183  -6.198  37.441  1.00  0.00     0.003 A 
HETATM   15  C19 UNK     1      34.907  -5.646  36.381  1.00  0.00     0.001 A 
ENDBRANCH   3   5
BRANCH   2  16
HETATM   16  C1  UNK     1      29.275  -6.439  30.358  1.00  0.00     0.118 C 
HETATM   17  C2  UNK     1      27.755  -6.315  30.510  1.00  0.00     0.030 C 
HETATM   18  C3  UNK     1      27.128  -7.657  30.872  1.00  0.00     0.007 C 
HETATM   19  C5  UNK     1      27.379  -8.679  29.767  1.00  0.00     0.039 C 
HETATM   20  C6  UNK     1      28.807  -8.701  29.280  1.00  0.00    -0.050 A 
HETATM   21  C4  UNK     1      29.689  -7.631  29.524  1.00  0.00    -0.029 A 
HETATM   22  C8  UNK     1      29.242  -9.791  28.510  1.00  0.00     0.007 A 
HETATM   23  C7  UNK     1      30.993  -7.687  29.007  1.00  0.00     0.010 A 
HETATM   24  C9  UNK     1      31.416  -8.781  28.252  1.00  0.00     0.001 A 
HETATM   25  C11 UNK     1      30.540  -9.832  28.004  1.00  0.00     0.001 A 
ENDBRANCH   2  16
TORSDOF 2
ENDMDL
MODEL 9
REMARK VINA RESULT:      -8.4     11.842     15.294
REMARK  2 active torsions:
REMARK  status: ('A' for Active; 'I' for Inactive)
REMARK    1  A    between atoms: C1_5  and  N1_4 
REMARK       I    between atoms: C10_14  and  N1_4 
REMARK    2  A    between atoms: C10_14  and  C12_16 
ROOT
HETATM    1  O1  UNK     1      23.424  -7.810  39.806  1.00  0.00    -0.267 OA
HETATM    2  N1  UNK     1      23.593  -8.599  37.620  1.00  0.00    -0.348 N 
HETATM    3  C10 UNK     1      24.063  -8.024  38.783  1.00  0.00     0.258 C 
HETATM    4  H8  UNK     1      24.231  -8.782  36.851  1.00  0.00     0.163 HD
ENDROOT
BRANCH   3   5
HETATM    5  C12 UNK     1      25.490  -7.661  38.699  1.00  0.00     0.108 A 
HETATM    6  C13 UNK     1      26.352  -8.677  38.580  1.00  0.00     0.037 A 
HETATM    7  C14 UNK     1      27.781  -8.419  38.489  1.00  0.00    -0.001 A 
HETATM    8  C16 UNK     1      28.232  -7.104  38.530  1.00  0.00     0.089 A 
HETATM    9  C17 UNK     1      28.717  -9.449  38.363  1.00  0.00     0.014 A 
HETATM   10  O2  UNK     1      27.320  -6.039  38.655  1.00  0.00    -0.274 OA
HETATM   11  C18 UNK     1      29.587  -6.790  38.449  1.00  0.00     0.038 A 
HETATM   12  C15 UNK     1      25.946  -6.254  38.743  1.00  0.00     0.304 A 
HETATM   13  O3  UNK     1      25.159  -5.320  38.852  1.00  0.00    -0.259 OA
HETATM   14  C20 UNK     1      30.514  -7.822  38.324  1.00  0.00     0.003 A 
HETATM   15  C19 UNK     1      30.080  -9.149  38.280  1.00  0.00     0.001 A 
ENDBRANCH   3   5
BRANCH   2  16
HETATM   16  C1  UNK     1      22.224  -9.040  37.463  1.00  0.00     0.118 C 
HETATM   17  C2  UNK     1      22.183 -10.453  36.868  1.00  0.00     0.030 C 
HETATM   18  C3  UNK     1      22.445 -10.424  35.365  1.00  0.00     0.007 C 
HETATM   19  C5  UNK     1      21.368  -9.612  34.651  1.00  0.00     0.039 C 
HETATM   20  C6  UNK     1      21.066  -8.293  35.318  1.00  0.00    -0.050 A 
HETATM   21  C4  UNK     1      21.433  -8.037  36.653  1.00  0.00    -0.029 A 
HETATM   22  C8  UNK     1      20.344  -7.324  34.603  1.00  0.00     0.007 A 
HETATM   23  C7  UNK     1      21.087  -6.807  37.234  1.00  0.00     0.010 A 
HETATM   24  C9  UNK     1      20.377  -5.849  36.509  1.00  0.00     0.001 A 
HETATM   25  C11 UNK     1      20.006  -6.108  35.195  1.00  0.00     0.001 A 
ENDBRANCH   2  16
TORSDOF 2
ENDMDL
MODEL 10
REMARK VINA RESULT:      -8.4      3.210      8.457
REMARK  2 active torsions:
REMARK  status: ('A' for Active; 'I' for Inactive)
REMARK    1  A    between atoms: C1_5  and  N1_4 
REMARK       I    between atoms: C10_14  and  N1_4 
REMARK    2  A    between atoms: C10_14  and  C12_16 
ROOT
HETATM    1  O1  UNK     1      18.970   8.223  34.036  1.00  0.00    -0.267 OA
HETATM    2  N1  UNK     1      18.104   6.895  32.328  1.00  0.00    -0.348 N 
HETATM    3  C10 UNK     1      18.087   7.932  33.238  1.00  0.00     0.258 C 
HETATM    4  H8  UNK     1      17.338   6.784  31.671  1.00  0.00     0.163 HD
ENDROOT
BRANCH   3   5
HETATM    5  C12 UNK     1      16.843   8.720  33.174  1.00  0.00     0.108 A 
HETATM    6  C13 UNK     1      16.472   9.332  34.305  1.00  0.00     0.037 A 
HETATM    7  C14 UNK     1      15.259  10.135  34.341  1.00  0.00    -0.001 A 
HETATM    8  C16 UNK     1      14.494  10.251  33.185  1.00  0.00     0.089 A 
HETATM    9  C17 UNK     1      14.835  10.792  35.499  1.00  0.00     0.014 A 
HETATM   10  O2  UNK     1      14.890   9.605  31.998  1.00  0.00    -0.274 OA
HETATM   11  C18 UNK     1      13.322  11.003  33.153  1.00  0.00     0.038 A 
HETATM   12  C15 UNK     1      16.046   8.832  31.932  1.00  0.00     0.304 A 
HETATM   13  O3  UNK     1      16.382   8.272  30.894  1.00  0.00    -0.259 OA
HETATM   14  C20 UNK     1      12.906  11.655  34.311  1.00  0.00     0.003 A 
HETATM   15  C19 UNK     1      13.661  11.550  35.482  1.00  0.00     0.001 A 
ENDBRANCH   3   5
BRANCH   2  16
HETATM   16  C1  UNK     1      19.221   5.984  32.200  1.00  0.00     0.118 C 
HETATM   17  C2  UNK     1      19.797   6.038  30.780  1.00  0.00     0.030 C 
HETATM   18  C3  UNK     1      18.925   5.254  29.804  1.00  0.00     0.007 C 
HETATM   19  C5  UNK     1      18.869   3.782  30.202  1.00  0.00     0.039 C 
HETATM   20  C6  UNK     1      18.614   3.564  31.673  1.00  0.00    -0.050 A 
HETATM   21  C4  UNK     1      18.816   4.588  32.619  1.00  0.00    -0.029 A 
HETATM   22  C8  UNK     1      18.225   2.289  32.110  1.00  0.00     0.007 A 
HETATM   23  C7  UNK     1      18.605   4.314  33.980  1.00  0.00     0.010 A 
HETATM   24  C9  UNK     1      18.210   3.044  34.399  1.00  0.00     0.001 A 
HETATM   25  C11 UNK     1      18.020   2.032  33.465  1.00  0.00     0.001 A 
ENDBRANCH   2  16
TORSDOF 2
ENDMDL
