MODEL 1
REMARK VINA RESULT:      -8.6      0.000      0.000
REMARK  5 active torsions:
REMARK  status: ('A' for Active; 'I' for Inactive)
REMARK    1  A    between atoms: C11_15  and  O2_3 
REMARK    2  A    between atoms: C14_18  and  O2_3 
REMARK    3  A    between atoms: C1_5  and  C3_7 
REMARK    4  A    between atoms: C3_7  and  C6_10 
REMARK    5  A    between atoms: C14_18  and  C15_19 
ROOT
HETATM    1  O1  UNK     1      16.133   6.229  32.549  1.00  0.00    -0.274 OA
HETATM    2  O3  UNK     1      14.552   7.417  33.663  1.00  0.00    -0.259 OA
HETATM    3  C1  UNK     1      16.798   8.177  33.891  1.00  0.00     0.024 A 
HETATM    4  C2  UNK     1      18.100   7.977  33.593  1.00  0.00    -0.037 A 
HETATM    5  C4  UNK     1      18.476   6.868  32.693  1.00  0.00     0.005 A 
HETATM    6  C5  UNK     1      17.478   6.030  32.203  1.00  0.00     0.092 A 
HETATM    7  C7  UNK     1      15.735   7.268  33.373  1.00  0.00     0.295 A 
HETATM    8  C8  UNK     1      19.792   6.601  32.283  1.00  0.00     0.017 A 
HETATM    9  C9  UNK     1      19.224   8.819  34.143  1.00  0.00     0.050 C 
HETATM   10  C10 UNK     1      17.747   4.958  31.347  1.00  0.00     0.075 A 
HETATM   11  C11 UNK     1      19.058   4.711  30.959  1.00  0.00     0.071 A 
HETATM   12  C12 UNK     1      20.080   5.533  31.425  1.00  0.00     0.038 A 
ENDROOT
BRANCH  11  13
HETATM   13  O2  UNK     1      19.341   3.673  30.125  1.00  0.00    -0.347 OA
BRANCH  13  14
HETATM   14  C14 UNK     1      18.348   2.658  29.991  1.00  0.00     0.214 C 
BRANCH  14  15
HETATM   15  C15 UNK     1      19.025   1.326  29.854  1.00  0.00    -0.034 A 
HETATM   16  C16 UNK     1      19.017   0.670  28.628  1.00  0.00     0.012 A 
HETATM   17  C18 UNK     1      19.647  -0.567  28.503  1.00  0.00     0.043 A 
HETATM   18  C20 UNK     1      20.279  -1.143  29.605  1.00  0.00     0.116 A 
HETATM   19  C19 UNK     1      20.282  -0.480  30.832  1.00  0.00     0.043 A 
HETATM   20  F1  UNK     1      20.884  -2.332  29.484  1.00  0.00    -0.206 F 
HETATM   21  C17 UNK     1      19.652   0.759  30.957  1.00  0.00     0.012 A 
ENDBRANCH  14  15
ENDBRANCH  13  14
ENDBRANCH  11  13
BRANCH   3  22
HETATM   22  C3  UNK     1      16.272   9.304  34.742  1.00  0.00     0.045 C 
BRANCH  22  23
HETATM   23  C6  UNK     1      15.968  10.536  33.903  1.00  0.00     0.000 C 
HETATM   24  C13 UNK     1      16.761  11.738  34.396  1.00  0.00     0.005 C 
ENDBRANCH  22  23
ENDBRANCH   3  22
TORSDOF 5
ENDMDL
MODEL 2
REMARK VINA RESULT:      -8.5      1.702      2.358
REMARK  5 active torsions:
REMARK  status: ('A' for Active; 'I' for Inactive)
REMARK    1  A    between atoms: C11_15  and  O2_3 
REMARK    2  A    between atoms: C14_18  and  O2_3 
REMARK    3  A    between atoms: C1_5  and  C3_7 
REMARK    4  A    between atoms: C3_7  and  C6_10 
REMARK    5  A    between atoms: C14_18  and  C15_19 
ROOT
HETATM    1  O1  UNK     1      16.369   8.496  33.076  1.00  0.00    -0.274 OA
HETATM    2  O3  UNK     1      15.734  10.599  33.646  1.00  0.00    -0.259 OA
HETATM    3  C1  UNK     1      18.022  10.050  34.020  1.00  0.00     0.024 A 
HETATM    4  C2  UNK     1      18.985   9.105  33.969  1.00  0.00    -0.037 A 
HETATM    5  C4  UNK     1      18.668   7.775  33.412  1.00  0.00     0.005 A 
HETATM    6  C5  UNK     1      17.369   7.515  32.986  1.00  0.00     0.092 A 
HETATM    7  C7  UNK     1      16.628   9.761  33.574  1.00  0.00     0.295 A 
HETATM    8  C8  UNK     1      19.606   6.739  33.271  1.00  0.00     0.017 A 
HETATM    9  C9  UNK     1      20.393   9.317  34.471  1.00  0.00     0.050 C 
HETATM   10  C10 UNK     1      16.985   6.284  32.446  1.00  0.00     0.075 A 
HETATM   11  C11 UNK     1      17.929   5.272  32.322  1.00  0.00     0.071 A 
HETATM   12  C12 UNK     1      19.240   5.500  32.732  1.00  0.00     0.038 A 
ENDROOT
BRANCH  11  13
HETATM   13  O2  UNK     1      17.576   4.067  31.798  1.00  0.00    -0.347 OA
BRANCH  13  14
HETATM   14  C14 UNK     1      18.394   2.947  32.134  1.00  0.00     0.214 C 
BRANCH  14  15
HETATM   15  C15 UNK     1      18.568   2.086  30.918  1.00  0.00    -0.034 A 
HETATM   16  C16 UNK     1      19.356   0.942  30.990  1.00  0.00     0.012 A 
HETATM   17  C18 UNK     1      19.517   0.143  29.859  1.00  0.00     0.043 A 
HETATM   18  C20 UNK     1      18.891   0.494  28.662  1.00  0.00     0.116 A 
HETATM   19  C19 UNK     1      18.104   1.643  28.597  1.00  0.00     0.043 A 
HETATM   20  F1  UNK     1      19.047  -0.274  27.576  1.00  0.00    -0.206 F 
HETATM   21  C17 UNK     1      17.942   2.442  29.729  1.00  0.00     0.012 A 
ENDBRANCH  14  15
ENDBRANCH  13  14
ENDBRANCH  11  13
BRANCH   3  22
HETATM   22  C3  UNK     1      18.225  11.463  34.504  1.00  0.00     0.045 C 
BRANCH  22  23
HETATM   23  C6  UNK     1      18.590  12.394  33.358  1.00  0.00     0.000 C 
HETATM   24  C13 UNK     1      18.412  13.849  33.763  1.00  0.00     0.005 C 
ENDBRANCH  22  23
ENDBRANCH   3  22
TORSDOF 5
ENDMDL
MODEL 3
REMARK VINA RESULT:      -8.1      3.829      7.891
REMARK  5 active torsions:
REMARK  status: ('A' for Active; 'I' for Inactive)
REMARK    1  A    between atoms: C11_15  and  O2_3 
REMARK    2  A    between atoms: C14_18  and  O2_3 
REMARK    3  A    between atoms: C1_5  and  C3_7 
REMARK    4  A    between atoms: C3_7  and  C6_10 
REMARK    5  A    between atoms: C14_18  and  C15_19 
ROOT
HETATM    1  O1  UNK     1      17.735   2.204  33.912  1.00  0.00    -0.274 OA
HETATM    2  O3  UNK     1      17.283   1.176  35.884  1.00  0.00    -0.259 OA
HETATM    3  C1  UNK     1      18.264  -0.179  34.189  1.00  0.00     0.024 A 
HETATM    4  C2  UNK     1      18.714  -0.259  32.918  1.00  0.00    -0.037 A 
HETATM    5  C4  UNK     1      18.723   0.954  32.074  1.00  0.00     0.005 A 
HETATM    6  C5  UNK     1      18.232   2.144  32.601  1.00  0.00     0.092 A 
HETATM    7  C7  UNK     1      17.726   1.097  34.742  1.00  0.00     0.295 A 
HETATM    8  C8  UNK     1      19.212   0.991  30.759  1.00  0.00     0.017 A 
HETATM    9  C9  UNK     1      19.203  -1.536  32.281  1.00  0.00     0.050 C 
HETATM   10  C10 UNK     1      18.204   3.337  31.871  1.00  0.00     0.075 A 
HETATM   11  C11 UNK     1      18.688   3.348  30.569  1.00  0.00     0.071 A 
HETATM   12  C12 UNK     1      19.194   2.176  30.013  1.00  0.00     0.038 A 
ENDROOT
BRANCH  11  13
HETATM   13  O2  UNK     1      18.672   4.498  29.842  1.00  0.00    -0.347 OA
BRANCH  13  14
HETATM   14  C14 UNK     1      19.709   5.444  30.098  1.00  0.00     0.214 C 
BRANCH  14  15
HETATM   15  C15 UNK     1      19.343   6.257  31.305  1.00  0.00    -0.034 A 
HETATM   16  C16 UNK     1      18.101   6.879  31.366  1.00  0.00     0.012 A 
HETATM   17  C18 UNK     1      17.762   7.634  32.489  1.00  0.00     0.043 A 
HETATM   18  C20 UNK     1      18.669   7.764  33.542  1.00  0.00     0.116 A 
HETATM   19  C19 UNK     1      19.913   7.137  33.473  1.00  0.00     0.043 A 
HETATM   20  F1  UNK     1      18.342   8.489  34.619  1.00  0.00    -0.206 F 
HETATM   21  C17 UNK     1      20.251   6.381  32.350  1.00  0.00     0.012 A 
ENDBRANCH  14  15
ENDBRANCH  13  14
ENDBRANCH  11  13
BRANCH   3  22
HETATM   22  C3  UNK     1      18.258  -1.320  35.174  1.00  0.00     0.045 C 
BRANCH  22  23
HETATM   23  C6  UNK     1      19.607  -1.467  35.859  1.00  0.00     0.000 C 
HETATM   24  C13 UNK     1      20.132  -2.889  35.725  1.00  0.00     0.005 C 
ENDBRANCH  22  23
ENDBRANCH   3  22
TORSDOF 5
ENDMDL
MODEL 4
REMARK VINA RESULT:      -7.9      7.848     10.135
REMARK  5 active torsions:
REMARK  status: ('A' for Active; 'I' for Inactive)
REMARK    1  A    between atoms: C11_15  and  O2_3 
REMARK    2  A    between atoms: C14_18  and  O2_3 
REMARK    3  A    between atoms: C1_5  and  C3_7 
REMARK    4  A    between atoms: C3_7  and  C6_10 
REMARK    5  A    between atoms: C14_18  and  C15_19 
ROOT
HETATM    1  O1  UNK     1      19.485  -1.380  33.764  1.00  0.00    -0.274 OA
HETATM    2  O3  UNK     1      18.855   0.262  32.329  1.00  0.00    -0.259 OA
HETATM    3  C1  UNK     1      18.199   0.540  34.602  1.00  0.00     0.024 A 
HETATM    4  C2  UNK     1      18.182   0.023  35.849  1.00  0.00    -0.037 A 
HETATM    5  C4  UNK     1      18.878  -1.252  36.116  1.00  0.00     0.005 A 
HETATM    6  C5  UNK     1      19.505  -1.911  35.063  1.00  0.00     0.092 A 
HETATM    7  C7  UNK     1      18.861  -0.179  33.475  1.00  0.00     0.295 A 
HETATM    8  C8  UNK     1      18.961  -1.850  37.384  1.00  0.00     0.017 A 
HETATM    9  C9  UNK     1      17.469   0.668  37.013  1.00  0.00     0.050 C 
HETATM   10  C10 UNK     1      20.185  -3.121  35.229  1.00  0.00     0.075 A 
HETATM   11  C11 UNK     1      20.248  -3.697  36.492  1.00  0.00     0.071 A 
HETATM   12  C12 UNK     1      19.638  -3.061  37.570  1.00  0.00     0.038 A 
ENDROOT
BRANCH  11  13
HETATM   13  O2  UNK     1      20.906  -4.874  36.675  1.00  0.00    -0.347 OA
BRANCH  13  14
HETATM   14  C14 UNK     1      21.461  -5.114  37.968  1.00  0.00     0.214 C 
BRANCH  14  15
HETATM   15  C15 UNK     1      21.013  -6.463  38.449  1.00  0.00    -0.034 A 
HETATM   16  C16 UNK     1      21.900  -7.275  39.148  1.00  0.00     0.012 A 
HETATM   17  C18 UNK     1      21.482  -8.528  39.595  1.00  0.00     0.043 A 
HETATM   18  C20 UNK     1      20.181  -8.963  39.338  1.00  0.00     0.116 A 
HETATM   19  C19 UNK     1      19.298  -8.143  38.636  1.00  0.00     0.043 A 
HETATM   20  F1  UNK     1      19.781 -10.166  39.768  1.00  0.00    -0.206 F 
HETATM   21  C17 UNK     1      19.716  -6.889  38.189  1.00  0.00     0.012 A 
ENDBRANCH  14  15
ENDBRANCH  13  14
ENDBRANCH  11  13
BRANCH   3  22
HETATM   22  C3  UNK     1      17.586   1.858  34.206  1.00  0.00     0.045 C 
BRANCH  22  23
HETATM   23  C6  UNK     1      18.521   3.018  34.512  1.00  0.00     0.000 C 
HETATM   24  C13 UNK     1      18.268   4.183  33.567  1.00  0.00     0.005 C 
ENDBRANCH  22  23
ENDBRANCH   3  22
TORSDOF 5
ENDMDL
MODEL 5
REMARK VINA RESULT:      -7.9      9.216     14.102
REMARK  5 active torsions:
REMARK  status: ('A' for Active; 'I' for Inactive)
REMARK    1  A    between atoms: C11_15  and  O2_3 
REMARK    2  A    between atoms: C14_18  and  O2_3 
REMARK    3  A    between atoms: C1_5  and  C3_7 
REMARK    4  A    between atoms: C3_7  and  C6_10 
REMARK    5  A    between atoms: C14_18  and  C15_19 
ROOT
HETATM    1  O1  UNK     1      22.215  -6.533  37.557  1.00  0.00    -0.274 OA
HETATM    2  O3  UNK     1      23.441  -8.429  37.791  1.00  0.00    -0.259 OA
HETATM    3  C1  UNK     1      21.161  -8.718  37.167  1.00  0.00     0.024 A 
HETATM    4  C2  UNK     1      19.970  -8.132  36.914  1.00  0.00    -0.037 A 
HETATM    5  C4  UNK     1      19.866  -6.659  36.939  1.00  0.00     0.005 A 
HETATM    6  C5  UNK     1      20.993  -5.910  37.262  1.00  0.00     0.092 A 
HETATM    7  C7  UNK     1      22.361  -7.909  37.525  1.00  0.00     0.295 A 
HETATM    8  C8  UNK     1      18.690  -5.950  36.646  1.00  0.00     0.017 A 
HETATM    9  C9  UNK     1      18.706  -8.900  36.615  1.00  0.00     0.050 C 
HETATM   10  C10 UNK     1      20.981  -4.512  37.309  1.00  0.00     0.075 A 
HETATM   11  C11 UNK     1      19.804  -3.833  37.020  1.00  0.00     0.071 A 
HETATM   12  C12 UNK     1      18.659  -4.551  36.687  1.00  0.00     0.038 A 
ENDROOT
BRANCH  11  13
HETATM   13  O2  UNK     1      19.771  -2.473  37.059  1.00  0.00    -0.347 OA
BRANCH  13  14
HETATM   14  C14 UNK     1      19.438  -1.796  35.848  1.00  0.00     0.214 C 
BRANCH  14  15
HETATM   15  C15 UNK     1      18.190  -0.992  36.065  1.00  0.00    -0.034 A 
HETATM   16  C16 UNK     1      18.019  -0.290  37.253  1.00  0.00     0.012 A 
HETATM   17  C18 UNK     1      16.858   0.457  37.453  1.00  0.00     0.043 A 
HETATM   18  C20 UNK     1      15.875   0.496  36.464  1.00  0.00     0.116 A 
HETATM   19  C19 UNK     1      16.052  -0.212  35.275  1.00  0.00     0.043 A 
HETATM   20  F1  UNK     1      14.761   1.213  36.657  1.00  0.00    -0.206 F 
HETATM   21  C17 UNK     1      17.214  -0.959  35.075  1.00  0.00     0.012 A 
ENDBRANCH  14  15
ENDBRANCH  13  14
ENDBRANCH  11  13
BRANCH   3  22
HETATM   22  C3  UNK     1      21.420 -10.201  37.112  1.00  0.00     0.045 C 
BRANCH  22  23
HETATM   23  C6  UNK     1      21.825 -10.642  35.714  1.00  0.00     0.000 C 
HETATM   24  C13 UNK     1      23.157 -11.375  35.739  1.00  0.00     0.005 C 
ENDBRANCH  22  23
ENDBRANCH   3  22
TORSDOF 5
ENDMDL
MODEL 6
REMARK VINA RESULT:      -7.8     14.175     16.914
REMARK  5 active torsions:
REMARK  status: ('A' for Active; 'I' for Inactive)
REMARK    1  A    between atoms: C11_15  and  O2_3 
REMARK    2  A    between atoms: C14_18  and  O2_3 
REMARK    3  A    between atoms: C1_5  and  C3_7 
REMARK    4  A    between atoms: C3_7  and  C6_10 
REMARK    5  A    between atoms: C14_18  and  C15_19 
ROOT
HETATM    1  O1  UNK     1      27.942  -5.287  39.279  1.00  0.00    -0.274 OA
HETATM    2  O3  UNK     1      29.611  -3.841  39.803  1.00  0.00    -0.259 OA
HETATM    3  C1  UNK     1      30.206  -5.675  38.406  1.00  0.00     0.024 A 
HETATM    4  C2  UNK     1      29.808  -6.810  37.793  1.00  0.00    -0.037 A 
HETATM    5  C4  UNK     1      28.392  -7.222  37.875  1.00  0.00     0.005 A 
HETATM    6  C5  UNK     1      27.508  -6.446  38.618  1.00  0.00     0.092 A 
HETATM    7  C7  UNK     1      29.256  -4.856  39.212  1.00  0.00     0.295 A 
HETATM    8  C8  UNK     1      27.866  -8.356  37.237  1.00  0.00     0.017 A 
HETATM    9  C9  UNK     1      30.738  -7.717  37.024  1.00  0.00     0.050 C 
HETATM   10  C10 UNK     1      26.152  -6.764  38.748  1.00  0.00     0.075 A 
HETATM   11  C11 UNK     1      25.655  -7.894  38.111  1.00  0.00     0.071 A 
HETATM   12  C12 UNK     1      26.511  -8.690  37.354  1.00  0.00     0.038 A 
ENDROOT
BRANCH  11  13
HETATM   13  O2  UNK     1      24.339  -8.220  38.224  1.00  0.00    -0.347 OA
BRANCH  13  14
HETATM   14  C14 UNK     1      23.640  -7.720  39.363  1.00  0.00     0.214 C 
BRANCH  14  15
HETATM   15  C15 UNK     1      22.192  -7.550  39.012  1.00  0.00    -0.034 A 
HETATM   16  C16 UNK     1      21.295  -8.583  39.261  1.00  0.00     0.012 A 
HETATM   17  C18 UNK     1      19.949  -8.423  38.934  1.00  0.00     0.043 A 
HETATM   18  C20 UNK     1      19.507  -7.231  38.359  1.00  0.00     0.116 A 
HETATM   19  C19 UNK     1      20.412  -6.199  38.112  1.00  0.00     0.043 A 
HETATM   20  F1  UNK     1      18.214  -7.078  38.047  1.00  0.00    -0.206 F 
HETATM   21  C17 UNK     1      21.759  -6.359  38.439  1.00  0.00     0.012 A 
ENDBRANCH  14  15
ENDBRANCH  13  14
ENDBRANCH  11  13
BRANCH   3  22
HETATM   22  C3  UNK     1      31.602  -5.109  38.351  1.00  0.00     0.045 C 
BRANCH  22  23
HETATM   23  C6  UNK     1      31.780  -4.194  37.149  1.00  0.00     0.000 C 
HETATM   24  C13 UNK     1      32.870  -4.716  36.225  1.00  0.00     0.005 C 
ENDBRANCH  22  23
ENDBRANCH   3  22
TORSDOF 5
ENDMDL
MODEL 7
REMARK VINA RESULT:      -7.6     21.905     24.138
REMARK  5 active torsions:
REMARK  status: ('A' for Active; 'I' for Inactive)
REMARK    1  A    between atoms: C11_15  and  O2_3 
REMARK    2  A    between atoms: C14_18  and  O2_3 
REMARK    3  A    between atoms: C1_5  and  C3_7 
REMARK    4  A    between atoms: C3_7  and  C6_10 
REMARK    5  A    between atoms: C14_18  and  C15_19 
ROOT
HETATM    1  O1  UNK     1      13.758   4.998   8.976  1.00  0.00    -0.274 OA
HETATM    2  O3  UNK     1      15.866   4.631   9.733  1.00  0.00    -0.259 OA
HETATM    3  C1  UNK     1      14.973   6.806  10.113  1.00  0.00     0.024 A 
HETATM    4  C2  UNK     1      13.939   7.656   9.933  1.00  0.00    -0.037 A 
HETATM    5  C4  UNK     1      12.710   7.173   9.272  1.00  0.00     0.005 A 
HETATM    6  C5  UNK     1      12.663   5.860   8.814  1.00  0.00     0.092 A 
HETATM    7  C7  UNK     1      14.921   5.404   9.607  1.00  0.00     0.295 A 
HETATM    8  C8  UNK     1      11.562   7.959   9.078  1.00  0.00     0.017 A 
HETATM    9  C9  UNK     1      13.961   9.103  10.359  1.00  0.00     0.050 C 
HETATM   10  C10 UNK     1      11.539   5.324   8.177  1.00  0.00     0.075 A 
HETATM   11  C11 UNK     1      10.417   6.122   7.991  1.00  0.00     0.071 A 
HETATM   12  C12 UNK     1      10.428   7.439   8.443  1.00  0.00     0.038 A 
ENDROOT
BRANCH  11  13
HETATM   13  O2  UNK     1       9.314   5.619   7.375  1.00  0.00    -0.347 OA
BRANCH  13  14
HETATM   14  C14 UNK     1       8.064   6.242   7.671  1.00  0.00     0.214 C 
BRANCH  14  15
HETATM   15  C15 UNK     1       7.572   5.746   8.998  1.00  0.00    -0.034 A 
HETATM   16  C16 UNK     1       7.406   4.382   9.207  1.00  0.00     0.012 A 
HETATM   17  C18 UNK     1       6.949   3.922  10.442  1.00  0.00     0.043 A 
HETATM   18  C20 UNK     1       6.658   4.831  11.460  1.00  0.00     0.116 A 
HETATM   19  C19 UNK     1       6.827   6.199  11.243  1.00  0.00     0.043 A 
HETATM   20  F1  UNK     1       6.220   4.389  12.646  1.00  0.00    -0.206 F 
HETATM   21  C17 UNK     1       7.285   6.658  10.008  1.00  0.00     0.012 A 
ENDBRANCH  14  15
ENDBRANCH  13  14
ENDBRANCH  11  13
BRANCH   3  22
HETATM   22  C3  UNK     1      16.256   7.148  10.825  1.00  0.00     0.045 C 
BRANCH  22  23
HETATM   23  C6  UNK     1      17.312   7.652   9.853  1.00  0.00     0.000 C 
HETATM   24  C13 UNK     1      17.342   9.172   9.824  1.00  0.00     0.005 C 
ENDBRANCH  22  23
ENDBRANCH   3  22
TORSDOF 5
ENDMDL
MODEL 8
REMARK VINA RESULT:      -7.6     15.519     17.381
REMARK  5 active torsions:
REMARK  status: ('A' for Active; 'I' for Inactive)
REMARK    1  A    between atoms: C11_15  and  O2_3 
REMARK    2  A    between atoms: C14_18  and  O2_3 
REMARK    3  A    between atoms: C1_5  and  C3_7 
REMARK    4  A    between atoms: C3_7  and  C6_10 
REMARK    5  A    between atoms: C14_18  and  C15_19 
ROOT
HETATM    1  O1  UNK     1      23.608  -7.879  37.951  1.00  0.00    -0.274 OA
HETATM    2  O3  UNK     1      21.366  -7.530  37.927  1.00  0.00    -0.259 OA
HETATM    3  C1  UNK     1      22.144  -9.465  36.776  1.00  0.00     0.024 A 
HETATM    4  C2  UNK     1      23.206 -10.200  36.381  1.00  0.00    -0.037 A 
HETATM    5  C4  UNK     1      24.563  -9.802  36.807  1.00  0.00     0.005 A 
HETATM    6  C5  UNK     1      24.718  -8.653  37.577  1.00  0.00     0.092 A 
HETATM    7  C7  UNK     1      22.318  -8.227  37.590  1.00  0.00     0.295 A 
HETATM    8  C8  UNK     1      25.727 -10.520  36.491  1.00  0.00     0.017 A 
HETATM    9  C9  UNK     1      23.098 -11.420  35.500  1.00  0.00     0.050 C 
HETATM   10  C10 UNK     1      25.965  -8.205  38.021  1.00  0.00     0.075 A 
HETATM   11  C11 UNK     1      27.104  -8.930  37.691  1.00  0.00     0.071 A 
HETATM   12  C12 UNK     1      26.985 -10.089  36.928  1.00  0.00     0.038 A 
ENDROOT
BRANCH  11  13
HETATM   13  O2  UNK     1      28.328  -8.513  38.115  1.00  0.00    -0.347 OA
BRANCH  13  14
HETATM   14  C14 UNK     1      28.358  -7.472  39.091  1.00  0.00     0.214 C 
BRANCH  14  15
HETATM   15  C15 UNK     1      29.101  -6.296  38.530  1.00  0.00    -0.034 A 
HETATM   16  C16 UNK     1      29.074  -5.078  39.201  1.00  0.00     0.012 A 
HETATM   17  C18 UNK     1      29.765  -3.986  38.678  1.00  0.00     0.043 A 
HETATM   18  C20 UNK     1      30.478  -4.118  37.486  1.00  0.00     0.116 A 
HETATM   19  C19 UNK     1      30.501  -5.342  36.818  1.00  0.00     0.043 A 
HETATM   20  F1  UNK     1      31.142  -3.069  36.984  1.00  0.00    -0.206 F 
HETATM   21  C17 UNK     1      29.809  -6.435  37.341  1.00  0.00     0.012 A 
ENDBRANCH  14  15
ENDBRANCH  13  14
ENDBRANCH  11  13
BRANCH   3  22
HETATM   22  C3  UNK     1      20.706  -9.793  36.467  1.00  0.00     0.045 C 
BRANCH  22  23
HETATM   23  C6  UNK     1      20.181 -10.894  37.376  1.00  0.00     0.000 C 
HETATM   24  C13 UNK     1      19.332 -10.314  38.497  1.00  0.00     0.005 C 
ENDBRANCH  22  23
ENDBRANCH   3  22
TORSDOF 5
ENDMDL
MODEL 9
REMARK VINA RESULT:      -7.6     22.186     24.376
REMARK  5 active torsions:
REMARK  status: ('A' for Active; 'I' for Inactive)
REMARK    1  A    between atoms: C11_15  and  O2_3 
REMARK    2  A    between atoms: C14_18  and  O2_3 
REMARK    3  A    between atoms: C1_5  and  C3_7 
REMARK    4  A    between atoms: C3_7  and  C6_10 
REMARK    5  A    between atoms: C14_18  and  C15_19 
ROOT
HETATM    1  O1  UNK     1      12.865   8.755   9.665  1.00  0.00    -0.274 OA
HETATM    2  O3  UNK     1      14.318   9.724  11.114  1.00  0.00    -0.259 OA
HETATM    3  C1  UNK     1      14.856   7.517  10.400  1.00  0.00     0.024 A 
HETATM    4  C2  UNK     1      14.491   6.438   9.674  1.00  0.00    -0.037 A 
HETATM    5  C4  UNK     1      13.264   6.497   8.854  1.00  0.00     0.005 A 
HETATM    6  C5  UNK     1      12.492   7.654   8.879  1.00  0.00     0.092 A 
HETATM    7  C7  UNK     1      14.017   8.749  10.432  1.00  0.00     0.295 A 
HETATM    8  C8  UNK     1      12.821   5.451   8.029  1.00  0.00     0.017 A 
HETATM    9  C9  UNK     1      15.261   5.140   9.658  1.00  0.00     0.050 C 
HETATM   10  C10 UNK     1      11.317   7.793   8.133  1.00  0.00     0.075 A 
HETATM   11  C11 UNK     1      10.895   6.742   7.328  1.00  0.00     0.071 A 
HETATM   12  C12 UNK     1      11.647   5.572   7.274  1.00  0.00     0.038 A 
ENDROOT
BRANCH  11  13
HETATM   13  O2  UNK     1       9.756   6.857   6.594  1.00  0.00    -0.347 OA
BRANCH  13  14
HETATM   14  C14 UNK     1       8.717   5.913   6.853  1.00  0.00     0.214 C 
BRANCH  14  15
HETATM   15  C15 UNK     1       8.141   6.179   8.212  1.00  0.00    -0.034 A 
HETATM   16  C16 UNK     1       7.620   7.434   8.506  1.00  0.00     0.012 A 
HETATM   17  C18 UNK     1       7.084   7.681   9.770  1.00  0.00     0.043 A 
HETATM   18  C20 UNK     1       7.075   6.671  10.733  1.00  0.00     0.116 A 
HETATM   19  C19 UNK     1       7.600   5.414  10.431  1.00  0.00     0.043 A 
HETATM   20  F1  UNK     1       6.560   6.908  11.946  1.00  0.00    -0.206 F 
HETATM   21  C17 UNK     1       8.136   5.168   9.166  1.00  0.00     0.012 A 
ENDBRANCH  14  15
ENDBRANCH  13  14
ENDBRANCH  11  13
BRANCH   3  22
HETATM   22  C3  UNK     1      16.112   7.614  11.227  1.00  0.00     0.045 C 
BRANCH  22  23
HETATM   23  C6  UNK     1      17.343   7.783  10.349  1.00  0.00     0.000 C 
HETATM   24  C13 UNK     1      17.393   9.179   9.747  1.00  0.00     0.005 C 
ENDBRANCH  22  23
ENDBRANCH   3  22
TORSDOF 5
ENDMDL
MODEL 10
REMARK VINA RESULT:      -7.6     16.899     19.571
REMARK  5 active torsions:
REMARK  status: ('A' for Active; 'I' for Inactive)
REMARK    1  A    between atoms: C11_15  and  O2_3 
REMARK    2  A    between atoms: C14_18  and  O2_3 
REMARK    3  A    between atoms: C1_5  and  C3_7 
REMARK    4  A    between atoms: C3_7  and  C6_10 
REMARK    5  A    between atoms: C14_18  and  C15_19 
ROOT
HETATM    1  O1  UNK     1      30.731  -4.945  38.550  1.00  0.00    -0.274 OA
HETATM    2  O3  UNK     1      28.675  -4.435  39.366  1.00  0.00    -0.259 OA
HETATM    3  C1  UNK     1      29.097  -6.739  38.936  1.00  0.00     0.024 A 
HETATM    4  C2  UNK     1      29.960  -7.668  38.471  1.00  0.00    -0.037 A 
HETATM    5  C4  UNK     1      31.312  -7.253  38.044  1.00  0.00     0.005 A 
HETATM    6  C5  UNK     1      31.650  -5.904  38.097  1.00  0.00     0.092 A 
HETATM    7  C7  UNK     1      29.461  -5.294  38.978  1.00  0.00     0.295 A 
HETATM    8  C8  UNK     1      32.299  -8.142  37.590  1.00  0.00     0.017 A 
HETATM    9  C9  UNK     1      29.623  -9.133  38.340  1.00  0.00     0.050 C 
HETATM   10  C10 UNK     1      32.907  -5.427  37.713  1.00  0.00     0.075 A 
HETATM   11  C11 UNK     1      33.866  -6.325  37.261  1.00  0.00     0.071 A 
HETATM   12  C12 UNK     1      33.563  -7.682  37.202  1.00  0.00     0.038 A 
ENDROOT
BRANCH  11  13
HETATM   13  O2  UNK     1      35.095  -5.881  36.883  1.00  0.00    -0.347 OA
BRANCH  13  14
HETATM   14  C14 UNK     1      35.194  -5.246  35.609  1.00  0.00     0.214 C 
BRANCH  14  15
HETATM   15  C15 UNK     1      35.652  -6.253  34.595  1.00  0.00    -0.034 A 
HETATM   16  C16 UNK     1      36.720  -7.093  34.890  1.00  0.00     0.012 A 
HETATM   17  C18 UNK     1      37.144  -8.028  33.947  1.00  0.00     0.043 A 
HETATM   18  C20 UNK     1      36.499  -8.116  32.713  1.00  0.00     0.116 A 
HETATM   19  C19 UNK     1      35.428  -7.270  32.423  1.00  0.00     0.043 A 
HETATM   20  F1  UNK     1      36.906  -9.015  31.808  1.00  0.00    -0.206 F 
HETATM   21  C17 UNK     1      35.004  -6.334  33.368  1.00  0.00     0.012 A 
ENDBRANCH  14  15
ENDBRANCH  13  14
ENDBRANCH  11  13
BRANCH   3  22
HETATM   22  C3  UNK     1      27.715  -7.033  39.461  1.00  0.00     0.045 C 
BRANCH  22  23
HETATM   23  C6  UNK     1      26.705  -7.145  38.329  1.00  0.00     0.000 C 
HETATM   24  C13 UNK     1      25.776  -8.330  38.545  1.00  0.00     0.005 C 
ENDBRANCH  22  23
ENDBRANCH   3  22
TORSDOF 5
ENDMDL
