MODEL 1
REMARK VINA RESULT:      -7.6      0.000      0.000
REMARK  8 active torsions:
REMARK  status: ('A' for Active; 'I' for Inactive)
REMARK    1  A    between atoms: C2_8  and  O1_1 
REMARK    2  A    between atoms: C3_9  and  O2_2 
REMARK    3  A    between atoms: C4_10  and  O3_3 
REMARK    4  A    between atoms: C13_19  and  O4_4 
REMARK    5  A    between atoms: C14_20  and  O6_6 
REMARK    6  A    between atoms: C1_7  and  C7_13 
REMARK    7  A    between atoms: C7_13  and  C9_15 
REMARK    8  A    between atoms: C10_16  and  C8_14 
ROOT
HETATM    1  O5  UNK     1      18.094  -1.603  32.040  1.00  0.00    -0.287 OA
HETATM    2  C7  UNK     1      19.052  -1.369  32.768  1.00  0.00     0.187 C 
ENDROOT
BRANCH   2   3
HETATM    3  C1  UNK     1      18.824  -0.989  34.183  1.00  0.00     0.081 A 
HETATM    4  C2  UNK     1      18.215   0.228  34.489  1.00  0.00     0.087 A 
HETATM    5  C5  UNK     1      18.002   0.586  35.820  1.00  0.00     0.074 A 
HETATM    6  C4  UNK     1      18.397  -0.273  36.845  1.00  0.00     0.073 A 
HETATM    7  C6  UNK     1      19.006  -1.490  36.539  1.00  0.00     0.074 A 
HETATM    8  C3  UNK     1      19.219  -1.848  35.207  1.00  0.00     0.087 A 
BRANCH   4   9
HETATM    9  O1  UNK     1      17.821   1.082  33.503  1.00  0.00    -0.355 OA
HETATM   10  C16 UNK     1      18.045   2.473  33.722  1.00  0.00     0.210 C 
ENDBRANCH   4   9
BRANCH   6  11
HETATM   11  O3  UNK     1      18.191   0.077  38.144  1.00  0.00    -0.356 OA
HETATM   12  C18 UNK     1      17.569   1.338  38.386  1.00  0.00     0.210 C 
ENDBRANCH   6  11
BRANCH   8  13
HETATM   13  O2  UNK     1      19.815  -3.042  34.932  1.00  0.00    -0.355 OA
HETATM   14  C17 UNK     1      20.007  -3.938  36.026  1.00  0.00     0.210 C 
ENDBRANCH   8  13
ENDBRANCH   2   3
BRANCH   2  15
HETATM   15  C9  UNK     1      20.461  -1.479  32.300  1.00  0.00     0.056 C 
HETATM   16  C10 UNK     1      20.852  -0.863  31.161  1.00  0.00     0.015 C 
BRANCH  16  17
HETATM   17  C8  UNK     1      19.993  -0.064  30.303  1.00  0.00    -0.033 A 
HETATM   18  C11 UNK     1      19.494   1.157  30.758  1.00  0.00     0.051 A 
HETATM   19  C13 UNK     1      18.670   1.924  29.935  1.00  0.00     0.102 A 
HETATM   20  C14 UNK     1      18.344   1.471  28.656  1.00  0.00     0.099 A 
HETATM   21  C15 UNK     1      18.842   0.250  28.201  1.00  0.00     0.040 A 
HETATM   22  C12 UNK     1      19.667  -0.517  29.024  1.00  0.00     0.014 A 
BRANCH  19  23
HETATM   23  O4  UNK     1      18.190   3.115  30.390  1.00  0.00    -0.353 OA
HETATM   24  C19 UNK     1      19.076   4.231  30.342  1.00  0.00     0.210 C 
ENDBRANCH  19  23
BRANCH  20  25
HETATM   25  O6  UNK     1      17.540   2.211  27.843  1.00  0.00    -0.358 OA
HETATM   26  H17 UNK     1      17.902   2.195  26.940  1.00  0.00     0.217 HD
ENDBRANCH  20  25
ENDBRANCH  16  17
ENDBRANCH   2  15
TORSDOF 8
ENDMDL
MODEL 2
REMARK VINA RESULT:      -7.6      0.026      2.608
REMARK  8 active torsions:
REMARK  status: ('A' for Active; 'I' for Inactive)
REMARK    1  A    between atoms: C2_8  and  O1_1 
REMARK    2  A    between atoms: C3_9  and  O2_2 
REMARK    3  A    between atoms: C4_10  and  O3_3 
REMARK    4  A    between atoms: C13_19  and  O4_4 
REMARK    5  A    between atoms: C14_20  and  O6_6 
REMARK    6  A    between atoms: C1_7  and  C7_13 
REMARK    7  A    between atoms: C7_13  and  C9_15 
REMARK    8  A    between atoms: C10_16  and  C8_14 
ROOT
HETATM    1  O5  UNK     1      18.094  -1.604  32.047  1.00  0.00    -0.287 OA
HETATM    2  C7  UNK     1      19.052  -1.374  32.775  1.00  0.00     0.187 C 
ENDROOT
BRANCH   2   3
HETATM    3  C1  UNK     1      18.825  -0.998  34.191  1.00  0.00     0.081 A 
HETATM    4  C2  UNK     1      19.207  -1.867  35.214  1.00  0.00     0.087 A 
HETATM    5  C5  UNK     1      18.992  -1.514  36.546  1.00  0.00     0.074 A 
HETATM    6  C4  UNK     1      18.396  -0.292  36.856  1.00  0.00     0.073 A 
HETATM    7  C6  UNK     1      18.014   0.577  35.834  1.00  0.00     0.074 A 
HETATM    8  C3  UNK     1      18.229   0.223  34.501  1.00  0.00     0.087 A 
BRANCH   4   9
HETATM    9  O1  UNK     1      19.792  -3.066  34.933  1.00  0.00    -0.355 OA
HETATM   10  C16 UNK     1      19.951  -3.979  36.016  1.00  0.00     0.210 C 
ENDBRANCH   4   9
BRANCH   6  11
HETATM   11  O3  UNK     1      18.185   0.052  38.156  1.00  0.00    -0.356 OA
HETATM   12  C18 UNK     1      17.601   1.330  38.403  1.00  0.00     0.210 C 
ENDBRANCH   6  11
BRANCH   8  13
HETATM   13  O2  UNK     1      17.848   1.088  33.519  1.00  0.00    -0.355 OA
HETATM   14  C17 UNK     1      18.044   2.479  33.769  1.00  0.00     0.210 C 
ENDBRANCH   8  13
ENDBRANCH   2   3
BRANCH   2  15
HETATM   15  C9  UNK     1      20.462  -1.485  32.307  1.00  0.00     0.056 C 
HETATM   16  C10 UNK     1      20.853  -0.868  31.170  1.00  0.00     0.015 C 
BRANCH  16  17
HETATM   17  C8  UNK     1      19.995  -0.066  30.313  1.00  0.00    -0.033 A 
HETATM   18  C11 UNK     1      19.505   1.159  30.767  1.00  0.00     0.051 A 
HETATM   19  C13 UNK     1      18.682   1.929  29.946  1.00  0.00     0.102 A 
HETATM   20  C14 UNK     1      18.349   1.474  28.669  1.00  0.00     0.099 A 
HETATM   21  C15 UNK     1      18.838   0.250  28.215  1.00  0.00     0.040 A 
HETATM   22  C12 UNK     1      19.662  -0.519  29.036  1.00  0.00     0.014 A 
BRANCH  19  23
HETATM   23  O4  UNK     1      18.210   3.123  30.400  1.00  0.00    -0.353 OA
HETATM   24  C19 UNK     1      19.093   4.240  30.323  1.00  0.00     0.210 C 
ENDBRANCH  19  23
BRANCH  20  25
HETATM   25  O6  UNK     1      17.546   2.218  27.857  1.00  0.00    -0.358 OA
HETATM   26  H17 UNK     1      18.025   2.416  27.034  1.00  0.00     0.217 HD
ENDBRANCH  20  25
ENDBRANCH  16  17
ENDBRANCH   2  15
TORSDOF 8
ENDMDL
MODEL 3
REMARK VINA RESULT:      -7.6     23.029     25.903
REMARK  8 active torsions:
REMARK  status: ('A' for Active; 'I' for Inactive)
REMARK    1  A    between atoms: C2_8  and  O1_1 
REMARK    2  A    between atoms: C3_9  and  O2_2 
REMARK    3  A    between atoms: C4_10  and  O3_3 
REMARK    4  A    between atoms: C13_19  and  O4_4 
REMARK    5  A    between atoms: C14_20  and  O6_6 
REMARK    6  A    between atoms: C1_7  and  C7_13 
REMARK    7  A    between atoms: C7_13  and  C9_15 
REMARK    8  A    between atoms: C10_16  and  C8_14 
ROOT
HETATM    1  O5  UNK     1      13.602   7.561   6.973  1.00  0.00    -0.287 OA
HETATM    2  C7  UNK     1      13.686   6.963   8.039  1.00  0.00     0.187 C 
ENDROOT
BRANCH   2   3
HETATM    3  C1  UNK     1      13.789   7.729   9.305  1.00  0.00     0.081 A 
HETATM    4  C2  UNK     1      14.939   7.628  10.089  1.00  0.00     0.087 A 
HETATM    5  C5  UNK     1      15.036   8.348  11.280  1.00  0.00     0.074 A 
HETATM    6  C4  UNK     1      13.984   9.166  11.688  1.00  0.00     0.073 A 
HETATM    7  C6  UNK     1      12.834   9.267  10.904  1.00  0.00     0.074 A 
HETATM    8  C3  UNK     1      12.737   8.547   9.713  1.00  0.00     0.087 A 
BRANCH   4   9
HETATM    9  O1  UNK     1      15.979   6.834   9.709  1.00  0.00    -0.355 OA
HETATM   10  C16 UNK     1      17.290   7.270  10.063  1.00  0.00     0.210 C 
ENDBRANCH   4   9
BRANCH   6  11
HETATM   11  O3  UNK     1      14.078   9.867  12.851  1.00  0.00    -0.356 OA
HETATM   12  C18 UNK     1      12.855  10.270  13.466  1.00  0.00     0.210 C 
ENDBRANCH   6  11
BRANCH   8  13
HETATM   13  O2  UNK     1      11.605   8.661   8.963  1.00  0.00    -0.355 OA
HETATM   14  C17 UNK     1      10.541   9.439   9.511  1.00  0.00     0.210 C 
ENDBRANCH   8  13
ENDBRANCH   2   3
BRANCH   2  15
HETATM   15  C9  UNK     1      13.658   5.477   8.131  1.00  0.00     0.056 C 
HETATM   16  C10 UNK     1      12.482   4.812   8.076  1.00  0.00     0.015 C 
BRANCH  16  17
HETATM   17  C8  UNK     1      11.174   5.431   7.929  1.00  0.00    -0.033 A 
HETATM   18  C11 UNK     1      10.343   5.577   9.039  1.00  0.00     0.051 A 
HETATM   19  C13 UNK     1       9.089   6.171   8.898  1.00  0.00     0.102 A 
HETATM   20  C14 UNK     1       8.666   6.619   7.646  1.00  0.00     0.099 A 
HETATM   21  C15 UNK     1       9.497   6.473   6.536  1.00  0.00     0.040 A 
HETATM   22  C12 UNK     1      10.751   5.879   6.677  1.00  0.00     0.014 A 
BRANCH  19  23
HETATM   23  O4  UNK     1       8.286   6.308   9.990  1.00  0.00    -0.353 OA
HETATM   24  C19 UNK     1       7.706   5.118  10.521  1.00  0.00     0.210 C 
ENDBRANCH  19  23
BRANCH  20  25
HETATM   25  O6  UNK     1       7.443   7.200   7.496  1.00  0.00    -0.358 OA
HETATM   26  H17 UNK     1       6.844   6.569   7.062  1.00  0.00     0.217 HD
ENDBRANCH  20  25
ENDBRANCH  16  17
ENDBRANCH   2  15
TORSDOF 8
ENDMDL
MODEL 4
REMARK VINA RESULT:      -7.6     23.038     25.816
REMARK  8 active torsions:
REMARK  status: ('A' for Active; 'I' for Inactive)
REMARK    1  A    between atoms: C2_8  and  O1_1 
REMARK    2  A    between atoms: C3_9  and  O2_2 
REMARK    3  A    between atoms: C4_10  and  O3_3 
REMARK    4  A    between atoms: C13_19  and  O4_4 
REMARK    5  A    between atoms: C14_20  and  O6_6 
REMARK    6  A    between atoms: C1_7  and  C7_13 
REMARK    7  A    between atoms: C7_13  and  C9_15 
REMARK    8  A    between atoms: C10_16  and  C8_14 
ROOT
HETATM    1  O5  UNK     1      13.607   7.500   6.972  1.00  0.00    -0.287 OA
HETATM    2  C7  UNK     1      13.679   6.915   8.047  1.00  0.00     0.187 C 
ENDROOT
BRANCH   2   3
HETATM    3  C1  UNK     1      13.785   7.697   9.303  1.00  0.00     0.081 A 
HETATM    4  C2  UNK     1      12.730   8.516   9.706  1.00  0.00     0.087 A 
HETATM    5  C5  UNK     1      12.830   9.252  10.887  1.00  0.00     0.074 A 
HETATM    6  C4  UNK     1      13.985   9.169  11.664  1.00  0.00     0.073 A 
HETATM    7  C6  UNK     1      15.040   8.350  11.261  1.00  0.00     0.074 A 
HETATM    8  C3  UNK     1      14.939   7.614  10.080  1.00  0.00     0.087 A 
BRANCH   4   9
HETATM    9  O1  UNK     1      11.592   8.611   8.961  1.00  0.00    -0.355 OA
HETATM   10  C16 UNK     1      10.543   9.423   9.483  1.00  0.00     0.210 C 
ENDBRANCH   4   9
BRANCH   6  11
HETATM   11  O3  UNK     1      14.083   9.889  12.815  1.00  0.00    -0.356 OA
HETATM   12  C18 UNK     1      12.863  10.257  13.457  1.00  0.00     0.210 C 
ENDBRANCH   6  11
BRANCH   8  13
HETATM   13  O2  UNK     1      15.982   6.820   9.707  1.00  0.00    -0.355 OA
HETATM   14  C17 UNK     1      17.291   7.261  10.061  1.00  0.00     0.210 C 
ENDBRANCH   8  13
ENDBRANCH   2   3
BRANCH   2  15
HETATM   15  C9  UNK     1      13.633   5.431   8.159  1.00  0.00     0.056 C 
HETATM   16  C10 UNK     1      12.450   4.779   8.110  1.00  0.00     0.015 C 
BRANCH  16  17
HETATM   17  C8  UNK     1      11.150   5.411   7.952  1.00  0.00    -0.033 A 
HETATM   18  C11 UNK     1      10.312   5.568   9.056  1.00  0.00     0.051 A 
HETATM   19  C13 UNK     1       9.065   6.175   8.905  1.00  0.00     0.102 A 
HETATM   20  C14 UNK     1       8.656   6.624   7.649  1.00  0.00     0.099 A 
HETATM   21  C15 UNK     1       9.493   6.467   6.545  1.00  0.00     0.040 A 
HETATM   22  C12 UNK     1      10.741   5.861   6.697  1.00  0.00     0.014 A 
BRANCH  19  23
HETATM   23  O4  UNK     1       8.255   6.323   9.990  1.00  0.00    -0.353 OA
HETATM   24  C19 UNK     1       7.713   5.133  10.560  1.00  0.00     0.210 C 
ENDBRANCH  19  23
BRANCH  20  25
HETATM   25  O6  UNK     1       7.441   7.218   7.488  1.00  0.00    -0.358 OA
HETATM   26  H17 UNK     1       6.762   6.674   7.926  1.00  0.00     0.217 HD
ENDBRANCH  20  25
ENDBRANCH  16  17
ENDBRANCH   2  15
TORSDOF 8
ENDMDL
MODEL 5
REMARK VINA RESULT:      -7.4      2.828      5.812
REMARK  8 active torsions:
REMARK  status: ('A' for Active; 'I' for Inactive)
REMARK    1  A    between atoms: C2_8  and  O1_1 
REMARK    2  A    between atoms: C3_9  and  O2_2 
REMARK    3  A    between atoms: C4_10  and  O3_3 
REMARK    4  A    between atoms: C13_19  and  O4_4 
REMARK    5  A    between atoms: C14_20  and  O6_6 
REMARK    6  A    between atoms: C1_7  and  C7_13 
REMARK    7  A    between atoms: C7_13  and  C9_15 
REMARK    8  A    between atoms: C10_16  and  C8_14 
ROOT
HETATM    1  O5  UNK     1      16.958   3.121  30.780  1.00  0.00    -0.287 OA
HETATM    2  C7  UNK     1      18.153   2.852  30.810  1.00  0.00     0.187 C 
ENDROOT
BRANCH   2   3
HETATM    3  C1  UNK     1      18.606   1.589  31.442  1.00  0.00     0.081 A 
HETATM    4  C2  UNK     1      18.431   1.393  32.813  1.00  0.00     0.087 A 
HETATM    5  C5  UNK     1      18.858   0.206  33.407  1.00  0.00     0.074 A 
HETATM    6  C4  UNK     1      19.460  -0.785  32.633  1.00  0.00     0.073 A 
HETATM    7  C6  UNK     1      19.636  -0.589  31.263  1.00  0.00     0.074 A 
HETATM    8  C3  UNK     1      19.208   0.598  30.668  1.00  0.00     0.087 A 
BRANCH   4   9
HETATM    9  O1  UNK     1      17.844   2.348  33.588  1.00  0.00    -0.355 OA
HETATM   10  C16 UNK     1      18.280   2.440  34.942  1.00  0.00     0.210 C 
ENDBRANCH   4   9
BRANCH   6  11
HETATM   11  O3  UNK     1      19.879  -1.943  33.214  1.00  0.00    -0.356 OA
HETATM   12  C18 UNK     1      20.972  -2.620  32.597  1.00  0.00     0.210 C 
ENDBRANCH   6  11
BRANCH   8  13
HETATM   13  O2  UNK     1      19.389   0.768  29.328  1.00  0.00    -0.355 OA
HETATM   14  C17 UNK     1      19.854  -0.361  28.589  1.00  0.00     0.210 C 
ENDBRANCH   8  13
ENDBRANCH   2   3
BRANCH   2  15
HETATM   15  C9  UNK     1      19.190   3.732  30.205  1.00  0.00     0.056 C 
HETATM   16  C10 UNK     1      19.446   4.949  30.735  1.00  0.00     0.015 C 
BRANCH  16  17
HETATM   17  C8  UNK     1      18.778   5.516  31.896  1.00  0.00    -0.033 A 
HETATM   18  C11 UNK     1      17.512   6.087  31.763  1.00  0.00     0.051 A 
HETATM   19  C13 UNK     1      16.871   6.630  32.875  1.00  0.00     0.102 A 
HETATM   20  C14 UNK     1      17.496   6.602  34.123  1.00  0.00     0.099 A 
HETATM   21  C15 UNK     1      18.761   6.031  34.257  1.00  0.00     0.040 A 
HETATM   22  C12 UNK     1      19.402   5.487  33.143  1.00  0.00     0.014 A 
BRANCH  19  23
HETATM   23  O4  UNK     1      15.635   7.185  32.733  1.00  0.00    -0.353 OA
HETATM   24  C19 UNK     1      15.550   8.386  31.968  1.00  0.00     0.210 C 
ENDBRANCH  19  23
BRANCH  20  25
HETATM   25  O6  UNK     1      16.880   7.129  35.218  1.00  0.00    -0.358 OA
HETATM   26  H17 UNK     1      17.557   7.410  35.857  1.00  0.00     0.217 HD
ENDBRANCH  20  25
ENDBRANCH  16  17
ENDBRANCH   2  15
TORSDOF 8
ENDMDL
MODEL 6
REMARK VINA RESULT:      -7.4      2.899      5.939
REMARK  8 active torsions:
REMARK  status: ('A' for Active; 'I' for Inactive)
REMARK    1  A    between atoms: C2_8  and  O1_1 
REMARK    2  A    between atoms: C3_9  and  O2_2 
REMARK    3  A    between atoms: C4_10  and  O3_3 
REMARK    4  A    between atoms: C13_19  and  O4_4 
REMARK    5  A    between atoms: C14_20  and  O6_6 
REMARK    6  A    between atoms: C1_7  and  C7_13 
REMARK    7  A    between atoms: C7_13  and  C9_15 
REMARK    8  A    between atoms: C10_16  and  C8_14 
ROOT
HETATM    1  O5  UNK     1      16.982   3.179  30.832  1.00  0.00    -0.287 OA
HETATM    2  C7  UNK     1      18.177   2.914  30.896  1.00  0.00     0.187 C 
ENDROOT
BRANCH   2   3
HETATM    3  C1  UNK     1      18.614   1.626  31.487  1.00  0.00     0.081 A 
HETATM    4  C2  UNK     1      19.232   0.666  30.686  1.00  0.00     0.087 A 
HETATM    5  C5  UNK     1      19.642  -0.546  31.242  1.00  0.00     0.074 A 
HETATM    6  C4  UNK     1      19.434  -0.798  32.597  1.00  0.00     0.073 A 
HETATM    7  C6  UNK     1      18.816   0.163  33.398  1.00  0.00     0.074 A 
HETATM    8  C3  UNK     1      18.406   1.375  32.842  1.00  0.00     0.087 A 
BRANCH   4   9
HETATM    9  O1  UNK     1      19.445   0.891  29.359  1.00  0.00    -0.355 OA
HETATM   10  C16 UNK     1      19.707  -0.247  28.542  1.00  0.00     0.210 C 
ENDBRANCH   4   9
BRANCH   6  11
HETATM   11  O3  UNK     1      19.833  -1.981  33.139  1.00  0.00    -0.356 OA
HETATM   12  C18 UNK     1      20.964  -2.618  32.547  1.00  0.00     0.210 C 
ENDBRANCH   6  11
BRANCH   8  13
HETATM   13  O2  UNK     1      17.805   2.299  33.644  1.00  0.00    -0.355 OA
HETATM   14  C17 UNK     1      18.208   2.329  35.012  1.00  0.00     0.210 C 
ENDBRANCH   8  13
ENDBRANCH   2   3
BRANCH   2  15
HETATM   15  C9  UNK     1      19.230   3.827  30.372  1.00  0.00     0.056 C 
HETATM   16  C10 UNK     1      19.361   5.076  30.873  1.00  0.00     0.015 C 
BRANCH  16  17
HETATM   17  C8  UNK     1      18.536   5.649  31.924  1.00  0.00    -0.033 A 
HETATM   18  C11 UNK     1      17.433   6.437  31.595  1.00  0.00     0.051 A 
HETATM   19  C13 UNK     1      16.642   6.986  32.603  1.00  0.00     0.102 A 
HETATM   20  C14 UNK     1      16.954   6.748  33.942  1.00  0.00     0.099 A 
HETATM   21  C15 UNK     1      18.057   5.961  34.272  1.00  0.00     0.040 A 
HETATM   22  C12 UNK     1      18.848   5.411  33.263  1.00  0.00     0.014 A 
BRANCH  19  23
HETATM   23  O4  UNK     1      15.567   7.753  32.269  1.00  0.00    -0.353 OA
HETATM   24  C19 UNK     1      14.360   7.068  31.939  1.00  0.00     0.210 C 
ENDBRANCH  19  23
BRANCH  20  25
HETATM   25  O6  UNK     1      16.188   7.279  34.936  1.00  0.00    -0.358 OA
HETATM   26  H17 UNK     1      16.383   8.229  35.011  1.00  0.00     0.217 HD
ENDBRANCH  20  25
ENDBRANCH  16  17
ENDBRANCH   2  15
TORSDOF 8
ENDMDL
MODEL 7
REMARK VINA RESULT:      -7.4     24.200     26.374
REMARK  8 active torsions:
REMARK  status: ('A' for Active; 'I' for Inactive)
REMARK    1  A    between atoms: C2_8  and  O1_1 
REMARK    2  A    between atoms: C3_9  and  O2_2 
REMARK    3  A    between atoms: C4_10  and  O3_3 
REMARK    4  A    between atoms: C13_19  and  O4_4 
REMARK    5  A    between atoms: C14_20  and  O6_6 
REMARK    6  A    between atoms: C1_7  and  C7_13 
REMARK    7  A    between atoms: C7_13  and  C9_15 
REMARK    8  A    between atoms: C10_16  and  C8_14 
ROOT
HETATM    1  O5  UNK     1      12.634   6.243  10.603  1.00  0.00    -0.287 OA
HETATM    2  C7  UNK     1      13.354   6.390   9.622  1.00  0.00     0.187 C 
ENDROOT
BRANCH   2   3
HETATM    3  C1  UNK     1      14.045   7.684   9.405  1.00  0.00     0.081 A 
HETATM    4  C2  UNK     1      13.347   8.766   8.867  1.00  0.00     0.087 A 
HETATM    5  C5  UNK     1      13.998   9.983   8.662  1.00  0.00     0.074 A 
HETATM    6  C4  UNK     1      15.345  10.118   8.995  1.00  0.00     0.073 A 
HETATM    7  C6  UNK     1      16.043   9.037   9.533  1.00  0.00     0.074 A 
HETATM    8  C3  UNK     1      15.392   7.820   9.738  1.00  0.00     0.087 A 
BRANCH   4   9
HETATM    9  O1  UNK     1      12.030   8.655   8.535  1.00  0.00    -0.355 OA
HETATM   10  C16 UNK     1      11.085   9.233   9.433  1.00  0.00     0.210 C 
ENDBRANCH   4   9
BRANCH   6  11
HETATM   11  O3  UNK     1      15.979  11.306   8.793  1.00  0.00    -0.356 OA
HETATM   12  C18 UNK     1      15.981  11.823   7.463  1.00  0.00     0.210 C 
ENDBRANCH   6  11
BRANCH   8  13
HETATM   13  O2  UNK     1      16.094   6.777  10.265  1.00  0.00    -0.355 OA
HETATM   14  C17 UNK     1      17.438   6.609   9.818  1.00  0.00     0.210 C 
ENDBRANCH   8  13
ENDBRANCH   2   3
BRANCH   2  15
HETATM   15  C9  UNK     1      13.598   5.303   8.635  1.00  0.00     0.056 C 
HETATM   16  C10 UNK     1      12.621   4.927   7.778  1.00  0.00     0.015 C 
BRANCH  16  17
HETATM   17  C8  UNK     1      11.289   5.507   7.719  1.00  0.00    -0.033 A 
HETATM   18  C11 UNK     1      10.475   5.501   8.852  1.00  0.00     0.051 A 
HETATM   19  C13 UNK     1       9.198   6.057   8.796  1.00  0.00     0.102 A 
HETATM   20  C14 UNK     1       8.733   6.620   7.606  1.00  0.00     0.099 A 
HETATM   21  C15 UNK     1       9.546   6.626   6.474  1.00  0.00     0.040 A 
HETATM   22  C12 UNK     1      10.825   6.070   6.530  1.00  0.00     0.014 A 
BRANCH  19  23
HETATM   23  O4  UNK     1       8.412   6.045   9.909  1.00  0.00    -0.353 OA
HETATM   24  C19 UNK     1       8.002   4.770  10.398  1.00  0.00     0.210 C 
ENDBRANCH  19  23
BRANCH  20  25
HETATM   25  O6  UNK     1       7.487   7.166   7.540  1.00  0.00    -0.358 OA
HETATM   26  H17 UNK     1       7.184   7.150   6.615  1.00  0.00     0.217 HD
ENDBRANCH  20  25
ENDBRANCH  16  17
ENDBRANCH   2  15
TORSDOF 8
ENDMDL
MODEL 8
REMARK VINA RESULT:      -7.3     24.199     26.388
REMARK  8 active torsions:
REMARK  status: ('A' for Active; 'I' for Inactive)
REMARK    1  A    between atoms: C2_8  and  O1_1 
REMARK    2  A    between atoms: C3_9  and  O2_2 
REMARK    3  A    between atoms: C4_10  and  O3_3 
REMARK    4  A    between atoms: C13_19  and  O4_4 
REMARK    5  A    between atoms: C14_20  and  O6_6 
REMARK    6  A    between atoms: C1_7  and  C7_13 
REMARK    7  A    between atoms: C7_13  and  C9_15 
REMARK    8  A    between atoms: C10_16  and  C8_14 
ROOT
HETATM    1  O5  UNK     1      12.655   6.271  10.603  1.00  0.00    -0.287 OA
HETATM    2  C7  UNK     1      13.379   6.385   9.622  1.00  0.00     0.187 C 
ENDROOT
BRANCH   2   3
HETATM    3  C1  UNK     1      14.104   7.657   9.387  1.00  0.00     0.081 A 
HETATM    4  C2  UNK     1      15.451   7.767   9.735  1.00  0.00     0.087 A 
HETATM    5  C5  UNK     1      16.132   8.965   9.516  1.00  0.00     0.074 A 
HETATM    6  C4  UNK     1      15.467  10.051   8.949  1.00  0.00     0.073 A 
HETATM    7  C6  UNK     1      14.121   9.942   8.602  1.00  0.00     0.074 A 
HETATM    8  C3  UNK     1      13.439   8.744   8.821  1.00  0.00     0.087 A 
BRANCH   4   9
HETATM    9  O1  UNK     1      16.119   6.717  10.290  1.00  0.00    -0.355 OA
HETATM   10  C16 UNK     1      17.404   6.411   9.753  1.00  0.00     0.210 C 
ENDBRANCH   4   9
BRANCH   6  11
HETATM   11  O3  UNK     1      16.132  11.220   8.737  1.00  0.00    -0.356 OA
HETATM   12  C18 UNK     1      17.549  11.144   8.590  1.00  0.00     0.210 C 
ENDBRANCH   6  11
BRANCH   8  13
HETATM   13  O2  UNK     1      12.124   8.660   8.473  1.00  0.00    -0.355 OA
HETATM   14  C17 UNK     1      11.176   9.211   9.386  1.00  0.00     0.210 C 
ENDBRANCH   8  13
ENDBRANCH   2   3
BRANCH   2  15
HETATM   15  C9  UNK     1      13.595   5.278   8.650  1.00  0.00     0.056 C 
HETATM   16  C10 UNK     1      12.601   4.898   7.815  1.00  0.00     0.015 C 
BRANCH  16  17
HETATM   17  C8  UNK     1      11.275   5.492   7.767  1.00  0.00    -0.033 A 
HETATM   18  C11 UNK     1      10.465   5.483   8.903  1.00  0.00     0.051 A 
HETATM   19  C13 UNK     1       9.193   6.052   8.857  1.00  0.00     0.102 A 
HETATM   20  C14 UNK     1       8.729   6.631   7.675  1.00  0.00     0.099 A 
HETATM   21  C15 UNK     1       9.538   6.640   6.539  1.00  0.00     0.040 A 
HETATM   22  C12 UNK     1      10.811   6.071   6.585  1.00  0.00     0.014 A 
BRANCH  19  23
HETATM   23  O4  UNK     1       8.411   6.038   9.973  1.00  0.00    -0.353 OA
HETATM   24  C19 UNK     1       7.823   4.790  10.335  1.00  0.00     0.210 C 
ENDBRANCH  19  23
BRANCH  20  25
HETATM   25  O6  UNK     1       7.489   7.190   7.618  1.00  0.00    -0.358 OA
HETATM   26  H17 UNK     1       7.507   8.048   8.076  1.00  0.00     0.217 HD
ENDBRANCH  20  25
ENDBRANCH  16  17
ENDBRANCH   2  15
TORSDOF 8
ENDMDL
MODEL 9
REMARK VINA RESULT:      -7.2      8.291     11.571
REMARK  8 active torsions:
REMARK  status: ('A' for Active; 'I' for Inactive)
REMARK    1  A    between atoms: C2_8  and  O1_1 
REMARK    2  A    between atoms: C3_9  and  O2_2 
REMARK    3  A    between atoms: C4_10  and  O3_3 
REMARK    4  A    between atoms: C13_19  and  O4_4 
REMARK    5  A    between atoms: C14_20  and  O6_6 
REMARK    6  A    between atoms: C1_7  and  C7_13 
REMARK    7  A    between atoms: C7_13  and  C9_15 
REMARK    8  A    between atoms: C10_16  and  C8_14 
ROOT
HETATM    1  O5  UNK     1      21.647  -9.626  35.186  1.00  0.00    -0.287 OA
HETATM    2  C7  UNK     1      22.098 -10.173  36.186  1.00  0.00     0.187 C 
ENDROOT
BRANCH   2   3
HETATM    3  C1  UNK     1      23.534 -10.021  36.523  1.00  0.00     0.081 A 
HETATM    4  C2  UNK     1      23.961  -8.924  37.272  1.00  0.00     0.087 A 
HETATM    5  C5  UNK     1      25.313  -8.781  37.588  1.00  0.00     0.074 A 
HETATM    6  C4  UNK     1      26.235  -9.732  37.155  1.00  0.00     0.073 A 
HETATM    7  C6  UNK     1      25.808 -10.828  36.406  1.00  0.00     0.074 A 
HETATM    8  C3  UNK     1      24.456 -10.972  36.090  1.00  0.00     0.087 A 
BRANCH   4   9
HETATM    9  O1  UNK     1      23.076  -7.983  37.706  1.00  0.00    -0.355 OA
HETATM   10  C16 UNK     1      23.383  -7.322  38.931  1.00  0.00     0.210 C 
ENDBRANCH   4   9
BRANCH   6  11
HETATM   11  O3  UNK     1      27.554  -9.590  37.462  1.00  0.00    -0.356 OA
HETATM   12  C18 UNK     1      28.420  -9.153  36.416  1.00  0.00     0.210 C 
ENDBRANCH   6  11
BRANCH   8  13
HETATM   13  O2  UNK     1      24.061 -12.051  35.357  1.00  0.00    -0.355 OA
HETATM   14  C17 UNK     1      24.487 -13.334  35.812  1.00  0.00     0.210 C 
ENDBRANCH   8  13
ENDBRANCH   2   3
BRANCH   2  15
HETATM   15  C9  UNK     1      21.252 -10.974  37.113  1.00  0.00     0.056 C 
HETATM   16  C10 UNK     1      20.137 -10.436  37.656  1.00  0.00     0.015 C 
BRANCH  16  17
HETATM   17  C8  UNK     1      19.654  -9.086  37.415  1.00  0.00    -0.033 A 
HETATM   18  C11 UNK     1      18.924  -8.802  36.260  1.00  0.00     0.051 A 
HETATM   19  C13 UNK     1      18.460  -7.508  36.028  1.00  0.00     0.102 A 
HETATM   20  C14 UNK     1      18.728  -6.495  36.951  1.00  0.00     0.099 A 
HETATM   21  C15 UNK     1      19.458  -6.778  38.105  1.00  0.00     0.040 A 
HETATM   22  C12 UNK     1      19.920  -8.074  38.337  1.00  0.00     0.014 A 
BRANCH  19  23
HETATM   23  O4  UNK     1      17.748  -7.243  34.898  1.00  0.00    -0.353 OA
HETATM   24  C19 UNK     1      16.333  -7.401  34.972  1.00  0.00     0.210 C 
ENDBRANCH  19  23
BRANCH  20  25
HETATM   25  O6  UNK     1      18.280  -5.227  36.735  1.00  0.00    -0.358 OA
HETATM   26  H17 UNK     1      17.463  -5.265  36.209  1.00  0.00     0.217 HD
ENDBRANCH  20  25
ENDBRANCH  16  17
ENDBRANCH   2  15
TORSDOF 8
ENDMDL
MODEL 10
REMARK VINA RESULT:      -7.1     12.062     13.404
REMARK  8 active torsions:
REMARK  status: ('A' for Active; 'I' for Inactive)
REMARK    1  A    between atoms: C2_8  and  O1_1 
REMARK    2  A    between atoms: C3_9  and  O2_2 
REMARK    3  A    between atoms: C4_10  and  O3_3 
REMARK    4  A    between atoms: C13_19  and  O4_4 
REMARK    5  A    between atoms: C14_20  and  O6_6 
REMARK    6  A    between atoms: C1_7  and  C7_13 
REMARK    7  A    between atoms: C7_13  and  C9_15 
REMARK    8  A    between atoms: C10_16  and  C8_14 
ROOT
HETATM    1  O5  UNK     1      31.226  -6.950  32.370  1.00  0.00    -0.287 OA
HETATM    2  C7  UNK     1      30.732  -5.946  32.869  1.00  0.00     0.187 C 
ENDROOT
BRANCH   2   3
HETATM    3  C1  UNK     1      30.601  -5.846  34.343  1.00  0.00     0.081 A 
HETATM    4  C2  UNK     1      31.609  -5.241  35.093  1.00  0.00     0.087 A 
HETATM    5  C5  UNK     1      31.486  -5.148  36.480  1.00  0.00     0.074 A 
HETATM    6  C4  UNK     1      30.356  -5.661  37.115  1.00  0.00     0.073 A 
HETATM    7  C6  UNK     1      29.348  -6.266  36.365  1.00  0.00     0.074 A 
HETATM    8  C3  UNK     1      29.471  -6.359  34.978  1.00  0.00     0.087 A 
BRANCH   4   9
HETATM    9  O1  UNK     1      32.722  -4.733  34.492  1.00  0.00    -0.355 OA
HETATM   10  C16 UNK     1      33.614  -3.982  35.311  1.00  0.00     0.210 C 
ENDBRANCH   4   9
BRANCH   6  11
HETATM   11  O3  UNK     1      30.237  -5.572  38.469  1.00  0.00    -0.356 OA
HETATM   12  C18 UNK     1      29.776  -4.331  38.999  1.00  0.00     0.210 C 
ENDBRANCH   6  11
BRANCH   8  13
HETATM   13  O2  UNK     1      28.474  -6.954  34.265  1.00  0.00    -0.355 OA
HETATM   14  C17 UNK     1      28.404  -8.378  34.314  1.00  0.00     0.210 C 
ENDBRANCH   8  13
ENDBRANCH   2   3
BRANCH   2  15
HETATM   15  C9  UNK     1      30.276  -4.786  32.055  1.00  0.00     0.056 C 
HETATM   16  C10 UNK     1      29.488  -4.979  30.973  1.00  0.00     0.015 C 
BRANCH  16  17
HETATM   17  C8  UNK     1      29.015  -6.270  30.500  1.00  0.00    -0.033 A 
HETATM   18  C11 UNK     1      29.772  -6.995  29.579  1.00  0.00     0.051 A 
HETATM   19  C13 UNK     1      29.318  -8.233  29.125  1.00  0.00     0.102 A 
HETATM   20  C14 UNK     1      28.108  -8.747  29.592  1.00  0.00     0.099 A 
HETATM   21  C15 UNK     1      27.351  -8.022  30.512  1.00  0.00     0.040 A 
HETATM   22  C12 UNK     1      27.805  -6.784  30.967  1.00  0.00     0.014 A 
BRANCH  19  23
HETATM   23  O4  UNK     1      30.066  -8.932  28.226  1.00  0.00    -0.353 OA
HETATM   24  C19 UNK     1      31.467  -8.668  28.206  1.00  0.00     0.210 C 
ENDBRANCH  19  23
BRANCH  20  25
HETATM   25  O6  UNK     1      27.655  -9.955  29.156  1.00  0.00    -0.358 OA
HETATM   26  H17 UNK     1      28.046 -10.657  29.705  1.00  0.00     0.217 HD
ENDBRANCH  20  25
ENDBRANCH  16  17
ENDBRANCH   2  15
TORSDOF 8
ENDMDL
