MODEL 1
REMARK VINA RESULT:      -9.1      0.000      0.000
REMARK  3 active torsions:
REMARK  status: ('A' for Active; 'I' for Inactive)
REMARK       I    between atoms: C8_13  and  N1_5 
REMARK    1  A    between atoms: C1_6  and  C6_11 
REMARK    2  A    between atoms: C6_11  and  C7_12 
REMARK    3  A    between atoms: C8_13  and  C9_14 
ROOT
HETATM    1  O1  UNK     1      36.417  -6.097  32.058  1.00  0.00    -0.267 OA
HETATM    2  N1  UNK     1      34.488  -7.325  31.628  1.00  0.00    -0.348 N 
HETATM    3  C1  UNK     1      32.385  -7.750  29.663  1.00  0.00    -0.007 C 
HETATM    4  C2  UNK     1      33.713  -7.075  29.295  1.00  0.00     0.025 C 
HETATM    5  C3  UNK     1      32.068  -7.511  31.146  1.00  0.00     0.025 C 
HETATM    6  C4  UNK     1      34.835  -7.536  30.220  1.00  0.00     0.126 C 
HETATM    7  C5  UNK     1      33.224  -7.947  32.047  1.00  0.00     0.126 C 
HETATM    8  C8  UNK     1      35.363  -6.607  32.441  1.00  0.00     0.259 C 
ENDROOT
BRANCH   8   9
HETATM    9  C9  UNK     1      35.007  -6.450  33.865  1.00  0.00     0.108 A 
HETATM   10  C12 UNK     1      33.896  -5.749  34.123  1.00  0.00     0.037 A 
HETATM   11  C16 UNK     1      33.463  -5.540  35.496  1.00  0.00     0.001 A 
HETATM   12  C18 UNK     1      34.222  -6.081  36.530  1.00  0.00     0.089 A 
HETATM   13  C19 UNK     1      32.311  -4.815  35.812  1.00  0.00     0.038 A 
HETATM   14  O2  UNK     1      35.389  -6.818  36.252  1.00  0.00    -0.274 OA
HETATM   15  C20 UNK     1      33.863  -5.916  37.867  1.00  0.00     0.040 A 
HETATM   16  C15 UNK     1      35.828  -7.034  34.949  1.00  0.00     0.304 A 
HETATM   17  O3  UNK     1      36.845  -7.677  34.716  1.00  0.00    -0.259 OA
HETATM   18  C22 UNK     1      32.713  -5.192  38.173  1.00  0.00     0.026 A 
HETATM   19  C21 UNK     1      31.938  -4.643  37.148  1.00  0.00     0.035 A 
HETATM   20 Cl1  UNK     1      30.518  -3.749  37.533  1.00  0.00    -0.084 Cl
ENDBRANCH   8   9
BRANCH   3  21
HETATM   21  C6  UNK     1      31.251  -7.242  28.776  1.00  0.00     0.043 C 
BRANCH  21  22
HETATM   22  C7  UNK     1      30.065  -8.166  28.807  1.00  0.00    -0.058 A 
HETATM   23  C10 UNK     1      28.946  -7.818  29.550  1.00  0.00     0.007 A 
HETATM   24  C13 UNK     1      27.845  -8.675  29.579  1.00  0.00     0.001 A 
HETATM   25  C17 UNK     1      27.875  -9.872  28.864  1.00  0.00     0.000 A 
HETATM   26  C14 UNK     1      29.005 -10.212  28.120  1.00  0.00     0.001 A 
HETATM   27  C11 UNK     1      30.104  -9.355  28.090  1.00  0.00     0.007 A 
ENDBRANCH  21  22
ENDBRANCH   3  21
TORSDOF 3
ENDMDL
MODEL 2
REMARK VINA RESULT:      -8.9     31.930     35.223
REMARK  3 active torsions:
REMARK  status: ('A' for Active; 'I' for Inactive)
REMARK       I    between atoms: C8_13  and  N1_5 
REMARK    1  A    between atoms: C1_6  and  C6_11 
REMARK    2  A    between atoms: C6_11  and  C7_12 
REMARK    3  A    between atoms: C8_13  and  C9_14 
ROOT
HETATM    1  O1  UNK     1      11.433   6.740   5.775  1.00  0.00    -0.267 OA
HETATM    2  N1  UNK     1      10.109   6.124   7.586  1.00  0.00    -0.348 N 
HETATM    3  C1  UNK     1       7.564   6.646   8.897  1.00  0.00    -0.007 C 
HETATM    4  C2  UNK     1       7.824   7.054   7.441  1.00  0.00     0.025 C 
HETATM    5  C3  UNK     1       8.885   6.623   9.678  1.00  0.00     0.025 C 
HETATM    6  C4  UNK     1       8.873   6.152   6.799  1.00  0.00     0.126 C 
HETATM    7  C5  UNK     1       9.931   5.741   8.994  1.00  0.00     0.126 C 
HETATM    8  C8  UNK     1      11.317   6.421   6.959  1.00  0.00     0.259 C 
ENDROOT
BRANCH   8   9
HETATM    9  C9  UNK     1      12.549   6.342   7.768  1.00  0.00     0.108 A 
HETATM   10  C12 UNK     1      13.133   7.508   8.073  1.00  0.00     0.037 A 
HETATM   11  C16 UNK     1      14.352   7.532   8.867  1.00  0.00     0.001 A 
HETATM   12  C18 UNK     1      14.896   6.327   9.301  1.00  0.00     0.089 A 
HETATM   13  C19 UNK     1      14.995   8.724   9.208  1.00  0.00     0.038 A 
HETATM   14  O2  UNK     1      14.277   5.104   8.978  1.00  0.00    -0.274 OA
HETATM   15  C20 UNK     1      16.062   6.281  10.064  1.00  0.00     0.040 A 
HETATM   16  C15 UNK     1      13.111   5.049   8.220  1.00  0.00     0.304 A 
HETATM   17  O3  UNK     1      12.579   3.980   7.943  1.00  0.00    -0.259 OA
HETATM   18  C22 UNK     1      16.697   7.475  10.400  1.00  0.00     0.026 A 
HETATM   19  C21 UNK     1      16.165   8.694   9.973  1.00  0.00     0.035 A 
HETATM   20 Cl1  UNK     1      16.954  10.166  10.391  1.00  0.00    -0.084 Cl
ENDBRANCH   8   9
BRANCH   3  21
HETATM   21  C6  UNK     1       6.559   7.588   9.556  1.00  0.00     0.043 C 
BRANCH  21  22
HETATM   22  C7  UNK     1       6.104   7.068  10.892  1.00  0.00    -0.058 A 
HETATM   23  C10 UNK     1       6.257   7.858  12.022  1.00  0.00     0.007 A 
HETATM   24  C13 UNK     1       5.835   7.375  13.262  1.00  0.00     0.001 A 
HETATM   25  C17 UNK     1       5.263   6.107  13.358  1.00  0.00     0.000 A 
HETATM   26  C14 UNK     1       5.113   5.321  12.215  1.00  0.00     0.001 A 
HETATM   27  C11 UNK     1       5.535   5.804  10.976  1.00  0.00     0.007 A 
ENDBRANCH  21  22
ENDBRANCH   3  21
TORSDOF 3
ENDMDL
MODEL 3
REMARK VINA RESULT:      -8.9     19.722     21.579
REMARK  3 active torsions:
REMARK  status: ('A' for Active; 'I' for Inactive)
REMARK       I    between atoms: C8_13  and  N1_5 
REMARK    1  A    between atoms: C1_6  and  C6_11 
REMARK    2  A    between atoms: C6_11  and  C7_12 
REMARK    3  A    between atoms: C8_13  and  C9_14 
ROOT
HETATM    1  O1  UNK     1      20.153   6.188  33.272  1.00  0.00    -0.267 OA
HETATM    2  N1  UNK     1      17.915   6.819  33.175  1.00  0.00    -0.348 N 
HETATM    3  C1  UNK     1      16.027   8.855  34.045  1.00  0.00    -0.007 C 
HETATM    4  C2  UNK     1      17.541   9.102  34.045  1.00  0.00     0.025 C 
HETATM    5  C3  UNK     1      15.741   7.357  34.225  1.00  0.00     0.025 C 
HETATM    6  C4  UNK     1      18.236   8.238  32.997  1.00  0.00     0.126 C 
HETATM    7  C5  UNK     1      16.478   6.513  33.185  1.00  0.00     0.126 C 
HETATM    8  C8  UNK     1      18.955   5.899  33.284  1.00  0.00     0.259 C 
ENDROOT
BRANCH   8   9
HETATM    9  C9  UNK     1      18.600   4.472  33.419  1.00  0.00     0.108 A 
HETATM   10  C12 UNK     1      18.613   3.973  34.661  1.00  0.00     0.037 A 
HETATM   11  C16 UNK     1      18.277   2.577  34.894  1.00  0.00     0.001 A 
HETATM   12  C18 UNK     1      17.943   1.775  33.806  1.00  0.00     0.089 A 
HETATM   13  C19 UNK     1      18.278   2.014  36.172  1.00  0.00     0.038 A 
HETATM   14  O2  UNK     1      17.930   2.306  32.502  1.00  0.00    -0.274 OA
HETATM   15  C20 UNK     1      17.612   0.430  33.962  1.00  0.00     0.040 A 
HETATM   16  C15 UNK     1      18.248   3.637  32.248  1.00  0.00     0.304 A 
HETATM   17  O3  UNK     1      18.234   4.091  31.109  1.00  0.00    -0.259 OA
HETATM   18  C22 UNK     1      17.616  -0.124  35.240  1.00  0.00     0.026 A 
HETATM   19  C21 UNK     1      17.948   0.666  36.344  1.00  0.00     0.035 A 
HETATM   20 Cl1  UNK     1      17.950  -0.023  37.921  1.00  0.00    -0.084 Cl
ENDBRANCH   8   9
BRANCH   3  21
HETATM   21  C6  UNK     1      15.342   9.674  35.136  1.00  0.00     0.043 C 
BRANCH  21  22
HETATM   22  C7  UNK     1      14.238  10.530  34.577  1.00  0.00    -0.058 A 
HETATM   23  C10 UNK     1      13.623  11.471  35.391  1.00  0.00     0.007 A 
HETATM   24  C13 UNK     1      12.599  12.264  34.872  1.00  0.00     0.001 A 
HETATM   25  C17 UNK     1      12.200  12.109  33.545  1.00  0.00     0.000 A 
HETATM   26  C14 UNK     1      12.826  11.159  32.735  1.00  0.00     0.001 A 
HETATM   27  C11 UNK     1      13.850  10.367  33.253  1.00  0.00     0.007 A 
ENDBRANCH  21  22
ENDBRANCH   3  21
TORSDOF 3
ENDMDL
MODEL 4
REMARK VINA RESULT:      -8.8     31.903     34.542
REMARK  3 active torsions:
REMARK  status: ('A' for Active; 'I' for Inactive)
REMARK       I    between atoms: C8_13  and  N1_5 
REMARK    1  A    between atoms: C1_6  and  C6_11 
REMARK    2  A    between atoms: C6_11  and  C7_12 
REMARK    3  A    between atoms: C8_13  and  C9_14 
ROOT
HETATM    1  O1  UNK     1      17.881   8.132  10.230  1.00  0.00    -0.267 OA
HETATM    2  N1  UNK     1      15.595   7.984   9.827  1.00  0.00    -0.348 N 
HETATM    3  C1  UNK     1      13.534   6.274   8.690  1.00  0.00    -0.007 C 
HETATM    4  C2  UNK     1      14.913   5.729   9.082  1.00  0.00     0.025 C 
HETATM    5  C3  UNK     1      13.642   7.761   8.323  1.00  0.00     0.025 C 
HETATM    6  C4  UNK     1      15.537   6.566  10.194  1.00  0.00     0.126 C 
HETATM    7  C5  UNK     1      14.303   8.571   9.440  1.00  0.00     0.126 C 
HETATM    8  C8  UNK     1      16.815   8.653   9.901  1.00  0.00     0.259 C 
ENDROOT
BRANCH   8   9
HETATM    9  C9  UNK     1      16.832  10.091   9.567  1.00  0.00     0.108 A 
HETATM   10  C12 UNK     1      17.441  10.427   8.423  1.00  0.00     0.037 A 
HETATM   11  C16 UNK     1      17.509  11.820   8.009  1.00  0.00     0.001 A 
HETATM   12  C18 UNK     1      16.931  12.792   8.821  1.00  0.00     0.089 A 
HETATM   13  C19 UNK     1      18.135  12.215   6.824  1.00  0.00     0.038 A 
HETATM   14  O2  UNK     1      16.291  12.432  10.023  1.00  0.00    -0.274 OA
HETATM   15  C20 UNK     1      16.963  14.143   8.482  1.00  0.00     0.040 A 
HETATM   16  C15 UNK     1      16.211  11.109  10.446  1.00  0.00     0.304 A 
HETATM   17  O3  UNK     1      15.652  10.806  11.493  1.00  0.00    -0.259 OA
HETATM   18  C22 UNK     1      17.588  14.529   7.299  1.00  0.00     0.026 A 
HETATM   19  C21 UNK     1      18.173  13.567   6.471  1.00  0.00     0.035 A 
HETATM   20 Cl1  UNK     1      18.945  14.049   5.010  1.00  0.00    -0.084 Cl
ENDBRANCH   8   9
BRANCH   3  21
HETATM   21  C6  UNK     1      12.939   5.471   7.536  1.00  0.00     0.043 C 
BRANCH  21  22
HETATM   22  C7  UNK     1      11.490   5.808   7.314  1.00  0.00    -0.058 A 
HETATM   23  C10 UNK     1      11.054   6.152   6.041  1.00  0.00     0.007 A 
HETATM   24  C13 UNK     1       9.710   6.465   5.836  1.00  0.00     0.001 A 
HETATM   25  C17 UNK     1       8.815   6.431   6.904  1.00  0.00     0.000 A 
HETATM   26  C14 UNK     1       9.263   6.084   8.179  1.00  0.00     0.001 A 
HETATM   27  C11 UNK     1      10.606   5.770   8.385  1.00  0.00     0.007 A 
ENDBRANCH  21  22
ENDBRANCH   3  21
TORSDOF 3
ENDMDL
MODEL 5
REMARK VINA RESULT:      -8.8     32.331     35.729
REMARK  3 active torsions:
REMARK  status: ('A' for Active; 'I' for Inactive)
REMARK       I    between atoms: C8_13  and  N1_5 
REMARK    1  A    between atoms: C1_6  and  C6_11 
REMARK    2  A    between atoms: C6_11  and  C7_12 
REMARK    3  A    between atoms: C8_13  and  C9_14 
ROOT
HETATM    1  O1  UNK     1       8.448   5.443   6.847  1.00  0.00    -0.267 OA
HETATM    2  N1  UNK     1      10.179   6.585   7.902  1.00  0.00    -0.348 N 
HETATM    3  C1  UNK     1      13.076   6.724   8.140  1.00  0.00    -0.007 C 
HETATM    4  C2  UNK     1      12.393   6.018   6.961  1.00  0.00     0.025 C 
HETATM    5  C3  UNK     1      12.166   6.681   9.375  1.00  0.00     0.025 C 
HETATM    6  C4  UNK     1      11.011   6.608   6.696  1.00  0.00     0.126 C 
HETATM    7  C5  UNK     1      10.777   7.245   9.072  1.00  0.00     0.126 C 
HETATM    8  C8  UNK     1       8.921   5.990   7.845  1.00  0.00     0.259 C 
ENDROOT
BRANCH   8   9
HETATM    9  C9  UNK     1       8.089   6.021   9.064  1.00  0.00     0.108 A 
HETATM   10  C12 UNK     1       7.268   7.070   9.194  1.00  0.00     0.037 A 
HETATM   11  C16 UNK     1       6.409   7.189  10.362  1.00  0.00     0.001 A 
HETATM   12  C18 UNK     1       6.457   6.196  11.337  1.00  0.00     0.089 A 
HETATM   13  C19 UNK     1       5.537   8.266  10.539  1.00  0.00     0.038 A 
HETATM   14  O2  UNK     1       7.322   5.094  11.194  1.00  0.00    -0.274 OA
HETATM   15  C20 UNK     1       5.661   6.251  12.479  1.00  0.00     0.040 A 
HETATM   16  C15 UNK     1       8.156   4.954  10.088  1.00  0.00     0.304 A 
HETATM   17  O3  UNK     1       8.906   3.991   9.972  1.00  0.00    -0.259 OA
HETATM   18  C22 UNK     1       4.794   7.328  12.648  1.00  0.00     0.026 A 
HETATM   19  C21 UNK     1       4.732   8.334  11.680  1.00  0.00     0.035 A 
HETATM   20 Cl1  UNK     1       3.659   9.663  11.894  1.00  0.00    -0.084 Cl
ENDBRANCH   8   9
BRANCH   3  21
HETATM   21  C6  UNK     1      14.432   6.091   8.441  1.00  0.00     0.043 C 
BRANCH  21  22
HETATM   22  C7  UNK     1      15.346   7.049   9.154  1.00  0.00    -0.058 A 
HETATM   23  C10 UNK     1      15.083   8.411   9.103  1.00  0.00     0.007 A 
HETATM   24  C13 UNK     1      15.931   9.301   9.764  1.00  0.00     0.001 A 
HETATM   25  C17 UNK     1      17.033   8.820  10.469  1.00  0.00     0.000 A 
HETATM   26  C14 UNK     1      17.288   7.448  10.514  1.00  0.00     0.001 A 
HETATM   27  C11 UNK     1      16.441   6.560   9.855  1.00  0.00     0.007 A 
ENDBRANCH  21  22
ENDBRANCH   3  21
TORSDOF 3
ENDMDL
MODEL 6
REMARK VINA RESULT:      -8.6      4.309      5.231
REMARK  3 active torsions:
REMARK  status: ('A' for Active; 'I' for Inactive)
REMARK       I    between atoms: C8_13  and  N1_5 
REMARK    1  A    between atoms: C1_6  and  C6_11 
REMARK    2  A    between atoms: C6_11  and  C7_12 
REMARK    3  A    between atoms: C8_13  and  C9_14 
ROOT
HETATM    1  O1  UNK     1      30.949  -5.041  36.285  1.00  0.00    -0.267 OA
HETATM    2  N1  UNK     1      30.750  -6.569  34.541  1.00  0.00    -0.348 N 
HETATM    3  C1  UNK     1      30.166  -6.801  31.700  1.00  0.00    -0.007 C 
HETATM    4  C2  UNK     1      30.570  -5.465  32.338  1.00  0.00     0.025 C 
HETATM    5  C3  UNK     1      29.474  -7.690  32.742  1.00  0.00     0.025 C 
HETATM    6  C4  UNK     1      31.424  -5.688  33.582  1.00  0.00     0.126 C 
HETATM    7  C5  UNK     1      30.335  -7.868  33.994  1.00  0.00     0.126 C 
HETATM    8  C8  UNK     1      30.589  -6.139  35.857  1.00  0.00     0.259 C 
ENDROOT
BRANCH   8   9
HETATM    9  C9  UNK     1      29.946  -7.066  36.809  1.00  0.00     0.108 A 
HETATM   10  C12 UNK     1      28.631  -6.902  36.999  1.00  0.00     0.037 A 
HETATM   11  C16 UNK     1      27.910  -7.768  37.919  1.00  0.00     0.001 A 
HETATM   12  C18 UNK     1      28.609  -8.765  38.594  1.00  0.00     0.089 A 
HETATM   13  C19 UNK     1      26.538  -7.633  38.149  1.00  0.00     0.038 A 
HETATM   14  O2  UNK     1      29.992  -8.932  38.389  1.00  0.00    -0.274 OA
HETATM   15  C20 UNK     1      27.978  -9.626  39.489  1.00  0.00     0.040 A 
HETATM   16  C15 UNK     1      30.710  -8.119  37.516  1.00  0.00     0.304 A 
HETATM   17  O3  UNK     1      31.914  -8.273  37.344  1.00  0.00    -0.259 OA
HETATM   18  C22 UNK     1      26.610  -9.485  39.712  1.00  0.00     0.026 A 
HETATM   19  C21 UNK     1      25.891  -8.491  39.043  1.00  0.00     0.035 A 
HETATM   20 Cl1  UNK     1      24.201  -8.321  39.322  1.00  0.00    -0.084 Cl
ENDBRANCH   8   9
BRANCH   3  21
HETATM   21  C6  UNK     1      29.261  -6.575  30.491  1.00  0.00     0.043 C 
BRANCH  21  22
HETATM   22  C7  UNK     1      29.137  -7.818  29.652  1.00  0.00    -0.058 A 
HETATM   23  C10 UNK     1      27.944  -8.528  29.655  1.00  0.00     0.007 A 
HETATM   24  C13 UNK     1      27.829  -9.681  28.877  1.00  0.00     0.001 A 
HETATM   25  C17 UNK     1      28.906 -10.111  28.104  1.00  0.00     0.000 A 
HETATM   26  C14 UNK     1      30.101  -9.388  28.108  1.00  0.00     0.001 A 
HETATM   27  C11 UNK     1      30.216  -8.236  28.885  1.00  0.00     0.007 A 
ENDBRANCH  21  22
ENDBRANCH   3  21
TORSDOF 3
ENDMDL
MODEL 7
REMARK VINA RESULT:      -8.5     12.336     14.682
REMARK  3 active torsions:
REMARK  status: ('A' for Active; 'I' for Inactive)
REMARK       I    between atoms: C8_13  and  N1_5 
REMARK    1  A    between atoms: C1_6  and  C6_11 
REMARK    2  A    between atoms: C6_11  and  C7_12 
REMARK    3  A    between atoms: C8_13  and  C9_14 
ROOT
HETATM    1  O1  UNK     1      21.789  -3.848  37.579  1.00  0.00    -0.267 OA
HETATM    2  N1  UNK     1      19.836  -5.112  37.577  1.00  0.00    -0.348 N 
HETATM    3  C1  UNK     1      18.822  -7.836  37.711  1.00  0.00    -0.007 C 
HETATM    4  C2  UNK     1      20.245  -7.479  38.160  1.00  0.00     0.025 C 
HETATM    5  C3  UNK     1      18.350  -6.851  36.633  1.00  0.00     0.025 C 
HETATM    6  C4  UNK     1      20.326  -6.025  38.614  1.00  0.00     0.126 C 
HETATM    7  C5  UNK     1      18.475  -5.400  37.100  1.00  0.00     0.126 C 
HETATM    8  C8  UNK     1      20.651  -4.063  37.159  1.00  0.00     0.259 C 
ENDROOT
BRANCH   8   9
HETATM    9  C9  UNK     1      20.112  -3.135  36.145  1.00  0.00     0.108 A 
HETATM   10  C12 UNK     1      20.562  -3.298  34.895  1.00  0.00     0.037 A 
HETATM   11  C16 UNK     1      20.089  -2.432  33.826  1.00  0.00     0.001 A 
HETATM   12  C18 UNK     1      19.164  -1.437  34.126  1.00  0.00     0.089 A 
HETATM   13  C19 UNK     1      20.533  -2.565  32.508  1.00  0.00     0.038 A 
HETATM   14  O2  UNK     1      18.693  -1.271  35.443  1.00  0.00    -0.274 OA
HETATM   15  C20 UNK     1      18.672  -0.573  33.149  1.00  0.00     0.040 A 
HETATM   16  C15 UNK     1      19.127  -2.083  36.486  1.00  0.00     0.304 A 
HETATM   17  O3  UNK     1      18.712  -1.932  37.629  1.00  0.00    -0.259 OA
HETATM   18  C22 UNK     1      19.119  -0.714  31.837  1.00  0.00     0.026 A 
HETATM   19  C21 UNK     1      20.047  -1.707  31.516  1.00  0.00     0.035 A 
HETATM   20 Cl1  UNK     1      20.596  -1.875  29.893  1.00  0.00    -0.084 Cl
ENDBRANCH   8   9
BRANCH   3  21
HETATM   21  C6  UNK     1      18.757  -9.274  37.199  1.00  0.00     0.043 C 
BRANCH  21  22
HETATM   22  C7  UNK     1      20.062  -9.704  36.585  1.00  0.00    -0.058 A 
HETATM   23  C10 UNK     1      20.575  -8.998  35.506  1.00  0.00     0.007 A 
HETATM   24  C13 UNK     1      21.785  -9.396  34.937  1.00  0.00     0.001 A 
HETATM   25  C17 UNK     1      22.469 -10.496  35.452  1.00  0.00     0.000 A 
HETATM   26  C14 UNK     1      21.944 -11.199  36.537  1.00  0.00     0.001 A 
HETATM   27  C11 UNK     1      20.735 -10.800  37.107  1.00  0.00     0.007 A 
ENDBRANCH  21  22
ENDBRANCH   3  21
TORSDOF 3
ENDMDL
MODEL 8
REMARK VINA RESULT:      -8.3      2.870      7.683
REMARK  3 active torsions:
REMARK  status: ('A' for Active; 'I' for Inactive)
REMARK       I    between atoms: C8_13  and  N1_5 
REMARK    1  A    between atoms: C1_6  and  C6_11 
REMARK    2  A    between atoms: C6_11  and  C7_12 
REMARK    3  A    between atoms: C8_13  and  C9_14 
ROOT
HETATM    1  O1  UNK     1      36.670  -7.594  32.324  1.00  0.00    -0.267 OA
HETATM    2  N1  UNK     1      34.891  -6.722  33.544  1.00  0.00    -0.348 N 
HETATM    3  C1  UNK     1      33.752  -6.564  36.217  1.00  0.00    -0.007 C 
HETATM    4  C2  UNK     1      35.218  -6.952  35.983  1.00  0.00     0.025 C 
HETATM    5  C3  UNK     1      32.905  -6.960  35.000  1.00  0.00     0.025 C 
HETATM    6  C4  UNK     1      35.741  -6.354  34.680  1.00  0.00     0.126 C 
HETATM    7  C5  UNK     1      33.471  -6.378  33.704  1.00  0.00     0.126 C 
HETATM    8  C8  UNK     1      35.473  -7.318  32.427  1.00  0.00     0.259 C 
ENDROOT
BRANCH   8   9
HETATM    9  C9  UNK     1      34.598  -7.636  31.282  1.00  0.00     0.108 A 
HETATM   10  C12 UNK     1      33.715  -8.625  31.469  1.00  0.00     0.037 A 
HETATM   11  C16 UNK     1      32.809  -9.011  30.398  1.00  0.00     0.001 A 
HETATM   12  C18 UNK     1      32.878  -8.336  29.183  1.00  0.00     0.089 A 
HETATM   13  C19 UNK     1      31.873 -10.037  30.548  1.00  0.00     0.038 A 
HETATM   14  O2  UNK     1      33.808  -7.296  28.993  1.00  0.00    -0.274 OA
HETATM   15  C20 UNK     1      32.039  -8.658  28.117  1.00  0.00     0.040 A 
HETATM   16  C15 UNK     1      34.687  -6.905  29.998  1.00  0.00     0.304 A 
HETATM   17  O3  UNK     1      35.494  -5.998  29.824  1.00  0.00    -0.259 OA
HETATM   18  C22 UNK     1      31.108  -9.682  28.275  1.00  0.00     0.026 A 
HETATM   19  C21 UNK     1      31.024 -10.370  29.488  1.00  0.00     0.035 A 
HETATM   20 Cl1  UNK     1      29.872 -11.635  29.678  1.00  0.00    -0.084 Cl
ENDBRANCH   8   9
BRANCH   3  21
HETATM   21  C6  UNK     1      33.214  -7.213  37.490  1.00  0.00     0.043 C 
BRANCH  21  22
HETATM   22  C7  UNK     1      31.926  -6.577  37.935  1.00  0.00    -0.058 A 
HETATM   23  C10 UNK     1      30.784  -7.357  38.057  1.00  0.00     0.007 A 
HETATM   24  C13 UNK     1      29.589  -6.767  38.470  1.00  0.00     0.001 A 
HETATM   25  C17 UNK     1      29.547  -5.404  38.757  1.00  0.00     0.000 A 
HETATM   26  C14 UNK     1      30.701  -4.628  38.632  1.00  0.00     0.001 A 
HETATM   27  C11 UNK     1      31.896  -5.218  38.220  1.00  0.00     0.007 A 
ENDBRANCH  21  22
ENDBRANCH   3  21
TORSDOF 3
ENDMDL
MODEL 9
REMARK VINA RESULT:      -8.3     15.480     17.603
REMARK  3 active torsions:
REMARK  status: ('A' for Active; 'I' for Inactive)
REMARK       I    between atoms: C8_13  and  N1_5 
REMARK    1  A    between atoms: C1_6  and  C6_11 
REMARK    2  A    between atoms: C6_11  and  C7_12 
REMARK    3  A    between atoms: C8_13  and  C9_14 
ROOT
HETATM    1  O1  UNK     1      19.406   0.244  29.185  1.00  0.00    -0.267 OA
HETATM    2  N1  UNK     1      18.607   1.941  30.562  1.00  0.00    -0.348 N 
HETATM    3  C1  UNK     1      18.594   4.826  30.938  1.00  0.00    -0.007 C 
HETATM    4  C2  UNK     1      18.963   4.187  29.593  1.00  0.00     0.025 C 
HETATM    5  C3  UNK     1      18.930   3.864  32.086  1.00  0.00     0.025 C 
HETATM    6  C4  UNK     1      18.296   2.824  29.434  1.00  0.00     0.126 C 
HETATM    7  C5  UNK     1      18.278   2.495  31.883  1.00  0.00     0.126 C 
HETATM    8  C8  UNK     1      19.141   0.680  30.306  1.00  0.00     0.259 C 
ENDROOT
BRANCH   8   9
HETATM    9  C9  UNK     1      19.403  -0.202  31.460  1.00  0.00     0.108 A 
HETATM   10  C12 UNK     1      18.729   0.074  32.583  1.00  0.00     0.037 A 
HETATM   11  C16 UNK     1      18.920  -0.739  33.774  1.00  0.00     0.001 A 
HETATM   12  C18 UNK     1      19.813  -1.806  33.723  1.00  0.00     0.089 A 
HETATM   13  C19 UNK     1      18.238  -0.486  34.966  1.00  0.00     0.038 A 
HETATM   14  O2  UNK     1      20.518  -2.093  32.539  1.00  0.00    -0.274 OA
HETATM   15  C20 UNK     1      20.042  -2.623  34.828  1.00  0.00     0.040 A 
HETATM   16  C15 UNK     1      20.357  -1.332  31.384  1.00  0.00     0.304 A 
HETATM   17  O3  UNK     1      20.976  -1.590  30.358  1.00  0.00    -0.259 OA
HETATM   18  C22 UNK     1      19.357  -2.364  36.014  1.00  0.00     0.026 A 
HETATM   19  C21 UNK     1      18.457  -1.298  36.083  1.00  0.00     0.035 A 
HETATM   20 Cl1  UNK     1      17.614  -0.983  37.550  1.00  0.00    -0.084 Cl
ENDBRANCH   8   9
BRANCH   3  21
HETATM   21  C6  UNK     1      19.312   6.162  31.121  1.00  0.00     0.043 C 
BRANCH  21  22
HETATM   22  C7  UNK     1      18.840   6.881  32.355  1.00  0.00    -0.058 A 
HETATM   23  C10 UNK     1      17.511   7.271  32.453  1.00  0.00     0.007 A 
HETATM   24  C13 UNK     1      17.073   7.938  33.597  1.00  0.00     0.001 A 
HETATM   25  C17 UNK     1      17.968   8.210  34.632  1.00  0.00     0.000 A 
HETATM   26  C14 UNK     1      19.302   7.813  34.522  1.00  0.00     0.001 A 
HETATM   27  C11 UNK     1      19.739   7.145  33.379  1.00  0.00     0.007 A 
ENDBRANCH  21  22
ENDBRANCH   3  21
TORSDOF 3
ENDMDL
MODEL 10
REMARK VINA RESULT:      -8.3     32.638     35.408
REMARK  3 active torsions:
REMARK  status: ('A' for Active; 'I' for Inactive)
REMARK       I    between atoms: C8_13  and  N1_5 
REMARK    1  A    between atoms: C1_6  and  C6_11 
REMARK    2  A    between atoms: C6_11  and  C7_12 
REMARK    3  A    between atoms: C8_13  and  C9_14 
ROOT
HETATM    1  O1  UNK     1      17.898   9.623  10.009  1.00  0.00    -0.267 OA
HETATM    2  N1  UNK     1      15.693   9.257   9.364  1.00  0.00    -0.348 N 
HETATM    3  C1  UNK     1      13.765   7.172   8.729  1.00  0.00    -0.007 C 
HETATM    4  C2  UNK     1      15.051   6.875   9.511  1.00  0.00     0.025 C 
HETATM    5  C3  UNK     1      13.980   8.381   7.808  1.00  0.00     0.025 C 
HETATM    6  C4  UNK     1      15.532   8.111  10.264  1.00  0.00     0.126 C 
HETATM    7  C5  UNK     1      14.495   9.595   8.582  1.00  0.00     0.126 C 
HETATM    8  C8  UNK     1      16.911   9.932   9.340  1.00  0.00     0.259 C 
ENDROOT
BRANCH   8   9
HETATM    9  C9  UNK     1      17.028  11.108   8.456  1.00  0.00     0.108 A 
HETATM   10  C12 UNK     1      15.954  11.903   8.382  1.00  0.00     0.037 A 
HETATM   11  C16 UNK     1      15.973  13.087   7.536  1.00  0.00     0.001 A 
HETATM   12  C18 UNK     1      17.125  13.375   6.810  1.00  0.00     0.089 A 
HETATM   13  C19 UNK     1      14.875  13.944   7.429  1.00  0.00     0.038 A 
HETATM   14  O2  UNK     1      18.252  12.536   6.892  1.00  0.00    -0.274 OA
HETATM   15  C20 UNK     1      17.208  14.493   5.981  1.00  0.00     0.040 A 
HETATM   16  C15 UNK     1      18.263  11.397   7.692  1.00  0.00     0.304 A 
HETATM   17  O3  UNK     1      19.250  10.672   7.757  1.00  0.00    -0.259 OA
HETATM   18  C22 UNK     1      16.109  15.342   5.879  1.00  0.00     0.026 A 
HETATM   19  C21 UNK     1      14.944  15.069   6.602  1.00  0.00     0.035 A 
HETATM   20 Cl1  UNK     1      13.589  16.122   6.472  1.00  0.00    -0.084 Cl
ENDBRANCH   8   9
BRANCH   3  21
HETATM   21  C6  UNK     1      13.321   5.950   7.927  1.00  0.00     0.043 C 
BRANCH  21  22
HETATM   22  C7  UNK     1      11.873   6.044   7.530  1.00  0.00    -0.058 A 
HETATM   23  C10 UNK     1      11.537   6.131   6.186  1.00  0.00     0.007 A 
HETATM   24  C13 UNK     1      10.194   6.218   5.817  1.00  0.00     0.001 A 
HETATM   25  C17 UNK     1       9.201   6.217   6.796  1.00  0.00     0.000 A 
HETATM   26  C14 UNK     1       9.550   6.129   8.145  1.00  0.00     0.001 A 
HETATM   27  C11 UNK     1      10.892   6.041   8.513  1.00  0.00     0.007 A 
ENDBRANCH  21  22
ENDBRANCH   3  21
TORSDOF 3
ENDMDL
