MODEL 1
REMARK VINA RESULT:      -9.2      0.000      0.000
REMARK  3 active torsions:
REMARK  status: ('A' for Active; 'I' for Inactive)
REMARK    1  A    between atoms: C14_20  and  O2_3 
REMARK       I    between atoms: C6_12  and  N1_6 
REMARK    2  A    between atoms: C7_13  and  N1_6 
REMARK    3  A    between atoms: C2_8  and  C6_12 
ROOT
HETATM    1 Cl1  UNK     1      21.123  -3.546  31.479  1.00  0.00    -0.084 Cl
HETATM    2  O1  UNK     1      19.178   1.339  28.808  1.00  0.00    -0.274 OA
HETATM    3  O4  UNK     1      18.321   3.454  28.919  1.00  0.00    -0.259 OA
HETATM    4  C1  UNK     1      19.645   0.123  30.861  1.00  0.00     0.001 A 
HETATM    5  C2  UNK     1      18.735   2.365  30.982  1.00  0.00     0.108 A 
HETATM    6  C3  UNK     1      19.637   0.184  29.471  1.00  0.00     0.089 A 
HETATM    7  C4  UNK     1      19.170   1.270  31.618  1.00  0.00     0.037 A 
HETATM    8  C5  UNK     1      20.108  -1.039  31.482  1.00  0.00     0.038 A 
HETATM    9  C8  UNK     1      18.718   2.453  29.506  1.00  0.00     0.304 A 
HETATM   10  C9  UNK     1      20.078  -0.880  28.687  1.00  0.00     0.040 A 
HETATM   11  C10 UNK     1      20.554  -2.115  30.710  1.00  0.00     0.035 A 
HETATM   12  C11 UNK     1      20.539  -2.036  29.315  1.00  0.00     0.026 A 
ENDROOT
BRANCH   5  13
HETATM   13  C6  UNK     1      18.277   3.470  31.833  1.00  0.00     0.262 C 
HETATM   14  O3  UNK     1      17.570   3.234  32.811  1.00  0.00    -0.267 OA
HETATM   15  N1  UNK     1      18.734   4.702  31.384  1.00  0.00    -0.323 N 
HETATM   16  H4  UNK     1      19.334   4.724  30.563  1.00  0.00     0.169 HD
BRANCH  15  17
HETATM   17  C7  UNK     1      18.489   5.975  31.954  1.00  0.00     0.037 A 
HETATM   18  C12 UNK     1      17.399   6.711  31.521  1.00  0.00     0.066 A 
HETATM   19  C14 UNK     1      17.157   7.964  32.083  1.00  0.00     0.070 A 
HETATM   20  C16 UNK     1      18.007   8.462  33.070  1.00  0.00     0.037 A 
HETATM   21  C15 UNK     1      19.100   7.707  33.495  1.00  0.00     0.005 A 
HETATM   22  C13 UNK     1      19.342   6.454  32.933  1.00  0.00     0.029 A 
BRANCH  19  23
HETATM   23  O2  UNK     1      16.090   8.701  31.669  1.00  0.00    -0.356 OA
HETATM   24  C17 UNK     1      15.270   9.284  32.681  1.00  0.00     0.210 C 
ENDBRANCH  19  23
ENDBRANCH  15  17
ENDBRANCH   5  13
TORSDOF 3
ENDMDL
MODEL 2
REMARK VINA RESULT:      -8.6      7.463     11.916
REMARK  3 active torsions:
REMARK  status: ('A' for Active; 'I' for Inactive)
REMARK    1  A    between atoms: C14_20  and  O2_3 
REMARK       I    between atoms: C6_12  and  N1_6 
REMARK    2  A    between atoms: C7_13  and  N1_6 
REMARK    3  A    between atoms: C2_8  and  C6_12 
ROOT
HETATM    1 Cl1  UNK     1      16.089   1.922  37.582  1.00  0.00    -0.084 Cl
HETATM    2  O1  UNK     1      19.587  -1.296  34.090  1.00  0.00    -0.274 OA
HETATM    3  O4  UNK     1      20.833  -3.175  33.718  1.00  0.00    -0.259 OA
HETATM    4  C1  UNK     1      18.424  -1.027  36.207  1.00  0.00     0.001 A 
HETATM    5  C2  UNK     1      19.745  -3.020  35.817  1.00  0.00     0.108 A 
HETATM    6  C3  UNK     1      18.754  -0.547  34.944  1.00  0.00     0.089 A 
HETATM    7  C4  UNK     1      18.954  -2.312  36.633  1.00  0.00     0.037 A 
HETATM    8  C5  UNK     1      17.594  -0.256  37.026  1.00  0.00     0.038 A 
HETATM    9  C8  UNK     1      20.109  -2.530  34.469  1.00  0.00     0.304 A 
HETATM   10  C9  UNK     1      18.280   0.676  34.476  1.00  0.00     0.040 A 
HETATM   11  C10 UNK     1      17.111   0.974  36.571  1.00  0.00     0.035 A 
HETATM   12  C11 UNK     1      17.452   1.439  35.298  1.00  0.00     0.026 A 
ENDROOT
BRANCH   5  13
HETATM   13  C6  UNK     1      20.230  -4.304  36.335  1.00  0.00     0.262 C 
HETATM   14  O3  UNK     1      21.162  -4.326  37.137  1.00  0.00    -0.267 OA
HETATM   15  N1  UNK     1      19.523  -5.380  35.815  1.00  0.00    -0.323 N 
HETATM   16  H4  UNK     1      18.758  -5.190  35.172  1.00  0.00     0.169 HD
BRANCH  15  17
HETATM   17  C7  UNK     1      19.717  -6.755  36.090  1.00  0.00     0.037 A 
HETATM   18  C12 UNK     1      20.530  -7.504  35.255  1.00  0.00     0.066 A 
HETATM   19  C14 UNK     1      20.722  -8.858  35.527  1.00  0.00     0.070 A 
HETATM   20  C16 UNK     1      20.099  -9.444  36.629  1.00  0.00     0.037 A 
HETATM   21  C15 UNK     1      19.284  -8.675  37.459  1.00  0.00     0.005 A 
HETATM   22  C13 UNK     1      19.092  -7.321  37.188  1.00  0.00     0.029 A 
BRANCH  19  23
HETATM   23  O2  UNK     1      21.518  -9.609  34.716  1.00  0.00    -0.356 OA
HETATM   24  C17 UNK     1      22.024 -10.830  35.254  1.00  0.00     0.210 C 
ENDBRANCH  19  23
ENDBRANCH  15  17
ENDBRANCH   5  13
TORSDOF 3
ENDMDL
MODEL 3
REMARK VINA RESULT:      -8.4      3.697      8.665
REMARK  3 active torsions:
REMARK  status: ('A' for Active; 'I' for Inactive)
REMARK    1  A    between atoms: C14_20  and  O2_3 
REMARK       I    between atoms: C6_12  and  N1_6 
REMARK    2  A    between atoms: C7_13  and  N1_6 
REMARK    3  A    between atoms: C2_8  and  C6_12 
ROOT
HETATM    1 Cl1  UNK     1      14.910  10.974  33.067  1.00  0.00    -0.084 Cl
HETATM    2  O1  UNK     1      17.639   5.951  34.516  1.00  0.00    -0.274 OA
HETATM    3  O4  UNK     1      18.744   4.045  33.907  1.00  0.00    -0.259 OA
HETATM    4  C1  UNK     1      16.875   7.495  32.801  1.00  0.00     0.001 A 
HETATM    5  C2  UNK     1      18.045   5.475  32.152  1.00  0.00     0.108 A 
HETATM    6  C3  UNK     1      16.992   7.145  34.142  1.00  0.00     0.089 A 
HETATM    7  C4  UNK     1      17.430   6.609  31.791  1.00  0.00     0.037 A 
HETATM    8  C5  UNK     1      16.227   8.688  32.470  1.00  0.00     0.038 A 
HETATM    9  C8  UNK     1      18.181   5.082  33.571  1.00  0.00     0.304 A 
HETATM   10  C9  UNK     1      16.482   7.950  35.159  1.00  0.00     0.040 A 
HETATM   11  C10 UNK     1      15.709   9.506  33.478  1.00  0.00     0.035 A 
HETATM   12  C11 UNK     1      15.837   9.138  34.820  1.00  0.00     0.026 A 
ENDROOT
BRANCH   5  13
HETATM   13  C6  UNK     1      18.572   4.647  31.061  1.00  0.00     0.262 C 
HETATM   14  O3  UNK     1      19.242   5.167  30.169  1.00  0.00    -0.267 OA
HETATM   15  N1  UNK     1      18.219   3.312  31.198  1.00  0.00    -0.323 N 
HETATM   16  H4  UNK     1      17.674   3.038  32.012  1.00  0.00     0.169 HD
BRANCH  15  17
HETATM   17  C7  UNK     1      18.550   2.238  30.337  1.00  0.00     0.037 A 
HETATM   18  C12 UNK     1      19.505   1.319  30.738  1.00  0.00     0.066 A 
HETATM   19  C14 UNK     1      19.830   0.260  29.891  1.00  0.00     0.070 A 
HETATM   20  C16 UNK     1      19.195   0.136  28.655  1.00  0.00     0.037 A 
HETATM   21  C15 UNK     1      18.235   1.071  28.266  1.00  0.00     0.005 A 
HETATM   22  C13 UNK     1      17.910   2.129  29.114  1.00  0.00     0.029 A 
BRANCH  19  23
HETATM   23  O2  UNK     1      20.767  -0.652  30.269  1.00  0.00    -0.356 OA
HETATM   24  C17 UNK     1      20.361  -1.649  31.206  1.00  0.00     0.210 C 
ENDBRANCH  19  23
ENDBRANCH  15  17
ENDBRANCH   5  13
TORSDOF 3
ENDMDL
MODEL 4
REMARK VINA RESULT:      -8.4     13.476     17.390
REMARK  3 active torsions:
REMARK  status: ('A' for Active; 'I' for Inactive)
REMARK    1  A    between atoms: C14_20  and  O2_3 
REMARK       I    between atoms: C6_12  and  N1_6 
REMARK    2  A    between atoms: C7_13  and  N1_6 
REMARK    3  A    between atoms: C2_8  and  C6_12 
ROOT
HETATM    1 Cl1  UNK     1      18.923   2.263  21.190  1.00  0.00    -0.084 Cl
HETATM    2  O1  UNK     1      19.221   1.043  15.428  1.00  0.00    -0.274 OA
HETATM    3  O4  UNK     1      19.266  -0.476  13.721  1.00  0.00    -0.259 OA
HETATM    4  C1  UNK     1      19.056   0.262  17.724  1.00  0.00     0.001 A 
HETATM    5  C2  UNK     1      19.105  -1.350  15.917  1.00  0.00     0.108 A 
HETATM    6  C3  UNK     1      19.149   1.306  16.810  1.00  0.00     0.089 A 
HETATM    7  C4  UNK     1      19.036  -1.106  17.231  1.00  0.00     0.037 A 
HETATM    8  C5  UNK     1      18.986   0.564  19.087  1.00  0.00     0.038 A 
HETATM    9  C8  UNK     1      19.203  -0.257  14.926  1.00  0.00     0.304 A 
HETATM   10  C9  UNK     1      19.172   2.639  17.216  1.00  0.00     0.040 A 
HETATM   11  C10 UNK     1      19.009   1.895  19.510  1.00  0.00     0.035 A 
HETATM   12  C11 UNK     1      19.102   2.931  18.577  1.00  0.00     0.026 A 
ENDROOT
BRANCH   5  13
HETATM   13  C6  UNK     1      19.077  -2.762  15.517  1.00  0.00     0.262 C 
HETATM   14  O3  UNK     1      20.079  -3.275  15.018  1.00  0.00    -0.267 OA
HETATM   15  N1  UNK     1      17.849  -3.356  15.774  1.00  0.00    -0.323 N 
HETATM   16  H4  UNK     1      17.124  -2.795  16.215  1.00  0.00     0.169 HD
BRANCH  15  17
HETATM   17  C7  UNK     1      17.467  -4.695  15.519  1.00  0.00     0.037 A 
HETATM   18  C12 UNK     1      16.809  -5.411  16.505  1.00  0.00     0.066 A 
HETATM   19  C14 UNK     1      16.432  -6.730  16.252  1.00  0.00     0.070 A 
HETATM   20  C16 UNK     1      16.717  -7.313  15.018  1.00  0.00     0.037 A 
HETATM   21  C15 UNK     1      17.380  -6.577  14.035  1.00  0.00     0.005 A 
HETATM   22  C13 UNK     1      17.758  -5.259  14.288  1.00  0.00     0.029 A 
BRANCH  19  23
HETATM   23  O2  UNK     1      15.785  -7.448  17.211  1.00  0.00    -0.356 OA
HETATM   24  C17 UNK     1      15.840  -6.947  18.546  1.00  0.00     0.210 C 
ENDBRANCH  19  23
ENDBRANCH  15  17
ENDBRANCH   5  13
TORSDOF 3
ENDMDL
MODEL 5
REMARK VINA RESULT:      -8.4      8.209     10.196
REMARK  3 active torsions:
REMARK  status: ('A' for Active; 'I' for Inactive)
REMARK    1  A    between atoms: C14_20  and  O2_3 
REMARK       I    between atoms: C6_12  and  N1_6 
REMARK    2  A    between atoms: C7_13  and  N1_6 
REMARK    3  A    between atoms: C2_8  and  C6_12 
ROOT
HETATM    1 Cl1  UNK     1      19.391 -11.109  40.232  1.00  0.00    -0.084 Cl
HETATM    2  O1  UNK     1      20.121  -7.679  35.491  1.00  0.00    -0.274 OA
HETATM    3  O4  UNK     1      20.322  -5.604  34.554  1.00  0.00    -0.259 OA
HETATM    4  C1  UNK     1      19.813  -7.887  37.893  1.00  0.00     0.001 A 
HETATM    5  C2  UNK     1      20.024  -5.686  36.903  1.00  0.00     0.108 A 
HETATM    6  C3  UNK     1      19.945  -8.475  36.639  1.00  0.00     0.089 A 
HETATM    7  C4  UNK     1      19.856  -6.437  37.999  1.00  0.00     0.037 A 
HETATM    8  C5  UNK     1      19.640  -8.710  39.009  1.00  0.00     0.038 A 
HETATM    9  C8  UNK     1      20.168  -6.289  35.560  1.00  0.00     0.304 A 
HETATM   10  C9  UNK     1      19.912  -9.858  36.469  1.00  0.00     0.040 A 
HETATM   11  C10 UNK     1      19.604 -10.098  38.855  1.00  0.00     0.035 A 
HETATM   12  C11 UNK     1      19.740 -10.671  37.588  1.00  0.00     0.026 A 
ENDROOT
BRANCH   5  13
HETATM   13  C6  UNK     1      20.055  -4.233  37.111  1.00  0.00     0.262 C 
HETATM   14  O3  UNK     1      21.011  -3.721  37.692  1.00  0.00    -0.267 OA
HETATM   15  N1  UNK     1      18.932  -3.605  36.591  1.00  0.00    -0.323 N 
HETATM   16  H4  UNK     1      18.236  -4.175  36.116  1.00  0.00     0.169 HD
BRANCH  15  17
HETATM   17  C7  UNK     1      18.629  -2.222  36.611  1.00  0.00     0.037 A 
HETATM   18  C12 UNK     1      18.944  -1.444  35.510  1.00  0.00     0.066 A 
HETATM   19  C14 UNK     1      18.644  -0.082  35.530  1.00  0.00     0.070 A 
HETATM   20  C16 UNK     1      18.034   0.482  36.650  1.00  0.00     0.037 A 
HETATM   21  C15 UNK     1      17.723  -0.317  37.751  1.00  0.00     0.005 A 
HETATM   22  C13 UNK     1      18.023  -1.679  37.731  1.00  0.00     0.029 A 
BRANCH  19  23
HETATM   23  O2  UNK     1      18.946   0.698  34.456  1.00  0.00    -0.356 OA
HETATM   24  C17 UNK     1      18.161   1.874  34.265  1.00  0.00     0.210 C 
ENDBRANCH  19  23
ENDBRANCH  15  17
ENDBRANCH   5  13
TORSDOF 3
ENDMDL
MODEL 6
REMARK VINA RESULT:      -8.3      7.882     10.035
REMARK  3 active torsions:
REMARK  status: ('A' for Active; 'I' for Inactive)
REMARK    1  A    between atoms: C14_20  and  O2_3 
REMARK       I    between atoms: C6_12  and  N1_6 
REMARK    2  A    between atoms: C7_13  and  N1_6 
REMARK    3  A    between atoms: C2_8  and  C6_12 
ROOT
HETATM    1 Cl1  UNK     1      23.482 -10.958  36.057  1.00  0.00    -0.084 Cl
HETATM    2  O1  UNK     1      18.520  -7.875  36.863  1.00  0.00    -0.274 OA
HETATM    3  O4  UNK     1      17.449  -5.876  37.145  1.00  0.00    -0.259 OA
HETATM    4  C1  UNK     1      20.935  -7.915  36.590  1.00  0.00     0.001 A 
HETATM    5  C2  UNK     1      19.803  -5.794  36.889  1.00  0.00     0.108 A 
HETATM    6  C3  UNK     1      19.720  -8.587  36.671  1.00  0.00     0.089 A 
HETATM    7  C4  UNK     1      20.947  -6.465  36.707  1.00  0.00     0.037 A 
HETATM    8  C5  UNK     1      22.104  -8.656  36.398  1.00  0.00     0.038 A 
HETATM    9  C8  UNK     1      18.500  -6.487  36.979  1.00  0.00     0.304 A 
HETATM   10  C9  UNK     1      19.639  -9.974  36.567  1.00  0.00     0.040 A 
HETATM   11  C10 UNK     1      22.040 -10.048  36.292  1.00  0.00     0.035 A 
HETATM   12  C11 UNK     1      20.810 -10.706  36.376  1.00  0.00     0.026 A 
ENDROOT
BRANCH   5  13
HETATM   13  C6  UNK     1      19.917  -4.334  36.996  1.00  0.00     0.262 C 
HETATM   14  O3  UNK     1      20.957  -3.834  37.422  1.00  0.00    -0.267 OA
HETATM   15  N1  UNK     1      18.764  -3.687  36.576  1.00  0.00    -0.323 N 
HETATM   16  H4  UNK     1      17.993  -4.250  36.228  1.00  0.00     0.169 HD
BRANCH  15  17
HETATM   17  C7  UNK     1      18.521  -2.292  36.542  1.00  0.00     0.037 A 
HETATM   18  C12 UNK     1      18.761  -1.591  35.372  1.00  0.00     0.066 A 
HETATM   19  C14 UNK     1      18.520  -0.218  35.338  1.00  0.00     0.070 A 
HETATM   20  C16 UNK     1      18.042   0.434  36.474  1.00  0.00     0.037 A 
HETATM   21  C15 UNK     1      17.804  -0.287  37.645  1.00  0.00     0.005 A 
HETATM   22  C13 UNK     1      18.046  -1.660  37.678  1.00  0.00     0.029 A 
BRANCH  19  23
HETATM   23  O2  UNK     1      18.752   0.486  34.196  1.00  0.00    -0.356 OA
HETATM   24  C17 UNK     1      18.120   1.760  34.079  1.00  0.00     0.210 C 
ENDBRANCH  19  23
ENDBRANCH  15  17
ENDBRANCH   5  13
TORSDOF 3
ENDMDL
MODEL 7
REMARK VINA RESULT:      -8.1     14.585     16.080
REMARK  3 active torsions:
REMARK  status: ('A' for Active; 'I' for Inactive)
REMARK    1  A    between atoms: C14_20  and  O2_3 
REMARK       I    between atoms: C6_12  and  N1_6 
REMARK    2  A    between atoms: C7_13  and  N1_6 
REMARK    3  A    between atoms: C2_8  and  C6_12 
ROOT
HETATM    1 Cl1  UNK     1      33.428  -7.069  37.967  1.00  0.00    -0.084 Cl
HETATM    2  O1  UNK     1      28.021  -4.845  38.736  1.00  0.00    -0.274 OA
HETATM    3  O4  UNK     1      25.769  -5.143  38.987  1.00  0.00    -0.259 OA
HETATM    4  C1  UNK     1      29.464  -6.780  38.455  1.00  0.00     0.001 A 
HETATM    5  C2  UNK     1      27.077  -7.100  38.720  1.00  0.00     0.108 A 
HETATM    6  C3  UNK     1      29.301  -5.402  38.552  1.00  0.00     0.089 A 
HETATM    7  C4  UNK     1      28.292  -7.636  38.544  1.00  0.00     0.037 A 
HETATM    8  C5  UNK     1      30.750  -7.295  38.273  1.00  0.00     0.038 A 
HETATM    9  C8  UNK     1      26.880  -5.638  38.827  1.00  0.00     0.304 A 
HETATM   10  C9  UNK     1      30.383  -4.527  38.474  1.00  0.00     0.040 A 
HETATM   11  C10 UNK     1      31.845  -6.431  38.192  1.00  0.00     0.035 A 
HETATM   12  C11 UNK     1      31.662  -5.049  38.293  1.00  0.00     0.026 A 
ENDROOT
BRANCH   5  13
HETATM   13  C6  UNK     1      25.957  -8.045  38.798  1.00  0.00     0.262 C 
HETATM   14  O3  UNK     1      26.172  -9.225  39.072  1.00  0.00    -0.267 OA
HETATM   15  N1  UNK     1      24.738  -7.435  38.536  1.00  0.00    -0.323 N 
HETATM   16  H4  UNK     1      24.729  -6.436  38.346  1.00  0.00     0.169 HD
BRANCH  15  17
HETATM   17  C7  UNK     1      23.456  -8.037  38.523  1.00  0.00     0.037 A 
HETATM   18  C12 UNK     1      22.975  -8.579  37.343  1.00  0.00     0.066 A 
HETATM   19  C14 UNK     1      21.713  -9.173  37.331  1.00  0.00     0.070 A 
HETATM   20  C16 UNK     1      20.951  -9.215  38.498  1.00  0.00     0.037 A 
HETATM   21  C15 UNK     1      21.451  -8.664  39.678  1.00  0.00     0.005 A 
HETATM   22  C13 UNK     1      22.713  -8.071  39.691  1.00  0.00     0.029 A 
BRANCH  19  23
HETATM   23  O2  UNK     1      21.225  -9.711  36.180  1.00  0.00    -0.356 OA
HETATM   24  C17 UNK     1      22.132 -10.469  35.381  1.00  0.00     0.210 C 
ENDBRANCH  19  23
ENDBRANCH  15  17
ENDBRANCH   5  13
TORSDOF 3
ENDMDL
MODEL 8
REMARK VINA RESULT:      -8.1      4.664      8.108
REMARK  3 active torsions:
REMARK  status: ('A' for Active; 'I' for Inactive)
REMARK    1  A    between atoms: C14_20  and  O2_3 
REMARK       I    between atoms: C6_12  and  N1_6 
REMARK    2  A    between atoms: C7_13  and  N1_6 
REMARK    3  A    between atoms: C2_8  and  C6_12 
ROOT
HETATM    1 Cl1  UNK     1      17.705   7.640  32.648  1.00  0.00    -0.084 Cl
HETATM    2  O1  UNK     1      19.192   2.470  30.232  1.00  0.00    -0.274 OA
HETATM    3  O4  UNK     1      19.417   0.200  30.382  1.00  0.00    -0.259 OA
HETATM    4  C1  UNK     1      18.364   3.722  32.143  1.00  0.00     0.001 A 
HETATM    5  C2  UNK     1      18.601   1.317  32.306  1.00  0.00     0.108 A 
HETATM    6  C3  UNK     1      18.831   3.691  30.834  1.00  0.00     0.089 A 
HETATM    7  C4  UNK     1      18.256   2.475  32.883  1.00  0.00     0.037 A 
HETATM    8  C5  UNK     1      18.014   4.953  32.705  1.00  0.00     0.038 A 
HETATM    9  C8  UNK     1      19.100   1.259  30.914  1.00  0.00     0.304 A 
HETATM   10  C9  UNK     1      18.957   4.850  30.071  1.00  0.00     0.040 A 
HETATM   11  C10 UNK     1      18.136   6.125  31.953  1.00  0.00     0.035 A 
HETATM   12  C11 UNK     1      18.606   6.073  30.638  1.00  0.00     0.026 A 
ENDROOT
BRANCH   5  13
HETATM   13  C6  UNK     1      18.458   0.112  33.132  1.00  0.00     0.262 C 
HETATM   14  O3  UNK     1      17.962  -0.904  32.648  1.00  0.00    -0.267 OA
HETATM   15  N1  UNK     1      18.931   0.303  34.423  1.00  0.00    -0.323 N 
HETATM   16  H4  UNK     1      19.335   1.205  34.661  1.00  0.00     0.169 HD
BRANCH  15  17
HETATM   17  C7  UNK     1      18.950  -0.636  35.483  1.00  0.00     0.037 A 
HETATM   18  C12 UNK     1      19.755  -1.757  35.379  1.00  0.00     0.066 A 
HETATM   19  C14 UNK     1      19.775  -2.681  36.424  1.00  0.00     0.070 A 
HETATM   20  C16 UNK     1      18.989  -2.470  37.557  1.00  0.00     0.037 A 
HETATM   21  C15 UNK     1      18.184  -1.334  37.646  1.00  0.00     0.005 A 
HETATM   22  C13 UNK     1      18.165  -0.410  36.601  1.00  0.00     0.029 A 
BRANCH  19  23
HETATM   23  O2  UNK     1      20.561  -3.789  36.339  1.00  0.00    -0.356 OA
HETATM   24  C17 UNK     1      20.861  -4.468  37.557  1.00  0.00     0.210 C 
ENDBRANCH  19  23
ENDBRANCH  15  17
ENDBRANCH   5  13
TORSDOF 3
ENDMDL
MODEL 9
REMARK VINA RESULT:      -8.1      8.044     11.826
REMARK  3 active torsions:
REMARK  status: ('A' for Active; 'I' for Inactive)
REMARK    1  A    between atoms: C14_20  and  O2_3 
REMARK       I    between atoms: C6_12  and  N1_6 
REMARK    2  A    between atoms: C7_13  and  N1_6 
REMARK    3  A    between atoms: C2_8  and  C6_12 
ROOT
HETATM    1 Cl1  UNK     1      16.361   1.765  37.908  1.00  0.00    -0.084 Cl
HETATM    2  O1  UNK     1      19.697  -1.361  34.182  1.00  0.00    -0.274 OA
HETATM    3  O4  UNK     1      20.849  -3.267  33.672  1.00  0.00    -0.259 OA
HETATM    4  C1  UNK     1      18.548  -1.188  36.318  1.00  0.00     0.001 A 
HETATM    5  C2  UNK     1      19.770  -3.210  35.781  1.00  0.00     0.108 A 
HETATM    6  C3  UNK     1      18.901  -0.636  35.091  1.00  0.00     0.089 A 
HETATM    7  C4  UNK     1      19.014  -2.526  36.648  1.00  0.00     0.037 A 
HETATM    8  C5  UNK     1      17.757  -0.438  37.192  1.00  0.00     0.038 A 
HETATM    9  C8  UNK     1      20.157  -2.644  34.470  1.00  0.00     0.304 A 
HETATM   10  C9  UNK     1      18.488   0.640  34.713  1.00  0.00     0.040 A 
HETATM   11  C10 UNK     1      17.335   0.843  36.828  1.00  0.00     0.035 A 
HETATM   12  C11 UNK     1      17.699   1.381  35.591  1.00  0.00     0.026 A 
ENDROOT
BRANCH   5  13
HETATM   13  C6  UNK     1      20.191  -4.551  36.204  1.00  0.00     0.262 C 
HETATM   14  O3  UNK     1      20.125  -5.490  35.412  1.00  0.00    -0.267 OA
HETATM   15  N1  UNK     1      20.631  -4.571  37.520  1.00  0.00    -0.323 N 
HETATM   16  H4  UNK     1      20.644  -3.696  38.038  1.00  0.00     0.169 HD
BRANCH  15  17
HETATM   17  C7  UNK     1      21.107  -5.684  38.255  1.00  0.00     0.037 A 
HETATM   18  C12 UNK     1      20.233  -6.713  38.565  1.00  0.00     0.066 A 
HETATM   19  C14 UNK     1      20.702  -7.809  39.288  1.00  0.00     0.070 A 
HETATM   20  C16 UNK     1      22.036  -7.861  39.691  1.00  0.00     0.037 A 
HETATM   21  C15 UNK     1      22.903  -6.816  39.370  1.00  0.00     0.005 A 
HETATM   22  C13 UNK     1      22.434  -5.719  38.647  1.00  0.00     0.029 A 
BRANCH  19  23
HETATM   23  O2  UNK     1      19.857  -8.830  39.601  1.00  0.00    -0.356 OA
HETATM   24  C17 UNK     1      19.330  -9.593  38.517  1.00  0.00     0.210 C 
ENDBRANCH  19  23
ENDBRANCH  15  17
ENDBRANCH   5  13
TORSDOF 3
ENDMDL
MODEL 10
REMARK VINA RESULT:      -8.0     14.044     18.070
REMARK  3 active torsions:
REMARK  status: ('A' for Active; 'I' for Inactive)
REMARK    1  A    between atoms: C14_20  and  O2_3 
REMARK       I    between atoms: C6_12  and  N1_6 
REMARK    2  A    between atoms: C7_13  and  N1_6 
REMARK    3  A    between atoms: C2_8  and  C6_12 
ROOT
HETATM    1 Cl1  UNK     1      19.010   2.293  21.388  1.00  0.00    -0.084 Cl
HETATM    2  O1  UNK     1      19.253   1.158  15.606  1.00  0.00    -0.274 OA
HETATM    3  O4  UNK     1      19.208  -0.330  13.872  1.00  0.00    -0.259 OA
HETATM    4  C1  UNK     1      19.029   0.349  17.887  1.00  0.00     0.001 A 
HETATM    5  C2  UNK     1      18.982  -1.231  16.051  1.00  0.00     0.108 A 
HETATM    6  C3  UNK     1      19.192   1.401  16.992  1.00  0.00     0.089 A 
HETATM    7  C4  UNK     1      18.923  -1.006  17.370  1.00  0.00     0.037 A 
HETATM    8  C5  UNK     1      18.972   0.631  19.254  1.00  0.00     0.038 A 
HETATM    9  C8  UNK     1      19.154  -0.129  15.080  1.00  0.00     0.304 A 
HETATM   10  C9  UNK     1      19.300   2.722  17.422  1.00  0.00     0.040 A 
HETATM   11  C10 UNK     1      19.079   1.950  19.702  1.00  0.00     0.035 A 
HETATM   12  C11 UNK     1      19.242   2.994  18.787  1.00  0.00     0.026 A 
ENDROOT
BRANCH   5  13
HETATM   13  C6  UNK     1      18.866  -2.631  15.626  1.00  0.00     0.262 C 
HETATM   14  O3  UNK     1      17.795  -3.223  15.761  1.00  0.00    -0.267 OA
HETATM   15  N1  UNK     1      20.054  -3.119  15.101  1.00  0.00    -0.323 N 
HETATM   16  H4  UNK     1      20.850  -2.490  15.039  1.00  0.00     0.169 HD
BRANCH  15  17
HETATM   17  C7  UNK     1      20.306  -4.419  14.597  1.00  0.00     0.037 A 
HETATM   18  C12 UNK     1      19.873  -4.746  13.323  1.00  0.00     0.066 A 
HETATM   19  C14 UNK     1      20.123  -6.026  12.827  1.00  0.00     0.070 A 
HETATM   20  C16 UNK     1      20.802  -6.958  13.612  1.00  0.00     0.037 A 
HETATM   21  C15 UNK     1      21.231  -6.611  14.893  1.00  0.00     0.005 A 
HETATM   22  C13 UNK     1      20.981  -5.332  15.389  1.00  0.00     0.029 A 
BRANCH  19  23
HETATM   23  O2  UNK     1      19.704  -6.365  11.577  1.00  0.00    -0.356 OA
HETATM   24  C17 UNK     1      19.059  -5.349  10.810  1.00  0.00     0.210 C 
ENDBRANCH  19  23
ENDBRANCH  15  17
ENDBRANCH   5  13
TORSDOF 3
ENDMDL
