MODEL 1
REMARK VINA RESULT:      -7.9      0.000      0.000
REMARK  6 active torsions:
REMARK  status: ('A' for Active; 'I' for Inactive)
REMARK    1  A    between atoms: C12_19  and  O3_3 
REMARK    2  A    between atoms: C20_27  and  O3_3 
REMARK    3  A    between atoms: C23_30  and  O6_6 
REMARK    4  A    between atoms: C1_8  and  C10_17 
REMARK    5  A    between atoms: C12_19  and  C6_13 
REMARK    6  A    between atoms: C20_27  and  C23_30 
ROOT
HETATM    1  O1  UNK     1      29.017  -5.418  32.211  1.00  0.00    -0.293 OA
HETATM    2  N1  UNK     1      29.111 -10.091  31.444  1.00  0.00    -0.362 N 
HETATM    3  C1  UNK     1      30.033  -7.971  33.088  1.00  0.00     0.104 C 
HETATM    4  C2  UNK     1      29.041  -7.777  31.946  1.00  0.00     0.024 C 
HETATM    5  C3  UNK     1      28.614  -8.823  31.208  1.00  0.00     0.020 C 
HETATM    6  C4  UNK     1      27.599  -8.696  30.104  1.00  0.00     0.058 C 
HETATM    7  C5  UNK     1      26.758  -7.434  30.238  1.00  0.00     0.014 C 
HETATM    8  C6  UNK     1      30.600  -9.393  33.147  1.00  0.00     0.052 C 
HETATM    9  C7  UNK     1      27.641  -6.214  30.431  1.00  0.00     0.084 C 
HETATM   10  C8  UNK     1      28.584  -6.395  31.600  1.00  0.00     0.158 C 
HETATM   11  C9  UNK     1      30.118 -10.378  32.354  1.00  0.00     0.018 C 
HETATM   12  C13 UNK     1      30.591 -11.807  32.323  1.00  0.00     0.069 C 
HETATM   13  H8  UNK     1      28.773 -10.847  30.860  1.00  0.00     0.165 HD
ENDROOT
BRANCH   3  14
HETATM   14  C10 UNK     1      29.389  -7.614  34.401  1.00  0.00     0.029 A 
HETATM   15  C11 UNK     1      29.994  -6.530  35.216  1.00  0.00     0.194 A 
HETATM   16  O4  UNK     1      30.995  -5.925  34.854  1.00  0.00    -0.287 OA
HETATM   17  C15 UNK     1      29.324  -6.221  36.493  1.00  0.00     0.049 A 
HETATM   18  C16 UNK     1      28.188  -6.945  36.855  1.00  0.00     0.089 A 
HETATM   19  C17 UNK     1      29.817  -5.218  37.332  1.00  0.00     0.025 A 
HETATM   20  O2  UNK     1      27.661  -7.939  36.070  1.00  0.00    -0.321 OA
HETATM   21  C18 UNK     1      27.538  -6.669  38.059  1.00  0.00     0.039 A 
HETATM   22  C14 UNK     1      28.295  -8.217  34.885  1.00  0.00     0.154 A 
HETATM   23  C21 UNK     1      28.028  -5.668  38.898  1.00  0.00     0.009 A 
HETATM   24  C19 UNK     1      29.165  -4.944  38.535  1.00  0.00    -0.061 A 
HETATM   25  C22 UNK     1      29.684  -3.874  39.436  1.00  0.00     0.048 C 
ENDBRANCH   3  14
BRANCH   8  26
HETATM   26  C12 UNK     1      31.699  -9.612  34.104  1.00  0.00     0.292 C 
HETATM   27  O5  UNK     1      32.858  -9.333  33.865  1.00  0.00    -0.259 OA
BRANCH  26  28
HETATM   28  O3  UNK     1      31.180 -10.153  35.232  1.00  0.00    -0.316 OA
BRANCH  28  29
HETATM   29  C20 UNK     1      31.727  -9.648  36.454  1.00  0.00     0.205 C 
BRANCH  29  30
HETATM   30  C23 UNK     1      30.644  -9.639  37.515  1.00  0.00     0.193 C 
BRANCH  30  31
HETATM   31  O6  UNK     1      30.895  -8.576  38.426  1.00  0.00    -0.394 OA
HETATM   32  C24 UNK     1      32.194  -8.031  38.244  1.00  0.00     0.201 C 
ENDBRANCH  30  31
ENDBRANCH  29  30
ENDBRANCH  28  29
ENDBRANCH  26  28
ENDBRANCH   8  26
TORSDOF 6
ENDMDL
MODEL 2
REMARK VINA RESULT:      -7.9      2.249      6.205
REMARK  6 active torsions:
REMARK  status: ('A' for Active; 'I' for Inactive)
REMARK    1  A    between atoms: C12_19  and  O3_3 
REMARK    2  A    between atoms: C20_27  and  O3_3 
REMARK    3  A    between atoms: C23_30  and  O6_6 
REMARK    4  A    between atoms: C1_8  and  C10_17 
REMARK    5  A    between atoms: C12_19  and  C6_13 
REMARK    6  A    between atoms: C20_27  and  C23_30 
ROOT
HETATM    1  O1  UNK     1      28.199  -9.619  36.159  1.00  0.00    -0.293 OA
HETATM    2  N1  UNK     1      29.597  -5.376  37.735  1.00  0.00    -0.362 N 
HETATM    3  C1  UNK     1      29.838  -7.298  35.663  1.00  0.00     0.104 C 
HETATM    4  C2  UNK     1      28.877  -7.447  36.837  1.00  0.00     0.024 C 
HETATM    5  C3  UNK     1      28.782  -6.491  37.786  1.00  0.00     0.020 C 
HETATM    6  C4  UNK     1      27.815  -6.563  38.937  1.00  0.00     0.058 C 
HETATM    7  C5  UNK     1      26.657  -7.511  38.657  1.00  0.00     0.014 C 
HETATM    8  C6  UNK     1      30.770  -6.091  35.807  1.00  0.00     0.052 C 
HETATM    9  C7  UNK     1      27.164  -8.856  38.170  1.00  0.00     0.084 C 
HETATM   10  C8  UNK     1      28.074  -8.702  36.971  1.00  0.00     0.158 C 
HETATM   11  C9  UNK     1      30.607  -5.189  36.804  1.00  0.00     0.018 C 
HETATM   12  C13 UNK     1      31.453  -3.968  37.046  1.00  0.00     0.069 C 
HETATM   13  H8  UNK     1      29.502  -4.688  38.473  1.00  0.00     0.165 HD
ENDROOT
BRANCH   3  14
HETATM   14  C10 UNK     1      29.070  -7.211  34.371  1.00  0.00     0.029 A 
HETATM   15  C11 UNK     1      29.342  -8.218  33.314  1.00  0.00     0.194 A 
HETATM   16  O4  UNK     1      30.168  -9.110  33.463  1.00  0.00    -0.287 OA
HETATM   17  C15 UNK     1      28.563  -8.085  32.070  1.00  0.00     0.049 A 
HETATM   18  C16 UNK     1      27.636  -7.049  31.957  1.00  0.00     0.089 A 
HETATM   19  C17 UNK     1      28.746  -8.985  31.016  1.00  0.00     0.025 A 
HETATM   20  O2  UNK     1      27.416  -6.139  32.959  1.00  0.00    -0.321 OA
HETATM   21  C18 UNK     1      26.888  -6.905  30.787  1.00  0.00     0.039 A 
HETATM   22  C14 UNK     1      28.149  -6.273  34.112  1.00  0.00     0.154 A 
HETATM   23  C21 UNK     1      27.069  -7.801  29.734  1.00  0.00     0.009 A 
HETATM   24  C19 UNK     1      27.996  -8.838  29.848  1.00  0.00    -0.061 A 
HETATM   25  C22 UNK     1      28.185  -9.794  28.717  1.00  0.00     0.048 C 
ENDBRANCH   3  14
BRANCH   8  26
HETATM   26  C12 UNK     1      31.848  -5.982  34.809  1.00  0.00     0.292 C 
HETATM   27  O5  UNK     1      31.857  -5.149  33.923  1.00  0.00    -0.259 OA
BRANCH  26  28
HETATM   28  O3  UNK     1      32.767  -6.943  35.067  1.00  0.00    -0.316 OA
BRANCH  28  29
HETATM   29  C20 UNK     1      33.963  -6.482  35.703  1.00  0.00     0.205 C 
BRANCH  29  30
HETATM   30  C23 UNK     1      34.050  -7.088  37.091  1.00  0.00     0.193 C 
BRANCH  30  31
HETATM   31  O6  UNK     1      33.138  -8.175  37.181  1.00  0.00    -0.394 OA
HETATM   32  C24 UNK     1      32.332  -8.084  38.347  1.00  0.00     0.201 C 
ENDBRANCH  30  31
ENDBRANCH  29  30
ENDBRANCH  28  29
ENDBRANCH  26  28
ENDBRANCH   8  26
TORSDOF 6
ENDMDL
MODEL 3
REMARK VINA RESULT:      -7.8      2.523      6.390
REMARK  6 active torsions:
REMARK  status: ('A' for Active; 'I' for Inactive)
REMARK    1  A    between atoms: C12_19  and  O3_3 
REMARK    2  A    between atoms: C20_27  and  O3_3 
REMARK    3  A    between atoms: C23_30  and  O6_6 
REMARK    4  A    between atoms: C1_8  and  C10_17 
REMARK    5  A    between atoms: C12_19  and  C6_13 
REMARK    6  A    between atoms: C20_27  and  C23_30 
ROOT
HETATM    1  O1  UNK     1      29.375  -9.567  36.191  1.00  0.00    -0.293 OA
HETATM    2  N1  UNK     1      30.369  -5.168  37.640  1.00  0.00    -0.362 N 
HETATM    3  C1  UNK     1      30.590  -7.038  35.519  1.00  0.00     0.104 C 
HETATM    4  C2  UNK     1      29.830  -7.320  36.810  1.00  0.00     0.024 C 
HETATM    5  C3  UNK     1      29.733  -6.387  37.781  1.00  0.00     0.020 C 
HETATM    6  C4  UNK     1      28.954  -6.593  39.051  1.00  0.00     0.058 C 
HETATM    7  C5  UNK     1      27.911  -7.695  38.914  1.00  0.00     0.014 C 
HETATM    8  C6  UNK     1      31.354  -5.711  35.558  1.00  0.00     0.052 C 
HETATM    9  C7  UNK     1      28.530  -8.956  38.338  1.00  0.00     0.084 C 
HETATM   10  C8  UNK     1      29.236  -8.676  37.030  1.00  0.00     0.158 C 
HETATM   11  C9  UNK     1      31.206  -4.841  36.583  1.00  0.00     0.018 C 
HETATM   12  C13 UNK     1      31.897  -3.512  36.730  1.00  0.00     0.069 C 
HETATM   13  H8  UNK     1      30.281  -4.500  38.396  1.00  0.00     0.165 HD
ENDROOT
BRANCH   3  14
HETATM   14  C10 UNK     1      29.647  -7.061  34.346  1.00  0.00     0.029 A 
HETATM   15  C11 UNK     1      29.914  -8.014  33.239  1.00  0.00     0.194 A 
HETATM   16  O4  UNK     1      30.874  -8.774  33.253  1.00  0.00    -0.287 OA
HETATM   17  C15 UNK     1      28.961  -7.994  32.115  1.00  0.00     0.049 A 
HETATM   18  C16 UNK     1      27.886  -7.105  32.153  1.00  0.00     0.089 A 
HETATM   19  C17 UNK     1      29.126  -8.853  31.025  1.00  0.00     0.025 A 
HETATM   20  O2  UNK     1      27.675  -6.242  33.197  1.00  0.00    -0.321 OA
HETATM   21  C18 UNK     1      26.971  -7.070  31.100  1.00  0.00     0.039 A 
HETATM   22  C14 UNK     1      28.571  -6.270  34.236  1.00  0.00     0.154 A 
HETATM   23  C21 UNK     1      27.134  -7.927  30.011  1.00  0.00     0.009 A 
HETATM   24  C19 UNK     1      28.209  -8.816  29.973  1.00  0.00    -0.061 A 
HETATM   25  C22 UNK     1      28.378  -9.730  28.806  1.00  0.00     0.048 C 
ENDBRANCH   3  14
BRANCH   8  26
HETATM   26  C12 UNK     1      32.259  -5.453  34.424  1.00  0.00     0.292 C 
HETATM   27  O5  UNK     1      31.974  -4.720  33.496  1.00  0.00    -0.259 OA
BRANCH  26  28
HETATM   28  O3  UNK     1      33.400  -6.157  34.619  1.00  0.00    -0.316 OA
BRANCH  28  29
HETATM   29  C20 UNK     1      34.560  -5.366  34.895  1.00  0.00     0.205 C 
BRANCH  29  30
HETATM   30  C23 UNK     1      35.322  -5.992  36.047  1.00  0.00     0.193 C 
BRANCH  30  31
HETATM   31  O6  UNK     1      34.595  -5.784  37.252  1.00  0.00    -0.394 OA
HETATM   32  C24 UNK     1      34.090  -7.005  37.774  1.00  0.00     0.201 C 
ENDBRANCH  30  31
ENDBRANCH  29  30
ENDBRANCH  28  29
ENDBRANCH  26  28
ENDBRANCH   8  26
TORSDOF 6
ENDMDL
MODEL 4
REMARK VINA RESULT:      -7.7      2.573      6.316
REMARK  6 active torsions:
REMARK  status: ('A' for Active; 'I' for Inactive)
REMARK    1  A    between atoms: C12_19  and  O3_3 
REMARK    2  A    between atoms: C20_27  and  O3_3 
REMARK    3  A    between atoms: C23_30  and  O6_6 
REMARK    4  A    between atoms: C1_8  and  C10_17 
REMARK    5  A    between atoms: C12_19  and  C6_13 
REMARK    6  A    between atoms: C20_27  and  C23_30 
ROOT
HETATM    1  O1  UNK     1      27.474 -10.035  36.384  1.00  0.00    -0.293 OA
HETATM    2  N1  UNK     1      29.944  -6.583  38.485  1.00  0.00    -0.362 N 
HETATM    3  C1  UNK     1      29.753  -8.276  36.217  1.00  0.00     0.104 C 
HETATM    4  C2  UNK     1      28.712  -8.244  37.331  1.00  0.00     0.024 C 
HETATM    5  C3  UNK     1      28.836  -7.402  38.378  1.00  0.00     0.020 C 
HETATM    6  C4  UNK     1      27.814  -7.293  39.477  1.00  0.00     0.058 C 
HETATM    7  C5  UNK     1      26.450  -7.817  39.048  1.00  0.00     0.014 C 
HETATM    8  C6  UNK     1      30.986  -7.423  36.533  1.00  0.00     0.052 C 
HETATM    9  C7  UNK     1      26.572  -9.199  38.430  1.00  0.00     0.084 C 
HETATM   10  C8  UNK     1      27.568  -9.208  37.291  1.00  0.00     0.158 C 
HETATM   11  C9  UNK     1      31.027  -6.617  37.619  1.00  0.00     0.018 C 
HETATM   12  C13 UNK     1      32.176  -5.736  38.030  1.00  0.00     0.069 C 
HETATM   13  H8  UNK     1      30.005  -5.974  39.293  1.00  0.00     0.165 HD
ENDROOT
BRANCH   3  14
HETATM   14  C10 UNK     1      29.136  -7.836  34.917  1.00  0.00     0.029 A 
HETATM   15  C11 UNK     1      29.176  -8.767  33.761  1.00  0.00     0.194 A 
HETATM   16  O4  UNK     1      29.694  -9.875  33.836  1.00  0.00    -0.287 OA
HETATM   17  C15 UNK     1      28.559  -8.287  32.512  1.00  0.00     0.049 A 
HETATM   18  C16 UNK     1      27.984  -7.015  32.485  1.00  0.00     0.089 A 
HETATM   19  C17 UNK     1      28.546  -9.090  31.368  1.00  0.00     0.025 A 
HETATM   20  O2  UNK     1      27.968  -6.186  33.578  1.00  0.00    -0.321 OA
HETATM   21  C18 UNK     1      27.394  -6.540  31.313  1.00  0.00     0.039 A 
HETATM   22  C14 UNK     1      28.548  -6.646  34.734  1.00  0.00     0.154 A 
HETATM   23  C21 UNK     1      27.379  -7.340  30.170  1.00  0.00     0.009 A 
HETATM   24  C19 UNK     1      27.954  -8.611  30.198  1.00  0.00    -0.061 A 
HETATM   25  C22 UNK     1      27.935  -9.462  28.972  1.00  0.00     0.048 C 
ENDBRANCH   3  14
BRANCH   8  26
HETATM   26  C12 UNK     1      32.115  -7.546  35.594  1.00  0.00     0.292 C 
HETATM   27  O5  UNK     1      32.860  -8.507  35.566  1.00  0.00    -0.259 OA
BRANCH  26  28
HETATM   28  O3  UNK     1      32.147  -6.436  34.818  1.00  0.00    -0.316 OA
BRANCH  28  29
HETATM   29  C20 UNK     1      33.431  -6.112  34.277  1.00  0.00     0.205 C 
BRANCH  29  30
HETATM   30  C23 UNK     1      33.894  -4.789  34.859  1.00  0.00     0.193 C 
BRANCH  30  31
HETATM   31  O6  UNK     1      34.875  -5.040  35.857  1.00  0.00    -0.394 OA
HETATM   32  C24 UNK     1      35.609  -6.224  35.580  1.00  0.00     0.201 C 
ENDBRANCH  30  31
ENDBRANCH  29  30
ENDBRANCH  28  29
ENDBRANCH  26  28
ENDBRANCH   8  26
TORSDOF 6
ENDMDL
MODEL 5
REMARK VINA RESULT:      -7.7      1.027      1.407
REMARK  6 active torsions:
REMARK  status: ('A' for Active; 'I' for Inactive)
REMARK    1  A    between atoms: C12_19  and  O3_3 
REMARK    2  A    between atoms: C20_27  and  O3_3 
REMARK    3  A    between atoms: C23_30  and  O6_6 
REMARK    4  A    between atoms: C1_8  and  C10_17 
REMARK    5  A    between atoms: C12_19  and  C6_13 
REMARK    6  A    between atoms: C20_27  and  C23_30 
ROOT
HETATM    1  O1  UNK     1      28.964  -5.429  32.200  1.00  0.00    -0.293 OA
HETATM    2  N1  UNK     1      29.023 -10.087  31.346  1.00  0.00    -0.362 N 
HETATM    3  C1  UNK     1      29.974  -8.004  33.019  1.00  0.00     0.104 C 
HETATM    4  C2  UNK     1      28.972  -7.783  31.891  1.00  0.00     0.024 C 
HETATM    5  C3  UNK     1      28.531  -8.813  31.139  1.00  0.00     0.020 C 
HETATM    6  C4  UNK     1      27.505  -8.660  30.048  1.00  0.00     0.058 C 
HETATM    7  C5  UNK     1      26.672  -7.396  30.215  1.00  0.00     0.014 C 
HETATM    8  C6  UNK     1      30.534  -9.429  33.045  1.00  0.00     0.052 C 
HETATM    9  C7  UNK     1      27.564  -6.184  30.421  1.00  0.00     0.084 C 
HETATM   10  C8  UNK     1      28.519  -6.392  31.576  1.00  0.00     0.158 C 
HETATM   11  C9  UNK     1      30.038 -10.397  32.239  1.00  0.00     0.018 C 
HETATM   12  C13 UNK     1      30.502 -11.827  32.176  1.00  0.00     0.069 C 
HETATM   13  H8  UNK     1      28.675 -10.830  30.752  1.00  0.00     0.165 HD
ENDROOT
BRANCH   3  14
HETATM   14  C10 UNK     1      29.347  -7.667  34.345  1.00  0.00     0.029 A 
HETATM   15  C11 UNK     1      29.944  -6.576  35.156  1.00  0.00     0.194 A 
HETATM   16  O4  UNK     1      30.925  -5.947  34.778  1.00  0.00    -0.287 OA
HETATM   17  C15 UNK     1      29.291  -6.288  36.445  1.00  0.00     0.049 A 
HETATM   18  C16 UNK     1      28.177  -7.036  36.824  1.00  0.00     0.089 A 
HETATM   19  C17 UNK     1      29.778  -5.279  37.281  1.00  0.00     0.025 A 
HETATM   20  O2  UNK     1      27.657  -8.037  36.043  1.00  0.00    -0.321 OA
HETATM   21  C18 UNK     1      27.543  -6.781  38.041  1.00  0.00     0.039 A 
HETATM   22  C14 UNK     1      28.275  -8.295  34.845  1.00  0.00     0.154 A 
HETATM   23  C21 UNK     1      28.027  -5.774  38.876  1.00  0.00     0.009 A 
HETATM   24  C19 UNK     1      29.142  -5.025  38.498  1.00  0.00    -0.061 A 
HETATM   25  C22 UNK     1      29.655  -3.950  39.396  1.00  0.00     0.048 C 
ENDBRANCH   3  14
BRANCH   8  26
HETATM   26  C12 UNK     1      31.642  -9.672  33.985  1.00  0.00     0.292 C 
HETATM   27  O5  UNK     1      31.530 -10.351  34.988  1.00  0.00    -0.259 OA
BRANCH  26  28
HETATM   28  O3  UNK     1      32.740  -9.022  33.529  1.00  0.00    -0.316 OA
BRANCH  28  29
HETATM   29  C20 UNK     1      33.824  -8.939  34.458  1.00  0.00     0.205 C 
BRANCH  29  30
HETATM   30  C23 UNK     1      33.989  -7.497  34.898  1.00  0.00     0.193 C 
BRANCH  30  31
HETATM   31  O6  UNK     1      34.201  -7.462  36.304  1.00  0.00    -0.394 OA
HETATM   32  C24 UNK     1      33.042  -7.873  37.016  1.00  0.00     0.201 C 
ENDBRANCH  30  31
ENDBRANCH  29  30
ENDBRANCH  28  29
ENDBRANCH  26  28
ENDBRANCH   8  26
TORSDOF 6
ENDMDL
MODEL 6
REMARK VINA RESULT:      -7.4      3.210      7.205
REMARK  6 active torsions:
REMARK  status: ('A' for Active; 'I' for Inactive)
REMARK    1  A    between atoms: C12_19  and  O3_3 
REMARK    2  A    between atoms: C20_27  and  O3_3 
REMARK    3  A    between atoms: C23_30  and  O6_6 
REMARK    4  A    between atoms: C1_8  and  C10_17 
REMARK    5  A    between atoms: C12_19  and  C6_13 
REMARK    6  A    between atoms: C20_27  and  C23_30 
ROOT
HETATM    1  O1  UNK     1      31.144  -9.650  35.849  1.00  0.00    -0.293 OA
HETATM    2  N1  UNK     1      35.243  -7.276  35.814  1.00  0.00    -0.362 N 
HETATM    3  C1  UNK     1      33.422  -8.822  34.284  1.00  0.00     0.104 C 
HETATM    4  C2  UNK     1      33.162  -8.404  35.728  1.00  0.00     0.024 C 
HETATM    5  C3  UNK     1      34.050  -7.646  36.405  1.00  0.00     0.020 C 
HETATM    6  C4  UNK     1      33.821  -7.163  37.812  1.00  0.00     0.058 C 
HETATM    7  C5  UNK     1      32.345  -7.173  38.190  1.00  0.00     0.014 C 
HETATM    8  C6  UNK     1      34.832  -8.461  33.807  1.00  0.00     0.052 C 
HETATM    9  C7  UNK     1      31.714  -8.516  37.870  1.00  0.00     0.084 C 
HETATM   10  C8  UNK     1      31.931  -8.897  36.422  1.00  0.00     0.158 C 
HETATM   11  C9  UNK     1      35.662  -7.706  34.564  1.00  0.00     0.018 C 
HETATM   12  C13 UNK     1      37.061  -7.287  34.203  1.00  0.00     0.069 C 
HETATM   13  H8  UNK     1      35.886  -6.716  36.361  1.00  0.00     0.165 HD
ENDROOT
BRANCH   3  14
HETATM   14  C10 UNK     1      32.392  -8.210  33.373  1.00  0.00     0.029 A 
HETATM   15  C11 UNK     1      31.543  -9.113  32.555  1.00  0.00     0.194 A 
HETATM   16  O4  UNK     1      31.658 -10.331  32.600  1.00  0.00    -0.287 OA
HETATM   17  C15 UNK     1      30.552  -8.462  31.680  1.00  0.00     0.049 A 
HETATM   18  C16 UNK     1      30.467  -7.069  31.669  1.00  0.00     0.089 A 
HETATM   19  C17 UNK     1      29.705  -9.225  30.870  1.00  0.00     0.025 A 
HETATM   20  O2  UNK     1      31.271  -6.273  32.443  1.00  0.00    -0.321 OA
HETATM   21  C18 UNK     1      29.535  -6.432  30.848  1.00  0.00     0.039 A 
HETATM   22  C14 UNK     1      32.191  -6.891  33.252  1.00  0.00     0.154 A 
HETATM   23  C21 UNK     1      28.689  -7.192  30.040  1.00  0.00     0.009 A 
HETATM   24  C19 UNK     1      28.775  -8.585  30.050  1.00  0.00    -0.061 A 
HETATM   25  C22 UNK     1      27.867  -9.392  29.184  1.00  0.00     0.048 C 
ENDBRANCH   3  14
BRANCH   8  26
HETATM   26  C12 UNK     1      35.225  -8.992  32.490  1.00  0.00     0.292 C 
HETATM   27  O5  UNK     1      35.520 -10.157  32.300  1.00  0.00    -0.259 OA
BRANCH  26  28
HETATM   28  O3  UNK     1      35.190  -7.978  31.593  1.00  0.00    -0.316 OA
BRANCH  28  29
HETATM   29  C20 UNK     1      35.056  -8.381  30.227  1.00  0.00     0.205 C 
BRANCH  29  30
HETATM   30  C23 UNK     1      33.678  -7.991  29.728  1.00  0.00     0.193 C 
BRANCH  30  31
HETATM   31  O6  UNK     1      33.245  -8.946  28.767  1.00  0.00    -0.394 OA
HETATM   32  C24 UNK     1      31.995  -8.582  28.198  1.00  0.00     0.201 C 
ENDBRANCH  30  31
ENDBRANCH  29  30
ENDBRANCH  28  29
ENDBRANCH  26  28
ENDBRANCH   8  26
TORSDOF 6
ENDMDL
MODEL 7
REMARK VINA RESULT:      -7.3      2.247      6.078
REMARK  6 active torsions:
REMARK  status: ('A' for Active; 'I' for Inactive)
REMARK    1  A    between atoms: C12_19  and  O3_3 
REMARK    2  A    between atoms: C20_27  and  O3_3 
REMARK    3  A    between atoms: C23_30  and  O6_6 
REMARK    4  A    between atoms: C1_8  and  C10_17 
REMARK    5  A    between atoms: C12_19  and  C6_13 
REMARK    6  A    between atoms: C20_27  and  C23_30 
ROOT
HETATM    1  O1  UNK     1      31.345  -5.021  35.201  1.00  0.00    -0.293 OA
HETATM    2  N1  UNK     1      32.165  -8.789  37.951  1.00  0.00    -0.362 N 
HETATM    3  C1  UNK     1      30.244  -7.410  36.385  1.00  0.00     0.104 C 
HETATM    4  C2  UNK     1      31.703  -6.980  36.493  1.00  0.00     0.024 C 
HETATM    5  C3  UNK     1      32.584  -7.686  37.233  1.00  0.00     0.020 C 
HETATM    6  C4  UNK     1      34.045  -7.336  37.334  1.00  0.00     0.058 C 
HETATM    7  C5  UNK     1      34.510  -6.469  36.172  1.00  0.00     0.014 C 
HETATM    8  C6  UNK     1      29.891  -8.559  37.334  1.00  0.00     0.052 C 
HETATM    9  C7  UNK     1      33.586  -5.280  35.980  1.00  0.00     0.084 C 
HETATM   10  C8  UNK     1      32.147  -5.720  35.819  1.00  0.00     0.158 C 
HETATM   11  C9  UNK     1      30.844  -9.200  38.051  1.00  0.00     0.018 C 
HETATM   12  C13 UNK     1      30.621 -10.339  39.009  1.00  0.00     0.069 C 
HETATM   13  H8  UNK     1      32.856  -9.285  38.502  1.00  0.00     0.165 HD
ENDROOT
BRANCH   3  14
HETATM   14  C10 UNK     1      29.919  -7.790  34.965  1.00  0.00     0.029 A 
HETATM   15  C11 UNK     1      28.805  -7.087  34.279  1.00  0.00     0.194 A 
HETATM   16  O4  UNK     1      28.149  -6.214  34.833  1.00  0.00    -0.287 OA
HETATM   17  C15 UNK     1      28.529  -7.498  32.891  1.00  0.00     0.049 A 
HETATM   18  C16 UNK     1      29.309  -8.499  32.312  1.00  0.00     0.089 A 
HETATM   19  C17 UNK     1      27.501  -6.895  32.160  1.00  0.00     0.025 A 
HETATM   20  O2  UNK     1      30.330  -9.123  32.982  1.00  0.00    -0.321 OA
HETATM   21  C18 UNK     1      29.065  -8.904  30.999  1.00  0.00     0.039 A 
HETATM   22  C14 UNK     1      30.576  -8.731  34.274  1.00  0.00     0.154 A 
HETATM   23  C21 UNK     1      28.040  -8.304  30.268  1.00  0.00     0.009 A 
HETATM   24  C19 UNK     1      27.259  -7.302  30.847  1.00  0.00    -0.061 A 
HETATM   25  C22 UNK     1      26.164  -6.664  30.060  1.00  0.00     0.048 C 
ENDBRANCH   3  14
BRANCH   8  26
HETATM   26  C12 UNK     1      28.463  -8.909  37.423  1.00  0.00     0.292 C 
HETATM   27  O5  UNK     1      27.887  -9.585  36.592  1.00  0.00    -0.259 OA
BRANCH  26  28
HETATM   28  O3  UNK     1      27.957  -8.357  38.553  1.00  0.00    -0.316 OA
BRANCH  28  29
HETATM   29  C20 UNK     1      26.835  -7.493  38.355  1.00  0.00     0.205 C 
BRANCH  29  30
HETATM   30  C23 UNK     1      27.317  -6.056  38.318  1.00  0.00     0.193 C 
BRANCH  30  31
HETATM   31  O6  UNK     1      28.191  -5.831  39.417  1.00  0.00    -0.394 OA
HETATM   32  C24 UNK     1      29.279  -4.993  39.055  1.00  0.00     0.201 C 
ENDBRANCH  30  31
ENDBRANCH  29  30
ENDBRANCH  28  29
ENDBRANCH  26  28
ENDBRANCH   8  26
TORSDOF 6
ENDMDL
MODEL 8
REMARK VINA RESULT:      -7.3      1.604      2.060
REMARK  6 active torsions:
REMARK  status: ('A' for Active; 'I' for Inactive)
REMARK    1  A    between atoms: C12_19  and  O3_3 
REMARK    2  A    between atoms: C20_27  and  O3_3 
REMARK    3  A    between atoms: C23_30  and  O6_6 
REMARK    4  A    between atoms: C1_8  and  C10_17 
REMARK    5  A    between atoms: C12_19  and  C6_13 
REMARK    6  A    between atoms: C20_27  and  C23_30 
ROOT
HETATM    1  O1  UNK     1      28.865  -5.245  32.245  1.00  0.00    -0.293 OA
HETATM    2  N1  UNK     1      30.021  -9.758  31.388  1.00  0.00    -0.362 N 
HETATM    3  C1  UNK     1      30.484  -7.497  33.038  1.00  0.00     0.104 C 
HETATM    4  C2  UNK     1      29.431  -7.530  31.935  1.00  0.00     0.024 C 
HETATM    5  C3  UNK     1      29.232  -8.640  31.194  1.00  0.00     0.020 C 
HETATM    6  C4  UNK     1      28.174  -8.744  30.129  1.00  0.00     0.058 C 
HETATM    7  C5  UNK     1      27.067  -7.716  30.316  1.00  0.00     0.014 C 
HETATM    8  C6  UNK     1      31.370  -8.747  33.050  1.00  0.00     0.052 C 
HETATM    9  C7  UNK     1      27.646  -6.325  30.500  1.00  0.00     0.084 C 
HETATM   10  C8  UNK     1      28.650  -6.290  31.632  1.00  0.00     0.158 C 
HETATM   11  C9  UNK     1      31.102  -9.810  32.257  1.00  0.00     0.018 C 
HETATM   12  C13 UNK     1      31.894 -11.087  32.183  1.00  0.00     0.069 C 
HETATM   13  H8  UNK     1      29.847 -10.566  30.803  1.00  0.00     0.165 HD
ENDROOT
BRANCH   3  14
HETATM   14  C10 UNK     1      29.825  -7.313  34.379  1.00  0.00     0.029 A 
HETATM   15  C11 UNK     1      30.251  -6.172  35.228  1.00  0.00     0.194 A 
HETATM   16  O4  UNK     1      31.117  -5.383  34.871  1.00  0.00    -0.287 OA
HETATM   17  C15 UNK     1      29.575  -6.039  36.531  1.00  0.00     0.049 A 
HETATM   18  C16 UNK     1      28.597  -6.969  36.886  1.00  0.00     0.089 A 
HETATM   19  C17 UNK     1      29.906  -4.998  37.403  1.00  0.00     0.025 A 
HETATM   20  O2  UNK     1      28.233  -8.009  36.070  1.00  0.00    -0.321 OA
HETATM   21  C18 UNK     1      27.944  -6.862  38.115  1.00  0.00     0.039 A 
HETATM   22  C14 UNK     1      28.871  -8.122  34.860  1.00  0.00     0.154 A 
HETATM   23  C21 UNK     1      28.272  -5.823  38.986  1.00  0.00     0.009 A 
HETATM   24  C19 UNK     1      29.251  -4.893  38.631  1.00  0.00    -0.061 A 
HETATM   25  C22 UNK     1      29.597  -3.784  39.567  1.00  0.00     0.048 C 
ENDBRANCH   3  14
BRANCH   8  26
HETATM   26  C12 UNK     1      32.525  -8.711  33.964  1.00  0.00     0.292 C 
HETATM   27  O5  UNK     1      32.508  -9.190  35.081  1.00  0.00    -0.259 OA
BRANCH  26  28
HETATM   28  O3  UNK     1      33.545  -8.075  33.338  1.00  0.00    -0.316 OA
BRANCH  28  29
HETATM   29  C20 UNK     1      34.116  -6.984  34.066  1.00  0.00     0.205 C 
BRANCH  29  30
HETATM   30  C23 UNK     1      35.508  -7.373  34.528  1.00  0.00     0.193 C 
BRANCH  30  31
HETATM   31  O6  UNK     1      35.880  -6.549  35.626  1.00  0.00    -0.394 OA
HETATM   32  C24 UNK     1      34.785  -6.326  36.503  1.00  0.00     0.201 C 
ENDBRANCH  30  31
ENDBRANCH  29  30
ENDBRANCH  28  29
ENDBRANCH  26  28
ENDBRANCH   8  26
TORSDOF 6
ENDMDL
MODEL 9
REMARK VINA RESULT:      -7.2      2.579      6.655
REMARK  6 active torsions:
REMARK  status: ('A' for Active; 'I' for Inactive)
REMARK    1  A    between atoms: C12_19  and  O3_3 
REMARK    2  A    between atoms: C20_27  and  O3_3 
REMARK    3  A    between atoms: C23_30  and  O6_6 
REMARK    4  A    between atoms: C1_8  and  C10_17 
REMARK    5  A    between atoms: C12_19  and  C6_13 
REMARK    6  A    between atoms: C20_27  and  C23_30 
ROOT
HETATM    1  O1  UNK     1      29.458  -8.693  38.512  1.00  0.00    -0.293 OA
HETATM    2  N1  UNK     1      30.419  -4.233  37.241  1.00  0.00    -0.362 N 
HETATM    3  C1  UNK     1      31.165  -6.955  36.967  1.00  0.00     0.104 C 
HETATM    4  C2  UNK     1      29.945  -6.495  37.759  1.00  0.00     0.024 C 
HETATM    5  C3  UNK     1      29.618  -5.188  37.838  1.00  0.00     0.020 C 
HETATM    6  C4  UNK     1      28.399  -4.684  38.562  1.00  0.00     0.058 C 
HETATM    7  C5  UNK     1      27.346  -5.769  38.741  1.00  0.00     0.014 C 
HETATM    8  C6  UNK     1      32.030  -5.790  36.478  1.00  0.00     0.052 C 
HETATM    9  C7  UNK     1      27.960  -7.026  39.332  1.00  0.00     0.084 C 
HETATM   10  C8  UNK     1      29.136  -7.505  38.510  1.00  0.00     0.158 C 
HETATM   11  C9  UNK     1      31.626  -4.505  36.616  1.00  0.00     0.018 C 
HETATM   12  C13 UNK     1      32.385  -3.282  36.175  1.00  0.00     0.069 C 
HETATM   13  H8  UNK     1      30.144  -3.262  37.334  1.00  0.00     0.165 HD
ENDROOT
BRANCH   3  14
HETATM   14  C10 UNK     1      30.736  -7.809  35.803  1.00  0.00     0.029 A 
HETATM   15  C11 UNK     1      31.303  -9.175  35.679  1.00  0.00     0.194 A 
HETATM   16  O4  UNK     1      32.103  -9.624  36.490  1.00  0.00    -0.287 OA
HETATM   17  C15 UNK     1      30.851  -9.968  34.521  1.00  0.00     0.049 A 
HETATM   18  C16 UNK     1      29.938  -9.405  33.629  1.00  0.00     0.089 A 
HETATM   19  C17 UNK     1      31.326 -11.266  34.316  1.00  0.00     0.025 A 
HETATM   20  O2  UNK     1      29.439  -8.136  33.782  1.00  0.00    -0.321 OA
HETATM   21  C18 UNK     1      29.496 -10.137  32.526  1.00  0.00     0.039 A 
HETATM   22  C14 UNK     1      29.869  -7.409  34.864  1.00  0.00     0.154 A 
HETATM   23  C21 UNK     1      29.969 -11.433  32.319  1.00  0.00     0.009 A 
HETATM   24  C19 UNK     1      30.882 -11.996  33.212  1.00  0.00    -0.061 A 
HETATM   25  C22 UNK     1      31.385 -13.382  32.986  1.00  0.00     0.048 C 
ENDBRANCH   3  14
BRANCH   8  26
HETATM   26  C12 UNK     1      33.320  -6.154  35.866  1.00  0.00     0.292 C 
HETATM   27  O5  UNK     1      34.297  -6.480  36.511  1.00  0.00    -0.259 OA
BRANCH  26  28
HETATM   28  O3  UNK     1      33.196  -6.056  34.520  1.00  0.00    -0.316 OA
BRANCH  28  29
HETATM   29  C20 UNK     1      34.047  -6.926  33.769  1.00  0.00     0.205 C 
BRANCH  29  30
HETATM   30  C23 UNK     1      33.207  -7.692  32.763  1.00  0.00     0.193 C 
BRANCH  30  31
HETATM   31  O6  UNK     1      32.131  -6.867  32.334  1.00  0.00    -0.394 OA
HETATM   32  C24 UNK     1      31.703  -7.210  31.024  1.00  0.00     0.201 C 
ENDBRANCH  30  31
ENDBRANCH  29  30
ENDBRANCH  28  29
ENDBRANCH  26  28
ENDBRANCH   8  26
TORSDOF 6
ENDMDL
MODEL 10
REMARK VINA RESULT:      -7.2      2.308      6.448
REMARK  6 active torsions:
REMARK  status: ('A' for Active; 'I' for Inactive)
REMARK    1  A    between atoms: C12_19  and  O3_3 
REMARK    2  A    between atoms: C20_27  and  O3_3 
REMARK    3  A    between atoms: C23_30  and  O6_6 
REMARK    4  A    between atoms: C1_8  and  C10_17 
REMARK    5  A    between atoms: C12_19  and  C6_13 
REMARK    6  A    between atoms: C20_27  and  C23_30 
ROOT
HETATM    1  O1  UNK     1      27.651  -9.655  36.611  1.00  0.00    -0.293 OA
HETATM    2  N1  UNK     1      30.578  -6.238  38.092  1.00  0.00    -0.362 N 
HETATM    3  C1  UNK     1      30.024  -8.116  36.040  1.00  0.00     0.104 C 
HETATM    4  C2  UNK     1      29.111  -7.892  37.241  1.00  0.00     0.024 C 
HETATM    5  C3  UNK     1      29.408  -6.967  38.178  1.00  0.00     0.020 C 
HETATM    6  C4  UNK     1      28.518  -6.669  39.355  1.00  0.00     0.058 C 
HETATM    7  C5  UNK     1      27.082  -7.116  39.118  1.00  0.00     0.014 C 
HETATM    8  C6  UNK     1      31.343  -7.344  36.144  1.00  0.00     0.052 C 
HETATM    9  C7  UNK     1      27.035  -8.555  38.637  1.00  0.00     0.084 C 
HETATM   10  C8  UNK     1      27.902  -8.755  37.413  1.00  0.00     0.158 C 
HETATM   11  C9  UNK     1      31.558  -6.445  37.131  1.00  0.00     0.018 C 
HETATM   12  C13 UNK     1      32.805  -5.627  37.335  1.00  0.00     0.069 C 
HETATM   13  H8  UNK     1      30.769  -5.562  38.822  1.00  0.00     0.165 HD
ENDROOT
BRANCH   3  14
HETATM   14  C10 UNK     1      29.306  -7.752  34.768  1.00  0.00     0.029 A 
HETATM   15  C11 UNK     1      29.330  -8.716  33.639  1.00  0.00     0.194 A 
HETATM   16  O4  UNK     1      29.913  -9.790  33.713  1.00  0.00    -0.287 OA
HETATM   17  C15 UNK     1      28.613  -8.309  32.417  1.00  0.00     0.049 A 
HETATM   18  C16 UNK     1      27.967  -7.072  32.389  1.00  0.00     0.089 A 
HETATM   19  C17 UNK     1      28.577  -9.147  31.299  1.00  0.00     0.025 A 
HETATM   20  O2  UNK     1      27.970  -6.211  33.457  1.00  0.00    -0.321 OA
HETATM   21  C18 UNK     1      27.282  -6.667  31.243  1.00  0.00     0.039 A 
HETATM   22  C14 UNK     1      28.642  -6.602  34.588  1.00  0.00     0.154 A 
HETATM   23  C21 UNK     1      27.244  -7.502  30.126  1.00  0.00     0.009 A 
HETATM   24  C19 UNK     1      27.890  -8.738  30.154  1.00  0.00    -0.061 A 
HETATM   25  C22 UNK     1      27.846  -9.627  28.956  1.00  0.00     0.048 C 
ENDBRANCH   3  14
BRANCH   8  26
HETATM   26  C12 UNK     1      32.353  -7.650  35.116  1.00  0.00     0.292 C 
HETATM   27  O5  UNK     1      33.137  -8.575  35.204  1.00  0.00    -0.259 OA
BRANCH  26  28
HETATM   28  O3  UNK     1      32.234  -6.742  34.117  1.00  0.00    -0.316 OA
BRANCH  28  29
HETATM   29  C20 UNK     1      32.938  -7.068  32.915  1.00  0.00     0.205 C 
BRANCH  29  30
HETATM   30  C23 UNK     1      31.966  -7.049  31.751  1.00  0.00     0.193 C 
BRANCH  30  31
HETATM   31  O6  UNK     1      32.019  -8.303  31.082  1.00  0.00    -0.394 OA
HETATM   32  C24 UNK     1      33.282  -8.511  30.465  1.00  0.00     0.201 C 
ENDBRANCH  30  31
ENDBRANCH  29  30
ENDBRANCH  28  29
ENDBRANCH  26  28
ENDBRANCH   8  26
TORSDOF 6
ENDMDL
