MODEL 1
REMARK VINA RESULT:      -9.7      0.000      0.000
REMARK  3 active torsions:
REMARK  status: ('A' for Active; 'I' for Inactive)
REMARK    1  A    between atoms: C5_11  and  N1_5 
REMARK       I    between atoms: C6_12  and  N1_5 
REMARK       I    between atoms: C17_23  and  N2_6 
REMARK    2  A    between atoms: C2_8  and  C6_12 
REMARK    3  A    between atoms: C13_19  and  C17_23 
ROOT
HETATM    1  O2  UNK     1      21.312  -4.329  36.950  1.00  0.00    -0.267 OA
HETATM    2  N1  UNK     1      19.080  -5.062  36.798  1.00  0.00    -0.323 N 
HETATM    3  C6  UNK     1      20.117  -4.144  36.721  1.00  0.00     0.262 C 
HETATM    4  H3  UNK     1      18.141  -4.753  36.552  1.00  0.00     0.169 HD
ENDROOT
BRANCH   2   5
HETATM    5  C5  UNK     1      19.159  -6.429  37.158  1.00  0.00     0.035 A 
HETATM    6  C10 UNK     1      19.535  -6.769  38.447  1.00  0.00     0.030 A 
HETATM    7  C15 UNK     1      19.613  -8.115  38.803  1.00  0.00     0.019 A 
HETATM    8  C13 UNK     1      19.315  -9.102  37.864  1.00  0.00     0.032 A 
HETATM    9  C16 UNK     1      18.938  -8.743  36.570  1.00  0.00     0.019 A 
HETATM   10  C11 UNK     1      18.860  -7.397  36.214  1.00  0.00     0.030 A 
BRANCH   8  11
HETATM   11  C17 UNK     1      19.396 -10.506  38.234  1.00  0.00     0.249 C 
HETATM   12  O4  UNK     1      19.346 -11.407  37.377  1.00  0.00    -0.268 OA
HETATM   13  N2  UNK     1      19.550 -10.812  39.583  1.00  0.00    -0.366 N 
HETATM   14  H11 UNK     1      19.603 -10.145  40.342  1.00  0.00     0.159 HD
HETATM   15  H12 UNK     1      19.615 -11.785  39.867  1.00  0.00     0.159 HD
ENDBRANCH   8  11
ENDBRANCH   2   5
BRANCH   3  16
HETATM   16  C2  UNK     1      19.652  -2.814  36.309  1.00  0.00     0.108 A 
HETATM   17  C4  UNK     1      18.959  -2.122  37.221  1.00  0.00     0.037 A 
HETATM   18  C1  UNK     1      18.456  -0.794  36.905  1.00  0.00    -0.001 A 
HETATM   19  C3  UNK     1      18.706  -0.261  35.645  1.00  0.00     0.089 A 
HETATM   20  C7  UNK     1      17.728  -0.036  37.826  1.00  0.00     0.014 A 
HETATM   21  O1  UNK     1      19.437  -0.995  34.690  1.00  0.00    -0.274 OA
HETATM   22  C9  UNK     1      18.251   1.005  35.280  1.00  0.00     0.038 A 
HETATM   23  C8  UNK     1      19.931  -2.267  34.963  1.00  0.00     0.304 A 
HETATM   24  O3  UNK     1      20.565  -2.899  34.124  1.00  0.00    -0.259 OA
HETATM   25  C14 UNK     1      17.527   1.754  36.203  1.00  0.00     0.003 A 
HETATM   26  C12 UNK     1      17.266   1.236  37.474  1.00  0.00     0.001 A 
ENDBRANCH   3  16
TORSDOF 3
ENDMDL
MODEL 2
REMARK VINA RESULT:      -9.6      8.740     12.904
REMARK  3 active torsions:
REMARK  status: ('A' for Active; 'I' for Inactive)
REMARK    1  A    between atoms: C5_11  and  N1_5 
REMARK       I    between atoms: C6_12  and  N1_5 
REMARK       I    between atoms: C17_23  and  N2_6 
REMARK    2  A    between atoms: C2_8  and  C6_12 
REMARK    3  A    between atoms: C13_19  and  C17_23 
ROOT
HETATM    1  O2  UNK     1      17.605   3.242  32.844  1.00  0.00    -0.267 OA
HETATM    2  N1  UNK     1      18.717   4.738  31.404  1.00  0.00    -0.323 N 
HETATM    3  C6  UNK     1      18.279   3.498  31.847  1.00  0.00     0.262 C 
HETATM    4  H3  UNK     1      19.253   4.782  30.540  1.00  0.00     0.169 HD
ENDROOT
BRANCH   2   5
HETATM    5  C5  UNK     1      18.486   6.001  32.003  1.00  0.00     0.035 A 
HETATM    6  C10 UNK     1      17.346   6.711  31.667  1.00  0.00     0.030 A 
HETATM    7  C15 UNK     1      17.118   7.954  32.257  1.00  0.00     0.019 A 
HETATM    8  C13 UNK     1      18.034   8.468  33.174  1.00  0.00     0.032 A 
HETATM    9  C16 UNK     1      19.177   7.740  33.502  1.00  0.00     0.019 A 
HETATM   10  C11 UNK     1      19.405   6.497  32.912  1.00  0.00     0.030 A 
BRANCH   8  11
HETATM   11  C17 UNK     1      17.797   9.764  33.790  1.00  0.00     0.249 C 
HETATM   12  O4  UNK     1      18.604  10.702  33.659  1.00  0.00    -0.268 OA
HETATM   13  N2  UNK     1      16.623   9.930  34.520  1.00  0.00    -0.366 N 
HETATM   14  H11 UNK     1      15.914   9.225  34.673  1.00  0.00     0.159 HD
HETATM   15  H12 UNK     1      16.432  10.826  34.954  1.00  0.00     0.159 HD
ENDBRANCH   8  11
ENDBRANCH   2   5
BRANCH   3  16
HETATM   16  C2  UNK     1      18.713   2.409  30.963  1.00  0.00     0.108 A 
HETATM   17  C4  UNK     1      19.155   1.299  31.565  1.00  0.00     0.037 A 
HETATM   18  C1  UNK     1      19.607   0.166  30.772  1.00  0.00    -0.001 A 
HETATM   19  C3  UNK     1      19.573   0.258  29.385  1.00  0.00     0.089 A 
HETATM   20  C7  UNK     1      20.076  -1.012  31.358  1.00  0.00     0.014 A 
HETATM   21  O1  UNK     1      19.105   1.429  28.757  1.00  0.00    -0.274 OA
HETATM   22  C9  UNK     1      19.991  -0.792  28.569  1.00  0.00     0.038 A 
HETATM   23  C8  UNK     1      18.667   2.529  29.488  1.00  0.00     0.304 A 
HETATM   24  O3  UNK     1      18.263   3.545  28.933  1.00  0.00    -0.259 OA
HETATM   25  C14 UNK     1      20.457  -1.962  29.161  1.00  0.00     0.003 A 
HETATM   26  C12 UNK     1      20.500  -2.073  30.553  1.00  0.00     0.001 A 
ENDBRANCH   3  16
TORSDOF 3
ENDMDL
MODEL 3
REMARK VINA RESULT:      -9.2      2.301      8.328
REMARK  3 active torsions:
REMARK  status: ('A' for Active; 'I' for Inactive)
REMARK    1  A    between atoms: C5_11  and  N1_5 
REMARK       I    between atoms: C6_12  and  N1_5 
REMARK       I    between atoms: C17_23  and  N2_6 
REMARK    2  A    between atoms: C2_8  and  C6_12 
REMARK    3  A    between atoms: C13_19  and  C17_23 
ROOT
HETATM    1  O2  UNK     1      21.296  -3.948  37.237  1.00  0.00    -0.267 OA
HETATM    2  N1  UNK     1      19.021  -3.846  36.638  1.00  0.00    -0.323 N 
HETATM    3  C6  UNK     1      20.223  -4.471  36.937  1.00  0.00     0.262 C 
HETATM    4  H3  UNK     1      18.212  -4.428  36.430  1.00  0.00     0.169 HD
ENDROOT
BRANCH   2   5
HETATM    5  C5  UNK     1      18.753  -2.456  36.609  1.00  0.00     0.035 A 
HETATM    6  C10 UNK     1      18.079  -1.874  37.670  1.00  0.00     0.030 A 
HETATM    7  C15 UNK     1      17.816  -0.505  37.642  1.00  0.00     0.019 A 
HETATM    8  C13 UNK     1      18.230   0.262  36.552  1.00  0.00     0.032 A 
HETATM    9  C16 UNK     1      18.907  -0.340  35.492  1.00  0.00     0.019 A 
HETATM   10  C11 UNK     1      19.171  -1.709  35.521  1.00  0.00     0.030 A 
BRANCH   8  11
HETATM   11  C17 UNK     1      17.955   1.690  36.522  1.00  0.00     0.249 C 
HETATM   12  O4  UNK     1      16.948   2.169  37.074  1.00  0.00    -0.268 OA
HETATM   13  N2  UNK     1      18.870   2.512  35.870  1.00  0.00    -0.366 N 
HETATM   14  H11 UNK     1      19.713   2.208  35.400  1.00  0.00     0.159 HD
HETATM   15  H12 UNK     1      18.704   3.513  35.840  1.00  0.00     0.159 HD
ENDBRANCH   8  11
ENDBRANCH   2   5
BRANCH   3  16
HETATM   16  C2  UNK     1      20.120  -5.934  36.868  1.00  0.00     0.108 A 
HETATM   17  C4  UNK     1      19.970  -6.571  38.035  1.00  0.00     0.037 A 
HETATM   18  C1  UNK     1      19.859  -8.022  38.069  1.00  0.00    -0.001 A 
HETATM   19  C3  UNK     1      19.912  -8.729  36.872  1.00  0.00     0.089 A 
HETATM   20  C7  UNK     1      19.702  -8.728  39.264  1.00  0.00     0.014 A 
HETATM   21  O1  UNK     1      20.069  -8.051  35.648  1.00  0.00    -0.274 OA
HETATM   22  C9  UNK     1      19.811 -10.119  36.836  1.00  0.00     0.038 A 
HETATM   23  C8  UNK     1      20.178  -6.665  35.583  1.00  0.00     0.304 A 
HETATM   24  O3  UNK     1      20.316  -6.085  34.512  1.00  0.00    -0.259 OA
HETATM   25  C14 UNK     1      19.655 -10.815  38.031  1.00  0.00     0.003 A 
HETATM   26  C12 UNK     1      19.600 -10.123  39.243  1.00  0.00     0.001 A 
ENDBRANCH   3  16
TORSDOF 3
ENDMDL
MODEL 4
REMARK VINA RESULT:      -9.1      7.826     12.754
REMARK  3 active torsions:
REMARK  status: ('A' for Active; 'I' for Inactive)
REMARK    1  A    between atoms: C5_11  and  N1_5 
REMARK       I    between atoms: C6_12  and  N1_5 
REMARK       I    between atoms: C17_23  and  N2_6 
REMARK    2  A    between atoms: C2_8  and  C6_12 
REMARK    3  A    between atoms: C13_19  and  C17_23 
ROOT
HETATM    1  O2  UNK     1      18.219   4.475  30.355  1.00  0.00    -0.267 OA
HETATM    2  N1  UNK     1      18.367   4.545  32.704  1.00  0.00    -0.323 N 
HETATM    3  C6  UNK     1      18.400   3.948  31.452  1.00  0.00     0.262 C 
HETATM    4  H3  UNK     1      18.561   3.968  33.521  1.00  0.00     0.169 HD
ENDROOT
BRANCH   2   5
HETATM    5  C5  UNK     1      18.116   5.906  33.007  1.00  0.00     0.035 A 
HETATM    6  C10 UNK     1      19.138   6.684  33.523  1.00  0.00     0.030 A 
HETATM    7  C15 UNK     1      18.892   8.024  33.820  1.00  0.00     0.019 A 
HETATM    8  C13 UNK     1      17.625   8.565  33.598  1.00  0.00     0.032 A 
HETATM    9  C16 UNK     1      16.607   7.767  33.078  1.00  0.00     0.019 A 
HETATM   10  C11 UNK     1      16.854   6.427  32.781  1.00  0.00     0.030 A 
BRANCH   8  11
HETATM   11  C17 UNK     1      17.368   9.963  33.908  1.00  0.00     0.249 C 
HETATM   12  O4  UNK     1      18.166  10.858  33.577  1.00  0.00    -0.268 OA
HETATM   13  N2  UNK     1      16.185  10.271  34.574  1.00  0.00    -0.366 N 
HETATM   14  H11 UNK     1      15.482   9.608  34.876  1.00  0.00     0.159 HD
HETATM   15  H12 UNK     1      15.979  11.239  34.796  1.00  0.00     0.159 HD
ENDBRANCH   8  11
ENDBRANCH   2   5
BRANCH   3  16
HETATM   16  C2  UNK     1      18.694   2.512  31.531  1.00  0.00     0.108 A 
HETATM   17  C4  UNK     1      19.281   1.969  30.458  1.00  0.00     0.037 A 
HETATM   18  C1  UNK     1      19.612   0.552  30.441  1.00  0.00    -0.001 A 
HETATM   19  C3  UNK     1      19.307  -0.223  31.555  1.00  0.00     0.089 A 
HETATM   20  C7  UNK     1      20.225  -0.056  29.343  1.00  0.00     0.014 A 
HETATM   21  O1  UNK     1      18.690   0.354  32.681  1.00  0.00    -0.274 OA
HETATM   22  C9  UNK     1      19.598  -1.586  31.603  1.00  0.00     0.038 A 
HETATM   23  C8  UNK     1      18.362   1.706  32.727  1.00  0.00     0.304 A 
HETATM   24  O3  UNK     1      17.823   2.200  33.712  1.00  0.00    -0.259 OA
HETATM   25  C14 UNK     1      20.209  -2.184  30.504  1.00  0.00     0.003 A 
HETATM   26  C12 UNK     1      20.522  -1.422  29.376  1.00  0.00     0.001 A 
ENDBRANCH   3  16
TORSDOF 3
ENDMDL
MODEL 5
REMARK VINA RESULT:      -9.1     19.147     21.880
REMARK  3 active torsions:
REMARK  status: ('A' for Active; 'I' for Inactive)
REMARK    1  A    between atoms: C5_11  and  N1_5 
REMARK       I    between atoms: C6_12  and  N1_5 
REMARK       I    between atoms: C17_23  and  N2_6 
REMARK    2  A    between atoms: C2_8  and  C6_12 
REMARK    3  A    between atoms: C13_19  and  C17_23 
ROOT
HETATM    1  O2  UNK     1      17.161  -1.814  16.965  1.00  0.00    -0.267 OA
HETATM    2  N1  UNK     1      19.327  -0.903  16.823  1.00  0.00    -0.323 N 
HETATM    3  C6  UNK     1      18.246  -1.664  16.404  1.00  0.00     0.262 C 
HETATM    4  H3  UNK     1      20.152  -0.866  16.228  1.00  0.00     0.169 HD
ENDROOT
BRANCH   2   5
HETATM    5  C5  UNK     1      19.430  -0.119  17.999  1.00  0.00     0.035 A 
HETATM    6  C10 UNK     1      19.882  -0.709  19.168  1.00  0.00     0.030 A 
HETATM    7  C15 UNK     1      19.983   0.063  20.325  1.00  0.00     0.019 A 
HETATM    8  C13 UNK     1      19.630   1.412  20.297  1.00  0.00     0.032 A 
HETATM    9  C16 UNK     1      19.177   1.990  19.111  1.00  0.00     0.019 A 
HETATM   10  C11 UNK     1      19.075   1.218  17.954  1.00  0.00     0.030 A 
BRANCH   8  11
HETATM   11  C17 UNK     1      19.736   2.217  21.503  1.00  0.00     0.249 C 
HETATM   12  O4  UNK     1      18.737   2.758  22.011  1.00  0.00    -0.268 OA
HETATM   13  N2  UNK     1      20.993   2.348  22.086  1.00  0.00    -0.366 N 
HETATM   14  H11 UNK     1      21.853   1.941  21.743  1.00  0.00     0.159 HD
HETATM   15  H12 UNK     1      21.092   2.900  22.932  1.00  0.00     0.159 HD
ENDBRANCH   8  11
ENDBRANCH   2   5
BRANCH   3  16
HETATM   16  C2  UNK     1      18.506  -2.341  15.128  1.00  0.00     0.108 A 
HETATM   17  C4  UNK     1      18.208  -3.644  15.079  1.00  0.00     0.037 A 
HETATM   18  C1  UNK     1      18.431  -4.402  13.856  1.00  0.00    -0.001 A 
HETATM   19  C3  UNK     1      18.957  -3.748  12.746  1.00  0.00     0.089 A 
HETATM   20  C7  UNK     1      18.136  -5.763  13.760  1.00  0.00     0.014 A 
HETATM   21  O1  UNK     1      19.267  -2.376  12.805  1.00  0.00    -0.274 OA
HETATM   22  C9  UNK     1      19.194  -4.416  11.546  1.00  0.00     0.038 A 
HETATM   23  C8  UNK     1      19.065  -1.625  13.959  1.00  0.00     0.304 A 
HETATM   24  O3  UNK     1      19.339  -0.431  14.001  1.00  0.00    -0.259 OA
HETATM   25  C14 UNK     1      18.897  -5.773  11.458  1.00  0.00     0.003 A 
HETATM   26  C12 UNK     1      18.368  -6.446  12.562  1.00  0.00     0.001 A 
ENDBRANCH   3  16
TORSDOF 3
ENDMDL
MODEL 6
REMARK VINA RESULT:      -9.0      9.136     10.905
REMARK  3 active torsions:
REMARK  status: ('A' for Active; 'I' for Inactive)
REMARK    1  A    between atoms: C5_11  and  N1_5 
REMARK       I    between atoms: C6_12  and  N1_5 
REMARK       I    between atoms: C17_23  and  N2_6 
REMARK    2  A    between atoms: C2_8  and  C6_12 
REMARK    3  A    between atoms: C13_19  and  C17_23 
ROOT
HETATM    1  O2  UNK     1      19.670   5.448  30.936  1.00  0.00    -0.267 OA
HETATM    2  N1  UNK     1      18.032   3.876  31.561  1.00  0.00    -0.323 N 
HETATM    3  C6  UNK     1      18.672   5.107  31.570  1.00  0.00     0.262 C 
HETATM    4  H3  UNK     1      17.197   3.761  32.131  1.00  0.00     0.169 HD
ENDROOT
BRANCH   2   5
HETATM    5  C5  UNK     1      18.384   2.724  30.817  1.00  0.00     0.035 A 
HETATM    6  C10 UNK     1      19.045   1.685  31.450  1.00  0.00     0.030 A 
HETATM    7  C15 UNK     1      19.392   0.550  30.718  1.00  0.00     0.019 A 
HETATM    8  C13 UNK     1      19.073   0.472  29.362  1.00  0.00     0.032 A 
HETATM    9  C16 UNK     1      18.407   1.527  28.740  1.00  0.00     0.019 A 
HETATM   10  C11 UNK     1      18.060   2.662  29.472  1.00  0.00     0.030 A 
BRANCH   8  11
HETATM   11  C17 UNK     1      19.434  -0.712  28.597  1.00  0.00     0.249 C 
HETATM   12  O4  UNK     1      19.171  -0.805  27.384  1.00  0.00    -0.268 OA
HETATM   13  N2  UNK     1      20.101  -1.735  29.264  1.00  0.00    -0.366 N 
HETATM   14  H11 UNK     1      20.356  -1.740  30.243  1.00  0.00     0.159 HD
HETATM   15  H12 UNK     1      20.369  -2.569  28.751  1.00  0.00     0.159 HD
ENDBRANCH   8  11
ENDBRANCH   2   5
BRANCH   3  16
HETATM   16  C2  UNK     1      18.016   6.067  32.467  1.00  0.00     0.108 A 
HETATM   17  C4  UNK     1      16.857   6.579  32.039  1.00  0.00     0.037 A 
HETATM   18  C1  UNK     1      16.132   7.539  32.859  1.00  0.00    -0.001 A 
HETATM   19  C3  UNK     1      16.665   7.911  34.088  1.00  0.00     0.089 A 
HETATM   20  C7  UNK     1      14.919   8.099  32.452  1.00  0.00     0.014 A 
HETATM   21  O1  UNK     1      17.886   7.367  34.533  1.00  0.00    -0.274 OA
HETATM   22  C9  UNK     1      16.021   8.825  34.921  1.00  0.00     0.038 A 
HETATM   23  C8  UNK     1      18.602   6.448  33.772  1.00  0.00     0.304 A 
HETATM   24  O3  UNK     1      19.664   5.980  34.168  1.00  0.00    -0.259 OA
HETATM   25  C14 UNK     1      14.813   9.379  34.508  1.00  0.00     0.003 A 
HETATM   26  C12 UNK     1      14.262   9.017  33.276  1.00  0.00     0.001 A 
ENDBRANCH   3  16
TORSDOF 3
ENDMDL
MODEL 7
REMARK VINA RESULT:      -8.9      6.979      8.990
REMARK  3 active torsions:
REMARK  status: ('A' for Active; 'I' for Inactive)
REMARK    1  A    between atoms: C5_11  and  N1_5 
REMARK       I    between atoms: C6_12  and  N1_5 
REMARK       I    between atoms: C17_23  and  N2_6 
REMARK    2  A    between atoms: C2_8  and  C6_12 
REMARK    3  A    between atoms: C13_19  and  C17_23 
ROOT
HETATM    1  O2  UNK     1      26.060  -9.169  39.344  1.00  0.00    -0.267 OA
HETATM    2  N1  UNK     1      24.658  -7.522  38.413  1.00  0.00    -0.323 N 
HETATM    3  C6  UNK     1      25.854  -8.047  38.884  1.00  0.00     0.262 C 
HETATM    4  H3  UNK     1      24.659  -6.575  38.041  1.00  0.00     0.169 HD
ENDROOT
BRANCH   2   5
HETATM    5  C5  UNK     1      23.397  -8.163  38.354  1.00  0.00     0.035 A 
HETATM    6  C10 UNK     1      22.583  -8.160  39.474  1.00  0.00     0.030 A 
HETATM    7  C15 UNK     1      21.340  -8.790  39.416  1.00  0.00     0.019 A 
HETATM    8  C13 UNK     1      20.930  -9.415  38.238  1.00  0.00     0.032 A 
HETATM    9  C16 UNK     1      21.762  -9.409  37.119  1.00  0.00     0.019 A 
HETATM   10  C11 UNK     1      23.005  -8.778  37.177  1.00  0.00     0.030 A 
BRANCH   8  11
HETATM   11  C17 UNK     1      19.634 -10.072  38.176  1.00  0.00     0.249 C 
HETATM   12  O4  UNK     1      19.534 -11.312  38.207  1.00  0.00    -0.268 OA
HETATM   13  N2  UNK     1      18.502  -9.266  38.100  1.00  0.00    -0.366 N 
HETATM   14  H11 UNK     1      18.493  -8.255  38.074  1.00  0.00     0.159 HD
HETATM   15  H12 UNK     1      17.586  -9.701  38.062  1.00  0.00     0.159 HD
ENDBRANCH   8  11
ENDBRANCH   2   5
BRANCH   3  16
HETATM   16  C2  UNK     1      26.958  -7.084  38.786  1.00  0.00     0.108 A 
HETATM   17  C4  UNK     1      28.184  -7.604  38.659  1.00  0.00     0.037 A 
HETATM   18  C1  UNK     1      29.343  -6.729  38.556  1.00  0.00    -0.001 A 
HETATM   19  C3  UNK     1      29.153  -5.352  38.591  1.00  0.00     0.089 A 
HETATM   20  C7  UNK     1      30.641  -7.228  38.422  1.00  0.00     0.014 A 
HETATM   21  O1  UNK     1      27.859  -4.812  38.724  1.00  0.00    -0.274 OA
HETATM   22  C9  UNK     1      30.220  -4.461  38.497  1.00  0.00     0.038 A 
HETATM   23  C8  UNK     1      26.731  -5.622  38.826  1.00  0.00     0.304 A 
HETATM   24  O3  UNK     1      25.609  -5.143  38.942  1.00  0.00    -0.259 OA
HETATM   25  C14 UNK     1      31.511  -4.965  38.363  1.00  0.00     0.003 A 
HETATM   26  C12 UNK     1      31.722  -6.346  38.326  1.00  0.00     0.001 A 
ENDBRANCH   3  16
TORSDOF 3
ENDMDL
MODEL 8
REMARK VINA RESULT:      -8.8     19.797     21.508
REMARK  3 active torsions:
REMARK  status: ('A' for Active; 'I' for Inactive)
REMARK    1  A    between atoms: C5_11  and  N1_5 
REMARK       I    between atoms: C6_12  and  N1_5 
REMARK       I    between atoms: C17_23  and  N2_6 
REMARK    2  A    between atoms: C2_8  and  C6_12 
REMARK    3  A    between atoms: C13_19  and  C17_23 
ROOT
HETATM    1  O2  UNK     1      17.887  -3.178  15.825  1.00  0.00    -0.267 OA
HETATM    2  N1  UNK     1      20.144  -3.029  15.171  1.00  0.00    -0.323 N 
HETATM    3  C6  UNK     1      18.943  -2.562  15.686  1.00  0.00     0.262 C 
HETATM    4  H3  UNK     1      20.938  -2.394  15.144  1.00  0.00     0.169 HD
ENDROOT
BRANCH   2   5
HETATM    5  C5  UNK     1      20.430  -4.329  14.686  1.00  0.00     0.035 A 
HETATM    6  C10 UNK     1      21.019  -5.254  15.532  1.00  0.00     0.030 A 
HETATM    7  C15 UNK     1      21.299  -6.533  15.055  1.00  0.00     0.019 A 
HETATM    8  C13 UNK     1      20.987  -6.869  13.737  1.00  0.00     0.032 A 
HETATM    9  C16 UNK     1      20.394  -5.927  12.898  1.00  0.00     0.019 A 
HETATM   10  C11 UNK     1      20.113  -4.647  13.376  1.00  0.00     0.030 A 
BRANCH   8  11
HETATM   11  C17 UNK     1      21.280  -8.204  13.238  1.00  0.00     0.249 C 
HETATM   12  O4  UNK     1      22.405  -8.716  13.377  1.00  0.00    -0.268 OA
HETATM   13  N2  UNK     1      20.250  -8.902  12.614  1.00  0.00    -0.366 N 
HETATM   14  H11 UNK     1      19.309  -8.564  12.462  1.00  0.00     0.159 HD
HETATM   15  H12 UNK     1      20.427  -9.837  12.262  1.00  0.00     0.159 HD
ENDBRANCH   8  11
ENDBRANCH   2   5
BRANCH   3  16
HETATM   16  C2  UNK     1      19.025  -1.154  16.093  1.00  0.00     0.108 A 
HETATM   17  C4  UNK     1      18.856  -0.906  17.397  1.00  0.00     0.037 A 
HETATM   18  C1  UNK     1      18.919   0.460  17.897  1.00  0.00    -0.001 A 
HETATM   19  C3  UNK     1      19.157   1.495  16.998  1.00  0.00     0.089 A 
HETATM   20  C7  UNK     1      18.749   0.766  19.249  1.00  0.00     0.014 A 
HETATM   21  O1  UNK     1      19.334   1.226  15.627  1.00  0.00    -0.274 OA
HETATM   22  C9  UNK     1      19.229   2.824  17.412  1.00  0.00     0.038 A 
HETATM   23  C8  UNK     1      19.279  -0.069  15.120  1.00  0.00     0.304 A 
HETATM   24  O3  UNK     1      19.434  -0.293  13.924  1.00  0.00    -0.259 OA
HETATM   25  C14 UNK     1      19.058   3.120  18.762  1.00  0.00     0.003 A 
HETATM   26  C12 UNK     1      18.819   2.094  19.679  1.00  0.00     0.001 A 
ENDBRANCH   3  16
TORSDOF 3
ENDMDL
MODEL 9
REMARK VINA RESULT:      -8.6     19.845     21.485
REMARK  3 active torsions:
REMARK  status: ('A' for Active; 'I' for Inactive)
REMARK    1  A    between atoms: C5_11  and  N1_5 
REMARK       I    between atoms: C6_12  and  N1_5 
REMARK       I    between atoms: C17_23  and  N2_6 
REMARK    2  A    between atoms: C2_8  and  C6_12 
REMARK    3  A    between atoms: C13_19  and  C17_23 
ROOT
HETATM    1  O2  UNK     1      20.435  -3.406  15.884  1.00  0.00    -0.267 OA
HETATM    2  N1  UNK     1      18.197  -3.268  15.165  1.00  0.00    -0.323 N 
HETATM    3  C6  UNK     1      19.384  -2.792  15.702  1.00  0.00     0.262 C 
HETATM    4  H3  UNK     1      17.419  -2.620  15.060  1.00  0.00     0.169 HD
ENDROOT
BRANCH   2   5
HETATM    5  C5  UNK     1      17.922  -4.578  14.700  1.00  0.00     0.035 A 
HETATM    6  C10 UNK     1      17.153  -5.425  15.479  1.00  0.00     0.030 A 
HETATM    7  C15 UNK     1      16.882  -6.714  15.022  1.00  0.00     0.019 A 
HETATM    8  C13 UNK     1      17.385  -7.137  13.792  1.00  0.00     0.032 A 
HETATM    9  C16 UNK     1      18.158  -6.271  13.019  1.00  0.00     0.019 A 
HETATM   10  C11 UNK     1      18.429  -4.982  13.476  1.00  0.00     0.030 A 
BRANCH   8  11
HETATM   11  C17 UNK     1      17.103  -8.481  13.314  1.00  0.00     0.249 C 
HETATM   12  O4  UNK     1      17.986  -9.180  12.784  1.00  0.00    -0.268 OA
HETATM   13  N2  UNK     1      15.811  -8.971  13.484  1.00  0.00    -0.366 N 
HETATM   14  H11 UNK     1      15.037  -8.474  13.905  1.00  0.00     0.159 HD
HETATM   15  H12 UNK     1      15.590  -9.909  13.164  1.00  0.00     0.159 HD
ENDBRANCH   8  11
ENDBRANCH   2   5
BRANCH   3  16
HETATM   16  C2  UNK     1      19.296  -1.374  16.072  1.00  0.00     0.108 A 
HETATM   17  C4  UNK     1      19.154  -1.111  17.376  1.00  0.00     0.037 A 
HETATM   18  C1  UNK     1      19.057   0.265  17.841  1.00  0.00    -0.001 A 
HETATM   19  C3  UNK     1      19.113   1.295  16.908  1.00  0.00     0.089 A 
HETATM   20  C7  UNK     1      18.908   0.585  19.192  1.00  0.00     0.014 A 
HETATM   21  O1  UNK     1      19.263   1.011  15.537  1.00  0.00    -0.274 OA
HETATM   22  C9  UNK     1      19.026   2.633  17.288  1.00  0.00     0.038 A 
HETATM   23  C8  UNK     1      19.359  -0.294  15.063  1.00  0.00     0.304 A 
HETATM   24  O3  UNK     1      19.488  -0.530  13.867  1.00  0.00    -0.259 OA
HETATM   25  C14 UNK     1      18.878   2.944  18.637  1.00  0.00     0.003 A 
HETATM   26  C12 UNK     1      18.819   1.923  19.588  1.00  0.00     0.001 A 
ENDBRANCH   3  16
TORSDOF 3
ENDMDL
MODEL 10
REMARK VINA RESULT:      -8.6     19.786     22.507
REMARK  3 active torsions:
REMARK  status: ('A' for Active; 'I' for Inactive)
REMARK    1  A    between atoms: C5_11  and  N1_5 
REMARK       I    between atoms: C6_12  and  N1_5 
REMARK       I    between atoms: C17_23  and  N2_6 
REMARK    2  A    between atoms: C2_8  and  C6_12 
REMARK    3  A    between atoms: C13_19  and  C17_23 
ROOT
HETATM    1  O2  UNK     1      19.324   0.957  14.902  1.00  0.00    -0.267 OA
HETATM    2  N1  UNK     1      19.250  -0.725  16.548  1.00  0.00    -0.323 N 
HETATM    3  C6  UNK     1      19.251  -0.219  15.256  1.00  0.00     0.262 C 
HETATM    4  H3  UNK     1      19.205  -1.734  16.673  1.00  0.00     0.169 HD
ENDROOT
BRANCH   2   5
HETATM    5  C5  UNK     1      19.334   0.001  17.762  1.00  0.00     0.035 A 
HETATM    6  C10 UNK     1      19.005   1.347  17.769  1.00  0.00     0.030 A 
HETATM    7  C15 UNK     1      19.088   2.062  18.964  1.00  0.00     0.019 A 
HETATM    8  C13 UNK     1      19.499   1.421  20.133  1.00  0.00     0.032 A 
HETATM    9  C16 UNK     1      19.826   0.066  20.107  1.00  0.00     0.019 A 
HETATM   10  C11 UNK     1      19.744  -0.650  18.913  1.00  0.00     0.030 A 
BRANCH   8  11
HETATM   11  C17 UNK     1      19.585   2.166  21.379  1.00  0.00     0.249 C 
HETATM   12  O4  UNK     1      18.591   2.739  21.861  1.00  0.00    -0.268 OA
HETATM   13  N2  UNK     1      20.815   2.203  22.028  1.00  0.00    -0.366 N 
HETATM   14  H11 UNK     1      21.669   1.765  21.709  1.00  0.00     0.159 HD
HETATM   15  H12 UNK     1      20.900   2.712  22.902  1.00  0.00     0.159 HD
ENDBRANCH   8  11
ENDBRANCH   2   5
BRANCH   3  16
HETATM   16  C2  UNK     1      19.151  -1.279  14.246  1.00  0.00     0.108 A 
HETATM   17  C4  UNK     1      19.969  -1.170  13.193  1.00  0.00     0.037 A 
HETATM   18  C1  UNK     1      19.943  -2.173  12.138  1.00  0.00    -0.001 A 
HETATM   19  C3  UNK     1      19.056  -3.239  12.245  1.00  0.00     0.089 A 
HETATM   20  C7  UNK     1      20.778  -2.100  11.021  1.00  0.00     0.014 A 
HETATM   21  O1  UNK     1      18.198  -3.348  13.357  1.00  0.00    -0.274 OA
HETATM   22  C9  UNK     1      18.981  -4.232  11.270  1.00  0.00     0.038 A 
HETATM   23  C8  UNK     1      18.200  -2.405  14.381  1.00  0.00     0.304 A 
HETATM   24  O3  UNK     1      17.449  -2.508  15.344  1.00  0.00    -0.259 OA
HETATM   25  C14 UNK     1      19.818  -4.152  10.159  1.00  0.00     0.003 A 
HETATM   26  C12 UNK     1      20.715  -3.088  10.035  1.00  0.00     0.001 A 
ENDBRANCH   3  16
TORSDOF 3
ENDMDL
