MODEL 1
REMARK VINA RESULT:      -8.7      0.000      0.000
REMARK  3 active torsions:
REMARK  status: ('A' for Active; 'I' for Inactive)
REMARK    1  A    between atoms: C13_16  and  O2_2 
REMARK    2  A    between atoms: C1_4  and  C2_5 
REMARK    3  A    between atoms: C3_6  and  C4_7 
ROOT
HETATM    1  O1  UNK     1      16.880   7.449  32.234  1.00  0.00    -0.306 OA
HETATM    2  O3  UNK     1      19.643   9.365  34.536  1.00  0.00    -0.284 OA
HETATM    3  C4  UNK     1      18.150   6.928  32.426  1.00  0.00     0.123 A 
HETATM    4  C9  UNK     1      17.456   9.332  33.653  1.00  0.00     0.051 A 
HETATM    5  C12 UNK     1      16.558   8.630  32.852  1.00  0.00     0.090 A 
HETATM    6  C13 UNK     1      19.110   7.509  33.165  1.00  0.00     0.152 A 
HETATM    7  C14 UNK     1      18.810   8.790  33.848  1.00  0.00     0.220 A 
HETATM    8  C15 UNK     1      17.073  10.531  34.259  1.00  0.00     0.025 A 
HETATM    9  C16 UNK     1      15.782  11.023  34.056  1.00  0.00    -0.061 A 
HETATM   10  C17 UNK     1      15.269   9.123  32.650  1.00  0.00     0.039 A 
HETATM   11  C18 UNK     1      14.882  10.321  33.253  1.00  0.00     0.009 A 
HETATM   12  C19 UNK     1      15.365  12.302  34.699  1.00  0.00     0.048 C 
ENDROOT
BRANCH   3  13
HETATM   13  C3  UNK     1      18.364   5.658  31.707  1.00  0.00     0.001 A 
HETATM   14  C10 UNK     1      18.901   5.666  30.420  1.00  0.00     0.015 A 
HETATM   15  C5  UNK     1      19.102   4.465  29.741  1.00  0.00     0.008 A 
HETATM   16  C2  UNK     1      18.766   3.255  30.348  1.00  0.00    -0.055 A 
HETATM   17  C6  UNK     1      18.229   3.247  31.635  1.00  0.00     0.008 A 
HETATM   18  C11 UNK     1      18.028   4.448  32.315  1.00  0.00     0.015 A 
BRANCH  16  19
HETATM   19  C1  UNK     1      18.982   1.971  29.621  1.00  0.00     0.010 C 
HETATM   20  C7  UNK     1      17.849   1.663  28.622  1.00  0.00     0.015 C 
HETATM   21  C8  UNK     1      19.174   0.778  30.575  1.00  0.00     0.015 C 
ENDBRANCH  16  19
ENDBRANCH   3  13
BRANCH   6  22
HETATM   22  O2  UNK     1      20.374   6.979  33.309  1.00  0.00    -0.355 OA
HETATM   23  H18 UNK     1      20.988   7.418  32.697  1.00  0.00     0.218 HD
ENDBRANCH   6  22
TORSDOF 3
ENDMDL
MODEL 2
REMARK VINA RESULT:      -8.7      0.040      1.031
REMARK  3 active torsions:
REMARK  status: ('A' for Active; 'I' for Inactive)
REMARK    1  A    between atoms: C13_16  and  O2_2 
REMARK    2  A    between atoms: C1_4  and  C2_5 
REMARK    3  A    between atoms: C3_6  and  C4_7 
ROOT
HETATM    1  O1  UNK     1      16.874   7.486  32.247  1.00  0.00    -0.306 OA
HETATM    2  O3  UNK     1      19.636   9.402  34.549  1.00  0.00    -0.284 OA
HETATM    3  C4  UNK     1      18.143   6.964  32.439  1.00  0.00     0.123 A 
HETATM    4  C9  UNK     1      17.450   9.368  33.666  1.00  0.00     0.051 A 
HETATM    5  C12 UNK     1      16.552   8.666  32.865  1.00  0.00     0.090 A 
HETATM    6  C13 UNK     1      19.103   7.546  33.178  1.00  0.00     0.152 A 
HETATM    7  C14 UNK     1      18.803   8.827  33.861  1.00  0.00     0.220 A 
HETATM    8  C15 UNK     1      17.066  10.568  34.271  1.00  0.00     0.025 A 
HETATM    9  C16 UNK     1      15.775  11.059  34.068  1.00  0.00    -0.061 A 
HETATM   10  C17 UNK     1      15.262   9.160  32.663  1.00  0.00     0.039 A 
HETATM   11  C18 UNK     1      14.876  10.357  33.266  1.00  0.00     0.009 A 
HETATM   12  C19 UNK     1      15.358  12.339  34.710  1.00  0.00     0.048 C 
ENDROOT
BRANCH   3  13
HETATM   13  C3  UNK     1      18.357   5.694  31.721  1.00  0.00     0.001 A 
HETATM   14  C10 UNK     1      18.026   4.484  32.330  1.00  0.00     0.015 A 
HETATM   15  C5  UNK     1      18.231   3.283  31.652  1.00  0.00     0.008 A 
HETATM   16  C2  UNK     1      18.764   3.291  30.363  1.00  0.00    -0.055 A 
HETATM   17  C6  UNK     1      19.095   4.501  29.753  1.00  0.00     0.008 A 
HETATM   18  C11 UNK     1      18.890   5.703  30.432  1.00  0.00     0.015 A 
BRANCH  16  19
HETATM   19  C1  UNK     1      18.981   2.006  29.638  1.00  0.00     0.010 C 
HETATM   20  C7  UNK     1      17.838   1.684  28.656  1.00  0.00     0.015 C 
HETATM   21  C8  UNK     1      19.196   0.818  30.594  1.00  0.00     0.015 C 
ENDBRANCH  16  19
ENDBRANCH   3  13
BRANCH   6  22
HETATM   22  O2  UNK     1      20.367   7.015  33.322  1.00  0.00    -0.355 OA
HETATM   23  H18 UNK     1      21.029   7.646  32.995  1.00  0.00     0.218 HD
ENDBRANCH   6  22
TORSDOF 3
ENDMDL
MODEL 3
REMARK VINA RESULT:      -8.2      8.366     12.138
REMARK  3 active torsions:
REMARK  status: ('A' for Active; 'I' for Inactive)
REMARK    1  A    between atoms: C13_16  and  O2_2 
REMARK    2  A    between atoms: C1_4  and  C2_5 
REMARK    3  A    between atoms: C3_6  and  C4_7 
ROOT
HETATM    1  O1  UNK     1      20.399  -3.468  34.699  1.00  0.00    -0.306 OA
HETATM    2  O3  UNK     1      17.862  -0.417  35.624  1.00  0.00    -0.284 OA
HETATM    3  C4  UNK     1      19.787  -3.387  35.940  1.00  0.00     0.123 A 
HETATM    4  C9  UNK     1      19.262  -1.433  34.023  1.00  0.00     0.051 A 
HETATM    5  C12 UNK     1      20.122  -2.499  33.769  1.00  0.00     0.090 A 
HETATM    6  C13 UNK     1      18.946  -2.406  36.313  1.00  0.00     0.152 A 
HETATM    7  C14 UNK     1      18.621  -1.334  35.342  1.00  0.00     0.220 A 
HETATM    8  C15 UNK     1      19.017  -0.475  33.036  1.00  0.00     0.025 A 
HETATM    9  C16 UNK     1      19.640  -0.593  31.792  1.00  0.00    -0.061 A 
HETATM   10  C17 UNK     1      20.744  -2.615  32.525  1.00  0.00     0.039 A 
HETATM   11  C18 UNK     1      20.502  -1.660  31.537  1.00  0.00     0.009 A 
HETATM   12  C19 UNK     1      19.384   0.426  30.733  1.00  0.00     0.048 C 
ENDROOT
BRANCH   3  13
HETATM   13  C3  UNK     1      20.169  -4.488  36.843  1.00  0.00     0.001 A 
HETATM   14  C10 UNK     1      21.359  -4.415  37.567  1.00  0.00     0.015 A 
HETATM   15  C5  UNK     1      21.722  -5.457  38.419  1.00  0.00     0.008 A 
HETATM   16  C2  UNK     1      20.894  -6.573  38.549  1.00  0.00    -0.055 A 
HETATM   17  C6  UNK     1      19.704  -6.646  37.825  1.00  0.00     0.008 A 
HETATM   18  C11 UNK     1      19.341  -5.603  36.973  1.00  0.00     0.015 A 
BRANCH  16  19
HETATM   19  C1  UNK     1      21.282  -7.686  39.462  1.00  0.00     0.010 C 
HETATM   20  C7  UNK     1      22.807  -7.907  39.505  1.00  0.00     0.015 C 
HETATM   21  C8  UNK     1      20.575  -9.009  39.112  1.00  0.00     0.015 C 
ENDBRANCH  16  19
ENDBRANCH   3  13
BRANCH   6  22
HETATM   22  O2  UNK     1      18.379  -2.338  37.568  1.00  0.00    -0.355 OA
HETATM   23  H18 UNK     1      18.865  -1.701  38.116  1.00  0.00     0.218 HD
ENDBRANCH   6  22
TORSDOF 3
ENDMDL
MODEL 4
REMARK VINA RESULT:      -8.0     16.312     18.324
REMARK  3 active torsions:
REMARK  status: ('A' for Active; 'I' for Inactive)
REMARK    1  A    between atoms: C13_16  and  O2_2 
REMARK    2  A    between atoms: C1_4  and  C2_5 
REMARK    3  A    between atoms: C3_6  and  C4_7 
ROOT
HETATM    1  O1  UNK     1      25.924  -6.651  38.577  1.00  0.00    -0.306 OA
HETATM    2  O3  UNK     1      28.828  -9.495  38.289  1.00  0.00    -0.284 OA
HETATM    3  C4  UNK     1      25.612  -8.000  38.505  1.00  0.00     0.123 A 
HETATM    4  C9  UNK     1      28.284  -7.208  38.471  1.00  0.00     0.051 A 
HETATM    5  C12 UNK     1      27.244  -6.284  38.565  1.00  0.00     0.090 A 
HETATM    6  C13 UNK     1      26.517  -8.988  38.402  1.00  0.00     0.152 A 
HETATM    7  C14 UNK     1      27.958  -8.639  38.379  1.00  0.00     0.220 A 
HETATM    8  C15 UNK     1      29.612  -6.775  38.463  1.00  0.00     0.025 A 
HETATM    9  C16 UNK     1      29.893  -5.411  38.551  1.00  0.00    -0.061 A 
HETATM   10  C17 UNK     1      27.527  -4.921  38.652  1.00  0.00     0.039 A 
HETATM   11  C18 UNK     1      28.853  -4.485  38.645  1.00  0.00     0.009 A 
HETATM   12  C19 UNK     1      31.308  -4.941  38.543  1.00  0.00     0.048 C 
ENDROOT
BRANCH   3  13
HETATM   13  C3  UNK     1      24.160  -8.256  38.528  1.00  0.00     0.001 A 
HETATM   14  C10 UNK     1      23.505  -8.665  37.366  1.00  0.00     0.015 A 
HETATM   15  C5  UNK     1      22.132  -8.906  37.388  1.00  0.00     0.008 A 
HETATM   16  C2  UNK     1      21.412  -8.738  38.571  1.00  0.00    -0.055 A 
HETATM   17  C6  UNK     1      22.067  -8.328  39.732  1.00  0.00     0.008 A 
HETATM   18  C11 UNK     1      23.441  -8.088  39.711  1.00  0.00     0.015 A 
BRANCH  16  19
HETATM   19  C1  UNK     1      19.944  -8.996  38.593  1.00  0.00     0.010 C 
HETATM   20  C7  UNK     1      19.582 -10.383  38.027  1.00  0.00     0.015 C 
HETATM   21  C8  UNK     1      19.142  -7.907  37.855  1.00  0.00     0.015 C 
ENDBRANCH  16  19
ENDBRANCH   3  13
BRANCH   6  22
HETATM   22  O2  UNK     1      26.171 -10.318  38.299  1.00  0.00    -0.355 OA
HETATM   23  H18 UNK     1      26.238 -10.745  39.169  1.00  0.00     0.218 HD
ENDBRANCH   6  22
TORSDOF 3
ENDMDL
MODEL 5
REMARK VINA RESULT:      -8.0     16.303     18.314
REMARK  3 active torsions:
REMARK  status: ('A' for Active; 'I' for Inactive)
REMARK    1  A    between atoms: C13_16  and  O2_2 
REMARK    2  A    between atoms: C1_4  and  C2_5 
REMARK    3  A    between atoms: C3_6  and  C4_7 
ROOT
HETATM    1  O1  UNK     1      25.893  -6.636  38.576  1.00  0.00    -0.306 OA
HETATM    2  O3  UNK     1      28.792  -9.476  38.214  1.00  0.00    -0.284 OA
HETATM    3  C4  UNK     1      25.580  -7.983  38.492  1.00  0.00     0.123 A 
HETATM    4  C9  UNK     1      28.251  -7.192  38.431  1.00  0.00     0.051 A 
HETATM    5  C12 UNK     1      27.214  -6.269  38.550  1.00  0.00     0.090 A 
HETATM    6  C13 UNK     1      26.483  -8.971  38.365  1.00  0.00     0.152 A 
HETATM    7  C14 UNK     1      27.924  -8.621  38.327  1.00  0.00     0.220 A 
HETATM    8  C15 UNK     1      29.580  -6.760  38.410  1.00  0.00     0.025 A 
HETATM    9  C16 UNK     1      29.862  -5.397  38.510  1.00  0.00    -0.061 A 
HETATM   10  C17 UNK     1      27.499  -4.907  38.649  1.00  0.00     0.039 A 
HETATM   11  C18 UNK     1      28.824  -4.472  38.629  1.00  0.00     0.009 A 
HETATM   12  C19 UNK     1      31.278  -4.928  38.488  1.00  0.00     0.048 C 
ENDROOT
BRANCH   3  13
HETATM   13  C3  UNK     1      24.128  -8.239  38.532  1.00  0.00     0.001 A 
HETATM   14  C10 UNK     1      23.424  -8.077  39.725  1.00  0.00     0.015 A 
HETATM   15  C5  UNK     1      22.051  -8.321  39.763  1.00  0.00     0.008 A 
HETATM   16  C2  UNK     1      21.382  -8.724  38.607  1.00  0.00    -0.055 A 
HETATM   17  C6  UNK     1      22.086  -8.886  37.414  1.00  0.00     0.008 A 
HETATM   18  C11 UNK     1      23.459  -8.642  37.376  1.00  0.00     0.015 A 
BRANCH  16  19
HETATM   19  C1  UNK     1      19.914  -8.984  38.649  1.00  0.00     0.010 C 
HETATM   20  C7  UNK     1      19.531 -10.309  37.961  1.00  0.00     0.015 C 
HETATM   21  C8  UNK     1      19.093  -7.828  38.046  1.00  0.00     0.015 C 
ENDBRANCH  16  19
ENDBRANCH   3  13
BRANCH   6  22
HETATM   22  O2  UNK     1      26.135 -10.299  38.251  1.00  0.00    -0.355 OA
HETATM   23  H18 UNK     1      26.935 -10.847  38.204  1.00  0.00     0.218 HD
ENDBRANCH   6  22
TORSDOF 3
ENDMDL
MODEL 6
REMARK VINA RESULT:      -7.8     16.531     18.573
REMARK  3 active torsions:
REMARK  status: ('A' for Active; 'I' for Inactive)
REMARK    1  A    between atoms: C13_16  and  O2_2 
REMARK    2  A    between atoms: C1_4  and  C2_5 
REMARK    3  A    between atoms: C3_6  and  C4_7 
ROOT
HETATM    1  O1  UNK     1      26.206  -8.673  38.450  1.00  0.00    -0.306 OA
HETATM    2  O3  UNK     1      27.431  -4.807  38.846  1.00  0.00    -0.284 OA
HETATM    3  C4  UNK     1      25.298  -7.638  38.602  1.00  0.00     0.123 A 
HETATM    4  C9  UNK     1      28.025  -7.069  38.546  1.00  0.00     0.051 A 
HETATM    5  C12 UNK     1      27.543  -8.370  38.419  1.00  0.00     0.090 A 
HETATM    6  C13 UNK     1      25.632  -6.343  38.745  1.00  0.00     0.152 A 
HETATM    7  C14 UNK     1      27.066  -5.968  38.723  1.00  0.00     0.220 A 
HETATM    8  C15 UNK     1      29.399  -6.819  38.507  1.00  0.00     0.025 A 
HETATM    9  C16 UNK     1      30.288  -7.883  38.339  1.00  0.00    -0.061 A 
HETATM   10  C17 UNK     1      28.433  -9.431  38.251  1.00  0.00     0.039 A 
HETATM   11  C18 UNK     1      29.806  -9.186  38.212  1.00  0.00     0.009 A 
HETATM   12  C19 UNK     1      31.756  -7.624  38.296  1.00  0.00     0.048 C 
ENDROOT
BRANCH   3  13
HETATM   13  C3  UNK     1      23.898  -8.100  38.619  1.00  0.00     0.001 A 
HETATM   14  C10 UNK     1      23.172  -8.086  39.810  1.00  0.00     0.015 A 
HETATM   15  C5  UNK     1      21.848  -8.526  39.825  1.00  0.00     0.008 A 
HETATM   16  C2  UNK     1      21.249  -8.977  38.649  1.00  0.00    -0.055 A 
HETATM   17  C6  UNK     1      21.975  -8.991  37.458  1.00  0.00     0.008 A 
HETATM   18  C11 UNK     1      23.299  -8.552  37.443  1.00  0.00     0.015 A 
BRANCH  16  19
HETATM   19  C1  UNK     1      19.834  -9.446  38.667  1.00  0.00     0.010 C 
HETATM   20  C7  UNK     1      19.659 -10.815  37.981  1.00  0.00     0.015 C 
HETATM   21  C8  UNK     1      18.866  -8.423  38.042  1.00  0.00     0.015 C 
ENDBRANCH  16  19
ENDBRANCH   3  13
BRANCH   6  22
HETATM   22  O2  UNK     1      24.703  -5.342  38.927  1.00  0.00    -0.355 OA
HETATM   23  H18 UNK     1      25.074  -4.646  39.494  1.00  0.00     0.218 HD
ENDBRANCH   6  22
TORSDOF 3
ENDMDL
MODEL 7
REMARK VINA RESULT:      -7.7      7.601     11.917
REMARK  3 active torsions:
REMARK  status: ('A' for Active; 'I' for Inactive)
REMARK    1  A    between atoms: C13_16  and  O2_2 
REMARK    2  A    between atoms: C1_4  and  C2_5 
REMARK    3  A    between atoms: C3_6  and  C4_7 
ROOT
HETATM    1  O1  UNK     1      20.122  -4.259  34.410  1.00  0.00    -0.306 OA
HETATM    2  O3  UNK     1      20.024  -2.668  38.160  1.00  0.00    -0.284 OA
HETATM    3  C4  UNK     1      20.081  -2.889  34.614  1.00  0.00     0.123 A 
HETATM    4  C9  UNK     1      20.115  -4.601  36.813  1.00  0.00     0.051 A 
HETATM    5  C12 UNK     1      20.145  -5.083  35.506  1.00  0.00     0.090 A 
HETATM    6  C13 UNK     1      20.041  -2.298  35.821  1.00  0.00     0.152 A 
HETATM    7  C14 UNK     1      20.057  -3.149  37.035  1.00  0.00     0.220 A 
HETATM    8  C15 UNK     1      20.140  -5.488  37.892  1.00  0.00     0.025 A 
HETATM    9  C16 UNK     1      20.195  -6.862  37.653  1.00  0.00    -0.061 A 
HETATM   10  C17 UNK     1      20.198  -6.457  35.269  1.00  0.00     0.039 A 
HETATM   11  C18 UNK     1      20.223  -7.346  36.344  1.00  0.00     0.009 A 
HETATM   12  C19 UNK     1      20.221  -7.816  38.799  1.00  0.00     0.048 C 
ENDROOT
BRANCH   3  13
HETATM   13  C3  UNK     1      20.062  -2.121  33.356  1.00  0.00     0.001 A 
HETATM   14  C10 UNK     1      21.056  -2.325  32.399  1.00  0.00     0.015 A 
HETATM   15  C5  UNK     1      21.039  -1.597  31.209  1.00  0.00     0.008 A 
HETATM   16  C2  UNK     1      20.026  -0.667  30.975  1.00  0.00    -0.055 A 
HETATM   17  C6  UNK     1      19.032  -0.463  31.932  1.00  0.00     0.008 A 
HETATM   18  C11 UNK     1      19.049  -1.191  33.121  1.00  0.00     0.015 A 
BRANCH  16  19
HETATM   19  C1  UNK     1      20.008   0.110  29.702  1.00  0.00     0.010 C 
HETATM   20  C7  UNK     1      18.961   1.242  29.718  1.00  0.00     0.015 C 
HETATM   21  C8  UNK     1      19.789  -0.785  28.468  1.00  0.00     0.015 C 
ENDBRANCH  16  19
ENDBRANCH   3  13
BRANCH   6  22
HETATM   22  O2  UNK     1      19.968  -0.932  35.988  1.00  0.00    -0.355 OA
HETATM   23  H18 UNK     1      20.831  -0.529  35.797  1.00  0.00     0.218 HD
ENDBRANCH   6  22
TORSDOF 3
ENDMDL
MODEL 8
REMARK VINA RESULT:      -7.7     22.163     24.367
REMARK  3 active torsions:
REMARK  status: ('A' for Active; 'I' for Inactive)
REMARK    1  A    between atoms: C13_16  and  O2_2 
REMARK    2  A    between atoms: C1_4  and  C2_5 
REMARK    3  A    between atoms: C3_6  and  C4_7 
ROOT
HETATM    1  O1  UNK     1      14.669   9.489   8.319  1.00  0.00    -0.306 OA
HETATM    2  O3  UNK     1      16.872   7.872  11.341  1.00  0.00    -0.284 OA
HETATM    3  C4  UNK     1      14.281   8.319   8.951  1.00  0.00     0.123 A 
HETATM    4  C9  UNK     1      16.610   9.611   9.771  1.00  0.00     0.051 A 
HETATM    5  C12 UNK     1      15.815  10.112   8.742  1.00  0.00     0.090 A 
HETATM    6  C13 UNK     1      14.962   7.728   9.949  1.00  0.00     0.152 A 
HETATM    7  C14 UNK     1      16.211   8.362  10.436  1.00  0.00     0.220 A 
HETATM    8  C15 UNK     1      17.768  10.289  10.160  1.00  0.00     0.025 A 
HETATM    9  C16 UNK     1      18.124  11.472   9.512  1.00  0.00    -0.061 A 
HETATM   10  C17 UNK     1      16.173  11.294   8.094  1.00  0.00     0.039 A 
HETATM   11  C18 UNK     1      17.329  11.974   8.481  1.00  0.00     0.009 A 
HETATM   12  C19 UNK     1      19.359  12.202   9.921  1.00  0.00     0.048 C 
ENDROOT
BRANCH   3  13
HETATM   13  C3  UNK     1      13.035   7.754   8.401  1.00  0.00     0.001 A 
HETATM   14  C10 UNK     1      13.083   6.893   7.305  1.00  0.00     0.015 A 
HETATM   15  C5  UNK     1      11.904   6.361   6.784  1.00  0.00     0.008 A 
HETATM   16  C2  UNK     1      10.676   6.689   7.359  1.00  0.00    -0.055 A 
HETATM   17  C6  UNK     1      10.628   7.550   8.455  1.00  0.00     0.008 A 
HETATM   18  C11 UNK     1      11.807   8.082   8.977  1.00  0.00     0.015 A 
BRANCH  16  19
HETATM   19  C1  UNK     1       9.416   6.119   6.802  1.00  0.00     0.010 C 
HETATM   20  C7  UNK     1       9.225   6.460   5.311  1.00  0.00     0.015 C 
HETATM   21  C8  UNK     1       8.170   6.550   7.598  1.00  0.00     0.015 C 
ENDBRANCH  16  19
ENDBRANCH   3  13
BRANCH   6  22
HETATM   22  O2  UNK     1      14.564   6.545  10.534  1.00  0.00    -0.355 OA
HETATM   23  H18 UNK     1      13.616   6.581  10.739  1.00  0.00     0.218 HD
ENDBRANCH   6  22
TORSDOF 3
ENDMDL
MODEL 9
REMARK VINA RESULT:      -7.6      2.139      7.744
REMARK  3 active torsions:
REMARK  status: ('A' for Active; 'I' for Inactive)
REMARK    1  A    between atoms: C13_16  and  O2_2 
REMARK    2  A    between atoms: C1_4  and  C2_5 
REMARK    3  A    between atoms: C3_6  and  C4_7 
ROOT
HETATM    1  O1  UNK     1      18.106   4.161  33.522  1.00  0.00    -0.306 OA
HETATM    2  O3  UNK     1      18.972   3.072  29.693  1.00  0.00    -0.284 OA
HETATM    3  C4  UNK     1      18.210   5.101  32.509  1.00  0.00     0.123 A 
HETATM    4  C9  UNK     1      18.582   2.402  31.920  1.00  0.00     0.051 A 
HETATM    5  C12 UNK     1      18.287   2.839  33.209  1.00  0.00     0.090 A 
HETATM    6  C13 UNK     1      18.499   4.812  31.228  1.00  0.00     0.152 A 
HETATM    7  C14 UNK     1      18.709   3.396  30.843  1.00  0.00     0.220 A 
HETATM    8  C15 UNK     1      18.756   1.040  31.659  1.00  0.00     0.025 A 
HETATM    9  C16 UNK     1      18.632   0.119  32.700  1.00  0.00    -0.061 A 
HETATM   10  C17 UNK     1      18.163   1.916  34.248  1.00  0.00     0.039 A 
HETATM   11  C18 UNK     1      18.336   0.555  33.992  1.00  0.00     0.009 A 
HETATM   12  C19 UNK     1      18.816  -1.336  32.430  1.00  0.00     0.048 C 
ENDROOT
BRANCH   3  13
HETATM   13  C3  UNK     1      17.994   6.481  32.980  1.00  0.00     0.001 A 
HETATM   14  C10 UNK     1      16.724   7.052  32.904  1.00  0.00     0.015 A 
HETATM   15  C5  UNK     1      16.519   8.359  33.348  1.00  0.00     0.008 A 
HETATM   16  C2  UNK     1      17.585   9.093  33.869  1.00  0.00    -0.055 A 
HETATM   17  C6  UNK     1      18.855   8.521  33.945  1.00  0.00     0.008 A 
HETATM   18  C11 UNK     1      19.059   7.215  33.501  1.00  0.00     0.015 A 
BRANCH  16  19
HETATM   19  C1  UNK     1      17.365  10.490  34.345  1.00  0.00     0.010 C 
HETATM   20  C7  UNK     1      16.013  11.064  33.878  1.00  0.00     0.015 C 
HETATM   21  C8  UNK     1      18.505  11.439  33.932  1.00  0.00     0.015 C 
ENDBRANCH  16  19
ENDBRANCH   3  13
BRANCH   6  22
HETATM   22  O2  UNK     1      18.628   5.775  30.250  1.00  0.00    -0.355 OA
HETATM   23  H18 UNK     1      19.493   6.209  30.325  1.00  0.00     0.218 HD
ENDBRANCH   6  22
TORSDOF 3
ENDMDL
MODEL 10
REMARK VINA RESULT:      -7.5      2.442      8.069
REMARK  3 active torsions:
REMARK  status: ('A' for Active; 'I' for Inactive)
REMARK    1  A    between atoms: C13_16  and  O2_2 
REMARK    2  A    between atoms: C1_4  and  C2_5 
REMARK    3  A    between atoms: C3_6  and  C4_7 
ROOT
HETATM    1  O1  UNK     1      18.536   3.518  31.303  1.00  0.00    -0.306 OA
HETATM    2  O3  UNK     1      18.691   0.570  34.112  1.00  0.00    -0.284 OA
HETATM    3  C4  UNK     1      18.273   3.776  32.639  1.00  0.00     0.123 A 
HETATM    4  C9  UNK     1      18.941   1.188  31.850  1.00  0.00     0.051 A 
HETATM    5  C12 UNK     1      18.869   2.239  30.938  1.00  0.00     0.090 A 
HETATM    6  C13 UNK     1      18.300   2.852  33.615  1.00  0.00     0.152 A 
HETATM    7  C14 UNK     1      18.649   1.454  33.267  1.00  0.00     0.220 A 
HETATM    8  C15 UNK     1      19.285  -0.096  31.421  1.00  0.00     0.025 A 
HETATM    9  C16 UNK     1      19.557  -0.321  30.070  1.00  0.00    -0.061 A 
HETATM   10  C17 UNK     1      19.140   2.012  29.588  1.00  0.00     0.039 A 
HETATM   11  C18 UNK     1      19.484   0.731  29.156  1.00  0.00     0.009 A 
HETATM   12  C19 UNK     1      19.925  -1.689  29.604  1.00  0.00     0.048 C 
ENDROOT
BRANCH   3  13
HETATM   13  C3  UNK     1      17.930   5.187  32.894  1.00  0.00     0.001 A 
HETATM   14  C10 UNK     1      18.721   5.954  33.750  1.00  0.00     0.015 A 
HETATM   15  C5  UNK     1      18.396   7.288  33.992  1.00  0.00     0.008 A 
HETATM   16  C2  UNK     1      17.280   7.857  33.378  1.00  0.00    -0.055 A 
HETATM   17  C6  UNK     1      16.489   7.091  32.522  1.00  0.00     0.008 A 
HETATM   18  C11 UNK     1      16.815   5.756  32.280  1.00  0.00     0.015 A 
BRANCH  16  19
HETATM   19  C1  UNK     1      16.933   9.284  33.638  1.00  0.00     0.010 C 
HETATM   20  C7  UNK     1      18.176  10.149  33.924  1.00  0.00     0.015 C 
HETATM   21  C8  UNK     1      15.912   9.444  34.780  1.00  0.00     0.015 C 
ENDBRANCH  16  19
ENDBRANCH   3  13
BRANCH   6  22
HETATM   22  O2  UNK     1      18.002   3.138  34.930  1.00  0.00    -0.355 OA
HETATM   23  H18 UNK     1      17.745   2.324  35.394  1.00  0.00     0.218 HD
ENDBRANCH   6  22
TORSDOF 3
ENDMDL
