MODEL 1
REMARK VINA RESULT:      -9.7      0.000      0.000
REMARK  11 active torsions:
REMARK  status: ('A' for Active; 'I' for Inactive)
REMARK    1  A    between atoms: C5_16  and  O2_2 
REMARK    2  A    between atoms: C7_18  and  O2_2 
REMARK    3  A    between atoms: C1_12  and  O3_3 
REMARK    4  A    between atoms: C2_13  and  O4_4 
REMARK    5  A    between atoms: C3_14  and  O5_5 
REMARK    6  A    between atoms: C6_17  and  O6_6 
REMARK    7  A    between atoms: C12_23  and  O8_8 
REMARK    8  A    between atoms: C19_30  and  O10_10 
REMARK    9  A    between atoms: C21_32  and  O11_11 
REMARK   10  A    between atoms: C4_15  and  C6_17 
REMARK   11  A    between atoms: C14_25  and  C16_27 
ROOT
HETATM    1  O7  UNK     1      19.271  -0.815  33.793  1.00  0.00    -0.309 OA
HETATM    2  O9  UNK     1      17.773   0.702  37.264  1.00  0.00    -0.287 OA
HETATM    3  C7  UNK     1      20.077  -3.590  36.013  1.00  0.00     0.077 A 
HETATM    4  C8  UNK     1      19.962  -2.799  34.869  1.00  0.00     0.075 A 
HETATM    5  C9  UNK     1      19.582  -3.129  37.235  1.00  0.00     0.074 A 
HETATM    6  C10 UNK     1      19.353  -1.547  34.950  1.00  0.00     0.095 A 
HETATM    7  C11 UNK     1      18.860  -1.089  36.170  1.00  0.00     0.081 A 
HETATM    8  C12 UNK     1      18.972  -1.877  37.318  1.00  0.00     0.085 A 
HETATM    9  C13 UNK     1      18.223   0.236  36.227  1.00  0.00     0.190 A 
HETATM   10  C14 UNK     1      18.663   0.430  33.839  1.00  0.00     0.090 A 
HETATM   11  C15 UNK     1      18.158   0.982  34.954  1.00  0.00     0.094 A 
ENDROOT
BRANCH   3  12
HETATM   12  O2  UNK     1      20.672  -4.814  35.938  1.00  0.00    -0.318 OA
BRANCH  12  13
HETATM   13  C5  UNK     1      20.030  -5.882  36.628  1.00  0.00     0.298 C 
HETATM   14  C3  UNK     1      18.900  -6.423  35.752  1.00  0.00     0.205 C 
HETATM   15  C1  UNK     1      18.207  -7.585  36.461  1.00  0.00     0.183 C 
HETATM   16  C2  UNK     1      19.224  -8.644  36.895  1.00  0.00     0.180 C 
HETATM   17  C4  UNK     1      20.376  -7.993  37.673  1.00  0.00     0.179 C 
HETATM   18  O1  UNK     1      20.963  -6.926  36.919  1.00  0.00    -0.348 OA
BRANCH  14  19
HETATM   19  O5  UNK     1      19.467  -6.880  34.520  1.00  0.00    -0.388 OA
HETATM   20  H10 UNK     1      20.435  -6.886  34.614  1.00  0.00     0.210 HD
ENDBRANCH  14  19
BRANCH  15  21
HETATM   21  O3  UNK     1      17.248  -8.185  35.594  1.00  0.00    -0.390 OA
HETATM   22  H8  UNK     1      16.672  -7.476  35.262  1.00  0.00     0.210 HD
ENDBRANCH  15  21
BRANCH  16  23
HETATM   23  O4  UNK     1      18.582  -9.604  37.729  1.00  0.00    -0.390 OA
HETATM   24  H9  UNK     1      19.008  -9.578  38.602  1.00  0.00     0.210 HD
ENDBRANCH  16  23
BRANCH  17  25
HETATM   25  C6  UNK     1      21.482  -8.997  37.983  1.00  0.00     0.198 C 
BRANCH  25  26
HETATM   26  O6  UNK     1      21.159  -9.665  39.188  1.00  0.00    -0.398 OA
HETATM   27  H11 UNK     1      20.378  -9.229  39.568  1.00  0.00     0.209 HD
ENDBRANCH  25  26
ENDBRANCH  17  25
ENDBRANCH  12  13
ENDBRANCH   3  12
BRANCH   8  28
HETATM   28  O8  UNK     1      18.510  -1.473  38.534  1.00  0.00    -0.360 OA
HETATM   29  H15 UNK     1      19.177  -0.937  38.991  1.00  0.00     0.217 HD
ENDBRANCH   8  28
BRANCH  10  30
HETATM   30  C16 UNK     1      18.634   1.133  32.541  1.00  0.00     0.001 A 
HETATM   31  C17 UNK     1      19.078   0.489  31.384  1.00  0.00     0.054 A 
HETATM   32  C19 UNK     1      19.051   1.154  30.158  1.00  0.00     0.102 A 
HETATM   33  C21 UNK     1      18.580   2.465  30.086  1.00  0.00     0.099 A 
HETATM   34  C20 UNK     1      18.135   3.111  31.239  1.00  0.00     0.040 A 
HETATM   35  C18 UNK     1      18.162   2.446  32.465  1.00  0.00     0.017 A 
BRANCH  32  36
HETATM   36  O10 UNK     1      19.486   0.513  29.038  1.00  0.00    -0.353 OA
HETATM   37  C22 UNK     1      20.558  -0.415  29.198  1.00  0.00     0.210 C 
ENDBRANCH  32  36
BRANCH  33  38
HETATM   38  O11 UNK     1      18.546   3.125  28.894  1.00  0.00    -0.358 OA
HETATM   39  H19 UNK     1      18.699   4.072  29.052  1.00  0.00     0.217 HD
ENDBRANCH  33  38
ENDBRANCH  10  30
TORSDOF 11
ENDMDL
MODEL 2
REMARK VINA RESULT:      -9.5      1.381      2.836
REMARK  11 active torsions:
REMARK  status: ('A' for Active; 'I' for Inactive)
REMARK    1  A    between atoms: C5_16  and  O2_2 
REMARK    2  A    between atoms: C7_18  and  O2_2 
REMARK    3  A    between atoms: C1_12  and  O3_3 
REMARK    4  A    between atoms: C2_13  and  O4_4 
REMARK    5  A    between atoms: C3_14  and  O5_5 
REMARK    6  A    between atoms: C6_17  and  O6_6 
REMARK    7  A    between atoms: C12_23  and  O8_8 
REMARK    8  A    between atoms: C19_30  and  O10_10 
REMARK    9  A    between atoms: C21_32  and  O11_11 
REMARK   10  A    between atoms: C4_15  and  C6_17 
REMARK   11  A    between atoms: C14_25  and  C16_27 
ROOT
HETATM    1  O7  UNK     1      19.959  -2.123  33.891  1.00  0.00    -0.309 OA
HETATM    2  O9  UNK     1      17.445   0.259  36.035  1.00  0.00    -0.287 OA
HETATM    3  C7  UNK     1      20.401  -3.646  37.172  1.00  0.00     0.077 A 
HETATM    4  C8  UNK     1      20.523  -3.381  35.808  1.00  0.00     0.075 A 
HETATM    5  C9  UNK     1      19.555  -2.868  37.964  1.00  0.00     0.074 A 
HETATM    6  C10 UNK     1      19.797  -2.337  35.237  1.00  0.00     0.095 A 
HETATM    7  C11 UNK     1      18.953  -1.560  36.029  1.00  0.00     0.081 A 
HETATM    8  C12 UNK     1      18.827  -1.822  37.395  1.00  0.00     0.085 A 
HETATM    9  C13 UNK     1      18.200  -0.463  35.400  1.00  0.00     0.190 A 
HETATM   10  C14 UNK     1      19.244  -1.096  33.294  1.00  0.00     0.090 A 
HETATM   11  C15 UNK     1      18.408  -0.277  33.950  1.00  0.00     0.094 A 
ENDROOT
BRANCH   3  12
HETATM   12  O2  UNK     1      21.110  -4.667  37.733  1.00  0.00    -0.318 OA
BRANCH  12  13
HETATM   13  C5  UNK     1      20.695  -5.990  37.406  1.00  0.00     0.298 C 
HETATM   14  C3  UNK     1      20.651  -6.821  38.688  1.00  0.00     0.205 C 
HETATM   15  C1  UNK     1      20.187  -8.241  38.369  1.00  0.00     0.183 C 
HETATM   16  C2  UNK     1      18.870  -8.223  37.589  1.00  0.00     0.180 C 
HETATM   17  C4  UNK     1      18.976  -7.279  36.382  1.00  0.00     0.179 C 
HETATM   18  O1  UNK     1      19.405  -5.975  36.790  1.00  0.00    -0.348 OA
BRANCH  14  19
HETATM   19  O5  UNK     1      19.726  -6.205  39.590  1.00  0.00    -0.388 OA
HETATM   20  H10 UNK     1      20.049  -5.311  39.795  1.00  0.00     0.210 HD
ENDBRANCH  14  19
BRANCH  15  21
HETATM   21  O3  UNK     1      20.007  -8.980  39.574  1.00  0.00    -0.390 OA
HETATM   22  H8  UNK     1      19.201  -9.513  39.471  1.00  0.00     0.210 HD
ENDBRANCH  15  21
BRANCH  16  23
HETATM   23  O4  UNK     1      18.574  -9.538  37.127  1.00  0.00    -0.390 OA
HETATM   24  H9  UNK     1      19.416  -9.988  36.940  1.00  0.00     0.210 HD
ENDBRANCH  16  23
BRANCH  17  25
HETATM   25  C6  UNK     1      17.632  -7.119  35.677  1.00  0.00     0.198 C 
BRANCH  25  26
HETATM   26  O6  UNK     1      16.649  -6.805  36.645  1.00  0.00    -0.398 OA
HETATM   27  H11 UNK     1      17.104  -6.424  37.415  1.00  0.00     0.209 HD
ENDBRANCH  25  26
ENDBRANCH  17  25
ENDBRANCH  12  13
ENDBRANCH   3  12
BRANCH   8  28
HETATM   28  O8  UNK     1      18.019  -1.091  38.211  1.00  0.00    -0.360 OA
HETATM   29  H15 UNK     1      17.638  -1.652  38.905  1.00  0.00     0.217 HD
ENDBRANCH   8  28
BRANCH  10  30
HETATM   30  C16 UNK     1      19.498  -0.952  31.846  1.00  0.00     0.001 A 
HETATM   31  C17 UNK     1      19.239   0.262  31.205  1.00  0.00     0.054 A 
HETATM   32  C19 UNK     1      19.478   0.397  29.838  1.00  0.00     0.102 A 
HETATM   33  C21 UNK     1      19.976  -0.682  29.107  1.00  0.00     0.099 A 
HETATM   34  C20 UNK     1      20.237  -1.895  29.744  1.00  0.00     0.040 A 
HETATM   35  C18 UNK     1      19.998  -2.030  31.111  1.00  0.00     0.017 A 
BRANCH  32  36
HETATM   36  O10 UNK     1      19.220   1.586  29.227  1.00  0.00    -0.353 OA
HETATM   37  C22 UNK     1      17.897   1.788  28.732  1.00  0.00     0.210 C 
ENDBRANCH  32  36
BRANCH  33  38
HETATM   38  O11 UNK     1      20.216  -0.562  27.771  1.00  0.00    -0.358 OA
HETATM   39  H19 UNK     1      19.437  -0.876  27.280  1.00  0.00     0.217 HD
ENDBRANCH  33  38
ENDBRANCH  10  30
TORSDOF 11
ENDMDL
MODEL 3
REMARK VINA RESULT:      -9.4      1.359      1.733
REMARK  11 active torsions:
REMARK  status: ('A' for Active; 'I' for Inactive)
REMARK    1  A    between atoms: C5_16  and  O2_2 
REMARK    2  A    between atoms: C7_18  and  O2_2 
REMARK    3  A    between atoms: C1_12  and  O3_3 
REMARK    4  A    between atoms: C2_13  and  O4_4 
REMARK    5  A    between atoms: C3_14  and  O5_5 
REMARK    6  A    between atoms: C6_17  and  O6_6 
REMARK    7  A    between atoms: C12_23  and  O8_8 
REMARK    8  A    between atoms: C19_30  and  O10_10 
REMARK    9  A    between atoms: C21_32  and  O11_11 
REMARK   10  A    between atoms: C4_15  and  C6_17 
REMARK   11  A    between atoms: C14_25  and  C16_27 
ROOT
HETATM    1  O7  UNK     1      19.041  -0.007  33.982  1.00  0.00    -0.309 OA
HETATM    2  O9  UNK     1      16.775   0.701  37.292  1.00  0.00    -0.287 OA
HETATM    3  C7  UNK     1      19.792  -3.050  35.840  1.00  0.00     0.077 A 
HETATM    4  C8  UNK     1      19.781  -2.078  34.839  1.00  0.00     0.075 A 
HETATM    5  C9  UNK     1      19.036  -2.870  37.000  1.00  0.00     0.074 A 
HETATM    6  C10 UNK     1      19.011  -0.926  34.999  1.00  0.00     0.095 A 
HETATM    7  C11 UNK     1      18.257  -0.748  36.158  1.00  0.00     0.081 A 
HETATM    8  C12 UNK     1      18.265  -1.718  37.163  1.00  0.00     0.085 A 
HETATM    9  C13 UNK     1      17.456   0.478  36.302  1.00  0.00     0.190 A 
HETATM   10  C14 UNK     1      18.281   1.146  34.110  1.00  0.00     0.090 A 
HETATM   11  C15 UNK     1      17.521   1.434  35.179  1.00  0.00     0.094 A 
ENDROOT
BRANCH   3  12
HETATM   12  O2  UNK     1      20.543  -4.178  35.685  1.00  0.00    -0.318 OA
BRANCH  12  13
HETATM   13  C5  UNK     1      20.381  -5.195  36.669  1.00  0.00     0.298 C 
HETATM   14  C3  UNK     1      19.887  -6.468  35.981  1.00  0.00     0.205 C 
HETATM   15  C1  UNK     1      19.725  -7.584  37.012  1.00  0.00     0.183 C 
HETATM   16  C2  UNK     1      21.010  -7.768  37.823  1.00  0.00     0.180 C 
HETATM   17  C4  UNK     1      21.488  -6.421  38.383  1.00  0.00     0.179 C 
HETATM   18  O1  UNK     1      21.618  -5.451  37.338  1.00  0.00    -0.348 OA
BRANCH  14  19
HETATM   19  O5  UNK     1      20.859  -6.854  35.004  1.00  0.00    -0.388 OA
HETATM   20  H10 UNK     1      20.537  -7.653  34.553  1.00  0.00     0.210 HD
ENDBRANCH  14  19
BRANCH  15  21
HETATM   21  O3  UNK     1      19.403  -8.809  36.360  1.00  0.00    -0.390 OA
HETATM   22  H8  UNK     1      19.182  -8.599  35.437  1.00  0.00     0.210 HD
ENDBRANCH  15  21
BRANCH  16  23
HETATM   23  O4  UNK     1      20.762  -8.662  38.906  1.00  0.00    -0.390 OA
HETATM   24  H9  UNK     1      21.587  -9.141  39.095  1.00  0.00     0.210 HD
ENDBRANCH  16  23
BRANCH  17  25
HETATM   25  C6  UNK     1      22.848  -6.547  39.063  1.00  0.00     0.198 C 
BRANCH  25  26
HETATM   26  O6  UNK     1      23.644  -5.439  38.687  1.00  0.00    -0.398 OA
HETATM   27  H11 UNK     1      23.926  -4.988  39.501  1.00  0.00     0.209 HD
ENDBRANCH  25  26
ENDBRANCH  17  25
ENDBRANCH  12  13
ENDBRANCH   3  12
BRANCH   8  28
HETATM   28  O8  UNK     1      17.549  -1.589  38.314  1.00  0.00    -0.360 OA
HETATM   29  H15 UNK     1      17.079  -2.413  38.516  1.00  0.00     0.217 HD
ENDBRANCH   8  28
BRANCH  10  30
HETATM   30  C16 UNK     1      18.391   2.068  32.962  1.00  0.00     0.001 A 
HETATM   31  C17 UNK     1      18.675   1.572  31.687  1.00  0.00     0.054 A 
HETATM   32  C19 UNK     1      18.779   2.443  30.604  1.00  0.00     0.102 A 
HETATM   33  C21 UNK     1      18.601   3.814  30.791  1.00  0.00     0.099 A 
HETATM   34  C20 UNK     1      18.317   4.313  32.062  1.00  0.00     0.040 A 
HETATM   35  C18 UNK     1      18.212   3.441  33.146  1.00  0.00     0.017 A 
BRANCH  32  36
HETATM   36  O10 UNK     1      19.056   1.945  29.367  1.00  0.00    -0.353 OA
HETATM   37  C22 UNK     1      17.948   1.510  28.580  1.00  0.00     0.210 C 
ENDBRANCH  32  36
BRANCH  33  38
HETATM   38  O11 UNK     1      18.698   4.676  29.740  1.00  0.00    -0.358 OA
HETATM   39  H19 UNK     1      19.337   4.322  29.098  1.00  0.00     0.217 HD
ENDBRANCH  33  38
ENDBRANCH  10  30
TORSDOF 11
ENDMDL
MODEL 4
REMARK VINA RESULT:      -9.2      3.448     10.979
REMARK  11 active torsions:
REMARK  status: ('A' for Active; 'I' for Inactive)
REMARK    1  A    between atoms: C5_16  and  O2_2 
REMARK    2  A    between atoms: C7_18  and  O2_2 
REMARK    3  A    between atoms: C1_12  and  O3_3 
REMARK    4  A    between atoms: C2_13  and  O4_4 
REMARK    5  A    between atoms: C3_14  and  O5_5 
REMARK    6  A    between atoms: C6_17  and  O6_6 
REMARK    7  A    between atoms: C12_23  and  O8_8 
REMARK    8  A    between atoms: C19_30  and  O10_10 
REMARK    9  A    between atoms: C21_32  and  O11_11 
REMARK   10  A    between atoms: C4_15  and  C6_17 
REMARK   11  A    between atoms: C14_25  and  C16_27 
ROOT
HETATM    1  O7  UNK     1      19.091   0.238  32.903  1.00  0.00    -0.309 OA
HETATM    2  O9  UNK     1      20.048  -2.190  29.776  1.00  0.00    -0.287 OA
HETATM    3  C7  UNK     1      18.708   2.639  30.189  1.00  0.00     0.077 A 
HETATM    4  C8  UNK     1      18.736   2.077  31.466  1.00  0.00     0.075 A 
HETATM    5  C9  UNK     1      19.024   1.861  29.074  1.00  0.00     0.074 A 
HETATM    6  C10 UNK     1      19.080   0.735  31.625  1.00  0.00     0.095 A 
HETATM    7  C11 UNK     1      19.395  -0.041  30.510  1.00  0.00     0.081 A 
HETATM    8  C12 UNK     1      19.369   0.518  29.231  1.00  0.00     0.085 A 
HETATM    9  C13 UNK     1      19.756  -1.453  30.707  1.00  0.00     0.190 A 
HETATM   10  C14 UNK     1      19.422  -1.095  33.092  1.00  0.00     0.090 A 
HETATM   11  C15 UNK     1      19.751  -1.939  32.102  1.00  0.00     0.094 A 
ENDROOT
BRANCH   3  12
HETATM   12  O2  UNK     1      18.371   3.951  30.031  1.00  0.00    -0.318 OA
BRANCH  12  13
HETATM   13  C5  UNK     1      18.394   4.764  31.200  1.00  0.00     0.298 C 
HETATM   14  C3  UNK     1      19.826   5.242  31.437  1.00  0.00     0.205 C 
HETATM   15  C1  UNK     1      19.876   6.135  32.676  1.00  0.00     0.183 C 
HETATM   16  C2  UNK     1      18.848   7.264  32.575  1.00  0.00     0.180 C 
HETATM   17  C4  UNK     1      17.464   6.699  32.227  1.00  0.00     0.179 C 
HETATM   18  O1  UNK     1      17.525   5.889  31.049  1.00  0.00    -0.348 OA
BRANCH  14  19
HETATM   19  O5  UNK     1      20.246   5.987  30.290  1.00  0.00    -0.388 OA
HETATM   20  H10 UNK     1      21.109   6.390  30.487  1.00  0.00     0.210 HD
ENDBRANCH  14  19
BRANCH  15  21
HETATM   21  O3  UNK     1      21.177   6.697  32.823  1.00  0.00    -0.390 OA
HETATM   22  H8  UNK     1      21.820   5.977  32.712  1.00  0.00     0.210 HD
ENDBRANCH  15  21
BRANCH  16  23
HETATM   23  O4  UNK     1      18.772   7.949  33.823  1.00  0.00    -0.390 OA
HETATM   24  H9  UNK     1      19.319   8.750  33.761  1.00  0.00     0.210 HD
ENDBRANCH  16  23
BRANCH  17  25
HETATM   25  C6  UNK     1      16.453   7.812  31.966  1.00  0.00     0.198 C 
BRANCH  25  26
HETATM   26  O6  UNK     1      16.568   8.217  30.615  1.00  0.00    -0.398 OA
HETATM   27  H11 UNK     1      16.015   9.008  30.496  1.00  0.00     0.209 HD
ENDBRANCH  25  26
ENDBRANCH  17  25
ENDBRANCH  12  13
ENDBRANCH   3  12
BRANCH   8  28
HETATM   28  O8  UNK     1      19.672  -0.196  28.111  1.00  0.00    -0.360 OA
HETATM   29  H15 UNK     1      20.343  -0.868  28.308  1.00  0.00     0.217 HD
ENDBRANCH   8  28
BRANCH  10  30
HETATM   30  C16 UNK     1      19.408  -1.522  34.506  1.00  0.00     0.001 A 
HETATM   31  C17 UNK     1      18.526  -0.927  35.411  1.00  0.00     0.054 A 
HETATM   32  C19 UNK     1      18.514  -1.330  36.746  1.00  0.00     0.102 A 
HETATM   33  C21 UNK     1      19.384  -2.330  37.180  1.00  0.00     0.099 A 
HETATM   34  C20 UNK     1      20.265  -2.927  36.279  1.00  0.00     0.040 A 
HETATM   35  C18 UNK     1      20.277  -2.524  34.944  1.00  0.00     0.017 A 
BRANCH  32  36
HETATM   36  O10 UNK     1      17.648  -0.740  37.616  1.00  0.00    -0.353 OA
HETATM   37  C22 UNK     1      17.556   0.683  37.575  1.00  0.00     0.210 C 
ENDBRANCH  32  36
BRANCH  33  38
HETATM   38  O11 UNK     1      19.381  -2.735  38.481  1.00  0.00    -0.358 OA
HETATM   39  H19 UNK     1      20.099  -3.376  38.616  1.00  0.00     0.217 HD
ENDBRANCH  33  38
ENDBRANCH  10  30
TORSDOF 11
ENDMDL
MODEL 5
REMARK VINA RESULT:      -9.1      1.263      2.081
REMARK  11 active torsions:
REMARK  status: ('A' for Active; 'I' for Inactive)
REMARK    1  A    between atoms: C5_16  and  O2_2 
REMARK    2  A    between atoms: C7_18  and  O2_2 
REMARK    3  A    between atoms: C1_12  and  O3_3 
REMARK    4  A    between atoms: C2_13  and  O4_4 
REMARK    5  A    between atoms: C3_14  and  O5_5 
REMARK    6  A    between atoms: C6_17  and  O6_6 
REMARK    7  A    between atoms: C12_23  and  O8_8 
REMARK    8  A    between atoms: C19_30  and  O10_10 
REMARK    9  A    between atoms: C21_32  and  O11_11 
REMARK   10  A    between atoms: C4_15  and  C6_17 
REMARK   11  A    between atoms: C14_25  and  C16_27 
ROOT
HETATM    1  O7  UNK     1      19.874  -2.023  33.894  1.00  0.00    -0.309 OA
HETATM    2  O9  UNK     1      17.387   0.452  35.963  1.00  0.00    -0.287 OA
HETATM    3  C7  UNK     1      20.224  -3.511  37.202  1.00  0.00     0.077 A 
HETATM    4  C8  UNK     1      20.375  -3.268  35.836  1.00  0.00     0.075 A 
HETATM    5  C9  UNK     1      19.385  -2.700  37.969  1.00  0.00     0.074 A 
HETATM    6  C10 UNK     1      19.685  -2.213  35.239  1.00  0.00     0.095 A 
HETATM    7  C11 UNK     1      18.848  -1.405  36.006  1.00  0.00     0.081 A 
HETATM    8  C12 UNK     1      18.694  -1.644  37.373  1.00  0.00     0.085 A 
HETATM    9  C13 UNK     1      18.134  -0.298  35.351  1.00  0.00     0.190 A 
HETATM   10  C14 UNK     1      19.196  -0.987  33.270  1.00  0.00     0.090 A 
HETATM   11  C15 UNK     1      18.369  -0.138  33.902  1.00  0.00     0.094 A 
ENDROOT
BRANCH   3  12
HETATM   12  O2  UNK     1      20.898  -4.541  37.788  1.00  0.00    -0.318 OA
BRANCH  12  13
HETATM   13  C5  UNK     1      20.128  -5.682  38.155  1.00  0.00     0.298 C 
HETATM   14  C3  UNK     1      19.322  -6.141  36.940  1.00  0.00     0.205 C 
HETATM   15  C1  UNK     1      18.502  -7.379  37.300  1.00  0.00     0.183 C 
HETATM   16  C2  UNK     1      19.394  -8.466  37.908  1.00  0.00     0.180 C 
HETATM   17  C4  UNK     1      20.244  -7.887  39.047  1.00  0.00     0.179 C 
HETATM   18  O1  UNK     1      20.979  -6.740  38.603  1.00  0.00    -0.348 OA
BRANCH  14  19
HETATM   19  O5  UNK     1      20.239  -6.461  35.889  1.00  0.00    -0.388 OA
HETATM   20  H10 UNK     1      21.023  -5.894  35.985  1.00  0.00     0.210 HD
ENDBRANCH  14  19
BRANCH  15  21
HETATM   21  O3  UNK     1      17.860  -7.896  36.138  1.00  0.00    -0.390 OA
HETATM   22  H8  UNK     1      18.105  -7.325  35.391  1.00  0.00     0.210 HD
ENDBRANCH  15  21
BRANCH  16  23
HETATM   23  O4  UNK     1      18.577  -9.515  38.421  1.00  0.00    -0.390 OA
HETATM   24  H9  UNK     1      18.929 -10.360  38.092  1.00  0.00     0.210 HD
ENDBRANCH  16  23
BRANCH  17  25
HETATM   25  C6  UNK     1      21.254  -8.905  39.567  1.00  0.00     0.198 C 
BRANCH  25  26
HETATM   26  O6  UNK     1      21.297  -9.997  38.667  1.00  0.00    -0.398 OA
HETATM   27  H11 UNK     1      20.440 -10.036  38.208  1.00  0.00     0.209 HD
ENDBRANCH  25  26
ENDBRANCH  17  25
ENDBRANCH  12  13
ENDBRANCH   3  12
BRANCH   8  28
HETATM   28  O8  UNK     1      17.891  -0.881  38.166  1.00  0.00    -0.360 OA
HETATM   29  H15 UNK     1      17.765  -0.002  37.777  1.00  0.00     0.217 HD
ENDBRANCH   8  28
BRANCH  10  30
HETATM   30  C16 UNK     1      19.476  -0.870  31.825  1.00  0.00     0.001 A 
HETATM   31  C17 UNK     1      19.217   0.328  31.155  1.00  0.00     0.054 A 
HETATM   32  C19 UNK     1      19.481   0.437  29.790  1.00  0.00     0.102 A 
HETATM   33  C21 UNK     1      20.006  -0.650  29.091  1.00  0.00     0.099 A 
HETATM   34  C20 UNK     1      20.266  -1.847  29.758  1.00  0.00     0.040 A 
HETATM   35  C18 UNK     1      20.002  -1.957  31.123  1.00  0.00     0.017 A 
BRANCH  32  36
HETATM   36  O10 UNK     1      19.224   1.612  29.149  1.00  0.00    -0.353 OA
HETATM   37  C22 UNK     1      17.862   1.890  28.829  1.00  0.00     0.210 C 
ENDBRANCH  32  36
BRANCH  33  38
HETATM   38  O11 UNK     1      20.270  -0.555  27.757  1.00  0.00    -0.358 OA
HETATM   39  H19 UNK     1      19.872   0.262  27.413  1.00  0.00     0.217 HD
ENDBRANCH  33  38
ENDBRANCH  10  30
TORSDOF 11
ENDMDL
MODEL 6
REMARK VINA RESULT:      -8.9     26.560     29.303
REMARK  11 active torsions:
REMARK  status: ('A' for Active; 'I' for Inactive)
REMARK    1  A    between atoms: C5_16  and  O2_2 
REMARK    2  A    between atoms: C7_18  and  O2_2 
REMARK    3  A    between atoms: C1_12  and  O3_3 
REMARK    4  A    between atoms: C2_13  and  O4_4 
REMARK    5  A    between atoms: C3_14  and  O5_5 
REMARK    6  A    between atoms: C6_17  and  O6_6 
REMARK    7  A    between atoms: C12_23  and  O8_8 
REMARK    8  A    between atoms: C19_30  and  O10_10 
REMARK    9  A    between atoms: C21_32  and  O11_11 
REMARK   10  A    between atoms: C4_15  and  C6_17 
REMARK   11  A    between atoms: C14_25  and  C16_27 
ROOT
HETATM    1  O7  UNK     1       9.467   5.690   9.654  1.00  0.00    -0.309 OA
HETATM    2  O9  UNK     1       9.160   6.323   5.642  1.00  0.00    -0.287 OA
HETATM    3  C7  UNK     1      13.006   5.578   8.794  1.00  0.00     0.077 A 
HETATM    4  C8  UNK     1      11.819   5.547   9.528  1.00  0.00     0.075 A 
HETATM    5  C9  UNK     1      12.971   5.792   7.415  1.00  0.00     0.074 A 
HETATM    6  C10 UNK     1      10.598   5.732   8.881  1.00  0.00     0.095 A 
HETATM    7  C11 UNK     1      10.565   5.945   7.504  1.00  0.00     0.081 A 
HETATM    8  C12 UNK     1      11.750   5.977   6.765  1.00  0.00     0.085 A 
HETATM    9  C13 UNK     1       9.263   6.135   6.846  1.00  0.00     0.190 A 
HETATM   10  C14 UNK     1       8.238   5.878   9.039  1.00  0.00     0.090 A 
HETATM   11  C15 UNK     1       8.076   6.084   7.723  1.00  0.00     0.094 A 
ENDROOT
BRANCH   3  12
HETATM   12  O2  UNK     1      14.201   5.398   9.425  1.00  0.00    -0.318 OA
BRANCH  12  13
HETATM   13  C5  UNK     1      14.836   6.565   9.939  1.00  0.00     0.298 C 
HETATM   14  C3  UNK     1      16.297   6.236  10.242  1.00  0.00     0.205 C 
HETATM   15  C1  UNK     1      17.008   7.479  10.776  1.00  0.00     0.183 C 
HETATM   16  C2  UNK     1      16.817   8.666   9.828  1.00  0.00     0.180 C 
HETATM   17  C4  UNK     1      15.330   8.851   9.496  1.00  0.00     0.179 C 
HETATM   18  O1  UNK     1      14.763   7.636   8.994  1.00  0.00    -0.348 OA
BRANCH  14  19
HETATM   19  O5  UNK     1      16.921   5.810   9.027  1.00  0.00    -0.388 OA
HETATM   20  H10 UNK     1      17.881   5.934   9.117  1.00  0.00     0.210 HD
ENDBRANCH  14  19
BRANCH  15  21
HETATM   21  O3  UNK     1      18.401   7.219  10.926  1.00  0.00    -0.390 OA
HETATM   22  H8  UNK     1      18.755   7.011  10.045  1.00  0.00     0.210 HD
ENDBRANCH  15  21
BRANCH  16  23
HETATM   23  O4  UNK     1      17.308   9.851  10.449  1.00  0.00    -0.390 OA
HETATM   24  H9  UNK     1      16.545  10.410  10.675  1.00  0.00     0.210 HD
ENDBRANCH  16  23
BRANCH  17  25
HETATM   25  C6  UNK     1      15.123   9.926   8.432  1.00  0.00     0.198 C 
BRANCH  25  26
HETATM   26  O6  UNK     1      14.221  10.893   8.938  1.00  0.00    -0.398 OA
HETATM   27  H11 UNK     1      14.681  11.749   8.951  1.00  0.00     0.209 HD
ENDBRANCH  25  26
ENDBRANCH  17  25
ENDBRANCH  12  13
ENDBRANCH   3  12
BRANCH   8  28
HETATM   28  O8  UNK     1      11.770   6.178   5.418  1.00  0.00    -0.360 OA
HETATM   29  H15 UNK     1      10.909   6.501   5.109  1.00  0.00     0.217 HD
ENDBRANCH   8  28
BRANCH  10  30
HETATM   30  C16 UNK     1       7.088   5.808   9.963  1.00  0.00     0.001 A 
HETATM   31  C17 UNK     1       6.428   4.595  10.172  1.00  0.00     0.054 A 
HETATM   32  C19 UNK     1       5.341   4.530  11.044  1.00  0.00     0.102 A 
HETATM   33  C21 UNK     1       4.911   5.678  11.710  1.00  0.00     0.099 A 
HETATM   34  C20 UNK     1       5.568   6.891  11.504  1.00  0.00     0.040 A 
HETATM   35  C18 UNK     1       6.655   6.956  10.632  1.00  0.00     0.017 A 
BRANCH  32  36
HETATM   36  O10 UNK     1       4.707   3.340  11.238  1.00  0.00    -0.353 OA
HETATM   37  C22 UNK     1       5.483   2.156  11.062  1.00  0.00     0.210 C 
ENDBRANCH  32  36
BRANCH  33  38
HETATM   38  O11 UNK     1       3.852   5.628  12.565  1.00  0.00    -0.358 OA
HETATM   39  H19 UNK     1       3.486   6.523  12.670  1.00  0.00     0.217 HD
ENDBRANCH  33  38
ENDBRANCH  10  30
TORSDOF 11
ENDMDL
MODEL 7
REMARK VINA RESULT:      -8.8      3.477      6.913
REMARK  11 active torsions:
REMARK  status: ('A' for Active; 'I' for Inactive)
REMARK    1  A    between atoms: C5_16  and  O2_2 
REMARK    2  A    between atoms: C7_18  and  O2_2 
REMARK    3  A    between atoms: C1_12  and  O3_3 
REMARK    4  A    between atoms: C2_13  and  O4_4 
REMARK    5  A    between atoms: C3_14  and  O5_5 
REMARK    6  A    between atoms: C6_17  and  O6_6 
REMARK    7  A    between atoms: C12_23  and  O8_8 
REMARK    8  A    between atoms: C19_30  and  O10_10 
REMARK    9  A    between atoms: C21_32  and  O11_11 
REMARK   10  A    between atoms: C4_15  and  C6_17 
REMARK   11  A    between atoms: C14_25  and  C16_27 
ROOT
HETATM    1  O7  UNK     1      17.883   3.672  33.064  1.00  0.00    -0.309 OA
HETATM    2  O9  UNK     1      19.152   3.951  29.203  1.00  0.00    -0.287 OA
HETATM    3  C7  UNK     1      18.738   0.175  32.498  1.00  0.00     0.077 A 
HETATM    4  C8  UNK     1      18.305   1.350  33.114  1.00  0.00     0.075 A 
HETATM    5  C9  UNK     1      19.187   0.202  31.176  1.00  0.00     0.074 A 
HETATM    6  C10 UNK     1      18.322   2.551  32.406  1.00  0.00     0.095 A 
HETATM    7  C11 UNK     1      18.770   2.576  31.086  1.00  0.00     0.081 A 
HETATM    8  C12 UNK     1      19.205   1.403  30.466  1.00  0.00     0.085 A 
HETATM    9  C13 UNK     1      18.776   3.857  30.363  1.00  0.00     0.190 A 
HETATM   10  C14 UNK     1      17.895   4.883  32.388  1.00  0.00     0.090 A 
HETATM   11  C15 UNK     1      18.296   5.033  31.116  1.00  0.00     0.094 A 
ENDROOT
BRANCH   3  12
HETATM   12  O2  UNK     1      18.723  -1.001  33.188  1.00  0.00    -0.318 OA
BRANCH  12  13
HETATM   13  C5  UNK     1      18.922  -0.920  34.596  1.00  0.00     0.298 C 
HETATM   14  C3  UNK     1      17.599  -0.535  35.257  1.00  0.00     0.205 C 
HETATM   15  C1  UNK     1      17.779  -0.462  36.772  1.00  0.00     0.183 C 
HETATM   16  C2  UNK     1      18.396  -1.755  37.311  1.00  0.00     0.180 C 
HETATM   17  C4  UNK     1      19.658  -2.119  36.516  1.00  0.00     0.179 C 
HETATM   18  O1  UNK     1      19.379  -2.172  35.112  1.00  0.00    -0.348 OA
BRANCH  14  19
HETATM   19  O5  UNK     1      16.630  -1.538  34.936  1.00  0.00    -0.388 OA
HETATM   20  H10 UNK     1      17.056  -2.205  34.371  1.00  0.00     0.210 HD
ENDBRANCH  14  19
BRANCH  15  21
HETATM   21  O3  UNK     1      16.522  -0.243  37.405  1.00  0.00    -0.390 OA
HETATM   22  H8  UNK     1      16.305  -1.047  37.908  1.00  0.00     0.210 HD
ENDBRANCH  15  21
BRANCH  16  23
HETATM   23  O4  UNK     1      18.743  -1.579  38.682  1.00  0.00    -0.390 OA
HETATM   24  H9  UNK     1      19.244  -0.750  38.762  1.00  0.00     0.210 HD
ENDBRANCH  16  23
BRANCH  17  25
HETATM   25  C6  UNK     1      20.205  -3.483  36.926  1.00  0.00     0.198 C 
BRANCH  25  26
HETATM   26  O6  UNK     1      19.114  -4.345  37.194  1.00  0.00    -0.398 OA
HETATM   27  H11 UNK     1      19.341  -5.225  36.849  1.00  0.00     0.209 HD
ENDBRANCH  25  26
ENDBRANCH  17  25
ENDBRANCH  12  13
ENDBRANCH   3  12
BRANCH   8  28
HETATM   28  O8  UNK     1      19.649   1.375  29.178  1.00  0.00    -0.360 OA
HETATM   29  H15 UNK     1      20.215   0.601  29.030  1.00  0.00     0.217 HD
ENDBRANCH   8  28
BRANCH  10  30
HETATM   30  C16 UNK     1      17.398   6.021  33.187  1.00  0.00     0.001 A 
HETATM   31  C17 UNK     1      16.118   6.531  32.961  1.00  0.00     0.054 A 
HETATM   32  C19 UNK     1      15.649   7.607  33.715  1.00  0.00     0.102 A 
HETATM   33  C21 UNK     1      16.459   8.175  34.699  1.00  0.00     0.099 A 
HETATM   34  C20 UNK     1      17.738   7.667  34.927  1.00  0.00     0.040 A 
HETATM   35  C18 UNK     1      18.207   6.592  34.173  1.00  0.00     0.017 A 
BRANCH  32  36
HETATM   36  O10 UNK     1      14.398   8.094  33.483  1.00  0.00    -0.353 OA
HETATM   37  C22 UNK     1      13.625   7.441  32.477  1.00  0.00     0.210 C 
ENDBRANCH  32  36
BRANCH  33  38
HETATM   38  O11 UNK     1      16.013   9.225  35.444  1.00  0.00    -0.358 OA
HETATM   39  H19 UNK     1      15.178   8.975  35.875  1.00  0.00     0.217 HD
ENDBRANCH  33  38
ENDBRANCH  10  30
TORSDOF 11
ENDMDL
MODEL 8
REMARK VINA RESULT:      -8.8      5.659     12.792
REMARK  11 active torsions:
REMARK  status: ('A' for Active; 'I' for Inactive)
REMARK    1  A    between atoms: C5_16  and  O2_2 
REMARK    2  A    between atoms: C7_18  and  O2_2 
REMARK    3  A    between atoms: C1_12  and  O3_3 
REMARK    4  A    between atoms: C2_13  and  O4_4 
REMARK    5  A    between atoms: C3_14  and  O5_5 
REMARK    6  A    between atoms: C6_17  and  O6_6 
REMARK    7  A    between atoms: C12_23  and  O8_8 
REMARK    8  A    between atoms: C19_30  and  O10_10 
REMARK    9  A    between atoms: C21_32  and  O11_11 
REMARK   10  A    between atoms: C4_15  and  C6_17 
REMARK   11  A    between atoms: C14_25  and  C16_27 
ROOT
HETATM    1  O7  UNK     1      18.197   3.502  33.782  1.00  0.00    -0.309 OA
HETATM    2  O9  UNK     1      18.684   3.534  29.738  1.00  0.00    -0.287 OA
HETATM    3  C7  UNK     1      18.252   7.106  33.250  1.00  0.00     0.077 A 
HETATM    4  C8  UNK     1      18.180   5.861  33.875  1.00  0.00     0.075 A 
HETATM    5  C9  UNK     1      18.418   7.187  31.866  1.00  0.00     0.074 A 
HETATM    6  C10 UNK     1      18.273   4.697  33.113  1.00  0.00     0.095 A 
HETATM    7  C11 UNK     1      18.439   4.779  31.731  1.00  0.00     0.081 A 
HETATM    8  C12 UNK     1      18.511   6.024  31.102  1.00  0.00     0.085 A 
HETATM    9  C13 UNK     1      18.535   3.535  30.952  1.00  0.00     0.190 A 
HETATM   10  C14 UNK     1      18.279   2.327  33.051  1.00  0.00     0.090 A 
HETATM   11  C15 UNK     1      18.445   2.277  31.719  1.00  0.00     0.094 A 
ENDROOT
BRANCH   3  12
HETATM   12  O2  UNK     1      18.161   8.247  33.993  1.00  0.00    -0.318 OA
BRANCH  12  13
HETATM   13  C5  UNK     1      17.249   9.239  33.534  1.00  0.00     0.298 C 
HETATM   14  C3  UNK     1      15.863   8.609  33.405  1.00  0.00     0.205 C 
HETATM   15  C1  UNK     1      14.858   9.658  32.933  1.00  0.00     0.183 C 
HETATM   16  C2  UNK     1      14.902  10.897  33.831  1.00  0.00     0.180 C 
HETATM   17  C4  UNK     1      16.346  11.394  33.990  1.00  0.00     0.179 C 
HETATM   18  O1  UNK     1      17.201  10.339  34.445  1.00  0.00    -0.348 OA
BRANCH  14  19
HETATM   19  O5  UNK     1      15.474   8.115  34.690  1.00  0.00    -0.388 OA
HETATM   20  H10 UNK     1      15.493   7.143  34.662  1.00  0.00     0.210 HD
ENDBRANCH  14  19
BRANCH  15  21
HETATM   21  O3  UNK     1      13.540   9.117  32.946  1.00  0.00    -0.390 OA
HETATM   22  H8  UNK     1      13.504   8.423  32.266  1.00  0.00     0.210 HD
ENDBRANCH  15  21
BRANCH  16  23
HETATM   23  O4  UNK     1      14.114  11.932  33.249  1.00  0.00    -0.390 OA
HETATM   24  H9  UNK     1      13.440  11.517  32.685  1.00  0.00     0.210 HD
ENDBRANCH  16  23
BRANCH  17  25
HETATM   25  C6  UNK     1      16.440  12.530  35.003  1.00  0.00     0.198 C 
BRANCH  25  26
HETATM   26  O6  UNK     1      15.579  12.239  36.089  1.00  0.00    -0.398 OA
HETATM   27  H11 UNK     1      15.082  11.434  35.863  1.00  0.00     0.209 HD
ENDBRANCH  25  26
ENDBRANCH  17  25
ENDBRANCH  12  13
ENDBRANCH   3  12
BRANCH   8  28
HETATM   28  O8  UNK     1      18.675   6.158  29.756  1.00  0.00    -0.360 OA
HETATM   29  H15 UNK     1      18.562   5.302  29.313  1.00  0.00     0.217 HD
ENDBRANCH   8  28
BRANCH  10  30
HETATM   30  C16 UNK     1      18.190   1.102  33.871  1.00  0.00     0.001 A 
HETATM   31  C17 UNK     1      17.684   1.162  35.171  1.00  0.00     0.054 A 
HETATM   32  C19 UNK     1      17.601   0.005  35.945  1.00  0.00     0.102 A 
HETATM   33  C21 UNK     1      18.026  -1.217  35.421  1.00  0.00     0.099 A 
HETATM   34  C20 UNK     1      18.532  -1.280  34.123  1.00  0.00     0.040 A 
HETATM   35  C18 UNK     1      18.614  -0.123  33.349  1.00  0.00     0.017 A 
BRANCH  32  36
HETATM   36  O10 UNK     1      17.105   0.079  37.211  1.00  0.00    -0.353 OA
HETATM   37  C22 UNK     1      17.493   1.206  37.994  1.00  0.00     0.210 C 
ENDBRANCH  32  36
BRANCH  33  38
HETATM   38  O11 UNK     1      17.949  -2.355  36.166  1.00  0.00    -0.358 OA
HETATM   39  H19 UNK     1      17.686  -3.093  35.591  1.00  0.00     0.217 HD
ENDBRANCH  33  38
ENDBRANCH  10  30
TORSDOF 11
ENDMDL
MODEL 9
REMARK VINA RESULT:      -8.7     27.150     30.506
REMARK  11 active torsions:
REMARK  status: ('A' for Active; 'I' for Inactive)
REMARK    1  A    between atoms: C5_16  and  O2_2 
REMARK    2  A    between atoms: C7_18  and  O2_2 
REMARK    3  A    between atoms: C1_12  and  O3_3 
REMARK    4  A    between atoms: C2_13  and  O4_4 
REMARK    5  A    between atoms: C3_14  and  O5_5 
REMARK    6  A    between atoms: C6_17  and  O6_6 
REMARK    7  A    between atoms: C12_23  and  O8_8 
REMARK    8  A    between atoms: C19_30  and  O10_10 
REMARK    9  A    between atoms: C21_32  and  O11_11 
REMARK   10  A    between atoms: C4_15  and  C6_17 
REMARK   11  A    between atoms: C14_25  and  C16_27 
ROOT
HETATM    1  O7  UNK     1      13.254   8.352   8.599  1.00  0.00    -0.309 OA
HETATM    2  O9  UNK     1      15.324   5.181  10.101  1.00  0.00    -0.287 OA
HETATM    3  C7  UNK     1      16.408  10.029   9.321  1.00  0.00     0.077 A 
HETATM    4  C8  UNK     1      15.095   9.797   8.908  1.00  0.00     0.075 A 
HETATM    5  C9  UNK     1      17.172   8.985   9.844  1.00  0.00     0.074 A 
HETATM    6  C10 UNK     1      14.549   8.518   9.019  1.00  0.00     0.095 A 
HETATM    7  C11 UNK     1      15.314   7.477   9.542  1.00  0.00     0.081 A 
HETATM    8  C12 UNK     1      16.628   7.705   9.956  1.00  0.00     0.085 A 
HETATM    9  C13 UNK     1      14.713   6.139   9.649  1.00  0.00     0.190 A 
HETATM   10  C14 UNK     1      12.687   7.090   8.690  1.00  0.00     0.090 A 
HETATM   11  C15 UNK     1      13.318   6.012   9.181  1.00  0.00     0.094 A 
ENDROOT
BRANCH   3  12
HETATM   12  O2  UNK     1      16.944  11.278   9.213  1.00  0.00    -0.318 OA
BRANCH  12  13
HETATM   13  C5  UNK     1      17.894  11.479   8.172  1.00  0.00     0.298 C 
HETATM   14  C3  UNK     1      17.431  12.649   7.304  1.00  0.00     0.205 C 
HETATM   15  C1  UNK     1      18.445  12.900   6.189  1.00  0.00     0.183 C 
HETATM   16  C2  UNK     1      19.855  13.066   6.762  1.00  0.00     0.180 C 
HETATM   17  C4  UNK     1      20.190  11.901   7.705  1.00  0.00     0.179 C 
HETATM   18  O1  UNK     1      19.186  11.758   8.716  1.00  0.00    -0.348 OA
BRANCH  14  19
HETATM   19  O5  UNK     1      17.331  13.810   8.134  1.00  0.00    -0.388 OA
HETATM   20  H10 UNK     1      17.713  14.563   7.652  1.00  0.00     0.210 HD
ENDBRANCH  14  19
BRANCH  15  21
HETATM   21  O3  UNK     1      18.094  14.075   5.463  1.00  0.00    -0.390 OA
HETATM   22  H8  UNK     1      17.364  13.841   4.865  1.00  0.00     0.210 HD
ENDBRANCH  15  21
BRANCH  16  23
HETATM   23  O4  UNK     1      20.800  13.089   5.695  1.00  0.00    -0.390 OA
HETATM   24  H9  UNK     1      20.437  12.566   4.960  1.00  0.00     0.210 HD
ENDBRANCH  16  23
BRANCH  17  25
HETATM   25  C6  UNK     1      21.525  12.118   8.412  1.00  0.00     0.198 C 
BRANCH  25  26
HETATM   26  O6  UNK     1      22.569  11.791   7.513  1.00  0.00    -0.398 OA
HETATM   27  H11 UNK     1      23.233  12.500   7.561  1.00  0.00     0.209 HD
ENDBRANCH  25  26
ENDBRANCH  17  25
ENDBRANCH  12  13
ENDBRANCH   3  12
BRANCH   8  28
HETATM   28  O8  UNK     1      17.415   6.722  10.476  1.00  0.00    -0.360 OA
HETATM   29  H15 UNK     1      18.111   7.103  11.034  1.00  0.00     0.217 HD
ENDBRANCH   8  28
BRANCH  10  30
HETATM   30  C16 UNK     1      11.290   7.024   8.215  1.00  0.00     0.001 A 
HETATM   31  C17 UNK     1      10.254   7.520   9.011  1.00  0.00     0.054 A 
HETATM   32  C19 UNK     1       8.935   7.457   8.562  1.00  0.00     0.102 A 
HETATM   33  C21 UNK     1       8.647   6.898   7.317  1.00  0.00     0.099 A 
HETATM   34  C20 UNK     1       9.679   6.403   6.520  1.00  0.00     0.040 A 
HETATM   35  C18 UNK     1      10.999   6.466   6.968  1.00  0.00     0.017 A 
BRANCH  32  36
HETATM   36  O10 UNK     1       7.936   7.945   9.349  1.00  0.00    -0.353 OA
HETATM   37  C22 UNK     1       7.429   7.080  10.364  1.00  0.00     0.210 C 
ENDBRANCH  32  36
BRANCH  33  38
HETATM   38  O11 UNK     1       7.363   6.833   6.866  1.00  0.00    -0.358 OA
HETATM   39  H19 UNK     1       7.056   7.730   6.652  1.00  0.00     0.217 HD
ENDBRANCH  33  38
ENDBRANCH  10  30
TORSDOF 11
ENDMDL
MODEL 10
REMARK VINA RESULT:      -8.6      5.950     10.592
REMARK  11 active torsions:
REMARK  status: ('A' for Active; 'I' for Inactive)
REMARK    1  A    between atoms: C5_16  and  O2_2 
REMARK    2  A    between atoms: C7_18  and  O2_2 
REMARK    3  A    between atoms: C1_12  and  O3_3 
REMARK    4  A    between atoms: C2_13  and  O4_4 
REMARK    5  A    between atoms: C3_14  and  O5_5 
REMARK    6  A    between atoms: C6_17  and  O6_6 
REMARK    7  A    between atoms: C12_23  and  O8_8 
REMARK    8  A    between atoms: C19_30  and  O10_10 
REMARK    9  A    between atoms: C21_32  and  O11_11 
REMARK   10  A    between atoms: C4_15  and  C6_17 
REMARK   11  A    between atoms: C14_25  and  C16_27 
ROOT
HETATM    1  O7  UNK     1      22.818  -8.225  37.142  1.00  0.00    -0.309 OA
HETATM    2  O9  UNK     1      23.032 -11.726  35.070  1.00  0.00    -0.287 OA
HETATM    3  C7  UNK     1      26.268  -9.119  37.901  1.00  0.00     0.077 A 
HETATM    4  C8  UNK     1      25.055  -8.429  37.866  1.00  0.00     0.075 A 
HETATM    5  C9  UNK     1      26.408 -10.324  37.211  1.00  0.00     0.074 A 
HETATM    6  C10 UNK     1      23.984  -8.947  37.138  1.00  0.00     0.095 A 
HETATM    7  C11 UNK     1      24.126 -10.151  36.450  1.00  0.00     0.081 A 
HETATM    8  C12 UNK     1      25.337 -10.845  36.483  1.00  0.00     0.085 A 
HETATM    9  C13 UNK     1      22.979 -10.675  35.693  1.00  0.00     0.190 A 
HETATM   10  C14 UNK     1      21.737  -8.711  36.421  1.00  0.00     0.090 A 
HETATM   11  C15 UNK     1      21.748  -9.859  35.726  1.00  0.00     0.094 A 
ENDROOT
BRANCH   3  12
HETATM   12  O2  UNK     1      27.317  -8.614  38.611  1.00  0.00    -0.318 OA
BRANCH  12  13
HETATM   13  C5  UNK     1      28.324  -7.933  37.869  1.00  0.00     0.298 C 
HETATM   14  C3  UNK     1      28.219  -6.436  38.159  1.00  0.00     0.205 C 
HETATM   15  C1  UNK     1      29.303  -5.682  37.391  1.00  0.00     0.183 C 
HETATM   16  C2  UNK     1      30.685  -6.279  37.671  1.00  0.00     0.180 C 
HETATM   17  C4  UNK     1      30.665  -7.799  37.458  1.00  0.00     0.179 C 
HETATM   18  O1  UNK     1      29.623  -8.409  38.228  1.00  0.00    -0.348 OA
BRANCH  14  19
HETATM   19  O5  UNK     1      28.400  -6.239  39.565  1.00  0.00    -0.388 OA
HETATM   20  H10 UNK     1      27.585  -5.851  39.926  1.00  0.00     0.210 HD
ENDBRANCH  14  19
BRANCH  15  21
HETATM   21  O3  UNK     1      29.302  -4.307  37.765  1.00  0.00    -0.390 OA
HETATM   22  H8  UNK     1      29.868  -4.219  38.551  1.00  0.00     0.210 HD
ENDBRANCH  15  21
BRANCH  16  23
HETATM   23  O4  UNK     1      31.640  -5.696  36.788  1.00  0.00    -0.390 OA
HETATM   24  H9  UNK     1      31.176  -5.429  35.976  1.00  0.00     0.210 HD
ENDBRANCH  16  23
BRANCH  17  25
HETATM   25  C6  UNK     1      31.983  -8.442  37.880  1.00  0.00     0.198 C 
BRANCH  25  26
HETATM   26  O6  UNK     1      32.688  -7.527  38.699  1.00  0.00    -0.398 OA
HETATM   27  H11 UNK     1      32.156  -7.376  39.498  1.00  0.00     0.209 HD
ENDBRANCH  25  26
ENDBRANCH  17  25
ENDBRANCH  12  13
ENDBRANCH   3  12
BRANCH   8  28
HETATM   28  O8  UNK     1      25.525 -12.026  35.830  1.00  0.00    -0.360 OA
HETATM   29  H15 UNK     1      26.317 -11.983  35.272  1.00  0.00     0.217 HD
ENDBRANCH   8  28
BRANCH  10  30
HETATM   30  C16 UNK     1      20.533  -7.859  36.498  1.00  0.00     0.001 A 
HETATM   31  C17 UNK     1      20.649  -6.470  36.409  1.00  0.00     0.054 A 
HETATM   32  C19 UNK     1      19.511  -5.667  36.482  1.00  0.00     0.102 A 
HETATM   33  C21 UNK     1      18.254  -6.250  36.645  1.00  0.00     0.099 A 
HETATM   34  C20 UNK     1      18.135  -7.637  36.733  1.00  0.00     0.040 A 
HETATM   35  C18 UNK     1      19.273  -8.440  36.660  1.00  0.00     0.017 A 
BRANCH  32  36
HETATM   36  O10 UNK     1      19.640  -4.314  36.394  1.00  0.00    -0.353 OA
HETATM   37  C22 UNK     1      20.439  -3.672  37.386  1.00  0.00     0.210 C 
ENDBRANCH  32  36
BRANCH  33  38
HETATM   38  O11 UNK     1      17.135  -5.476  36.716  1.00  0.00    -0.358 OA
HETATM   39  H19 UNK     1      16.356  -6.052  36.793  1.00  0.00     0.217 HD
ENDBRANCH  33  38
ENDBRANCH  10  30
TORSDOF 11
ENDMDL
