MODEL 1
REMARK VINA RESULT:     -10.2      0.000      0.000
REMARK  5 active torsions:
REMARK  status: ('A' for Active; 'I' for Inactive)
REMARK    1  A    between atoms: C17_24  and  N1_6 
REMARK    2  A    between atoms: C8_15  and  N1_6 
REMARK    3  A    between atoms: C17_24  and  N2_7 
REMARK       I    between atoms: C18_25  and  N2_7 
REMARK    4  A    between atoms: C1_8  and  C2_9 
REMARK    5  A    between atoms: C18_25  and  C19_26 
ROOT
HETATM    1  C1  UNK     1      18.489   4.883  32.041  1.00  0.00    -0.014 A 
HETATM    2  C3  UNK     1      18.863   4.651  30.715  1.00  0.00    -0.049 A 
HETATM    3  C6  UNK     1      18.175   3.806  32.871  1.00  0.00     0.015 A 
HETATM    4  C7  UNK     1      18.922   3.348  30.222  1.00  0.00     0.037 A 
HETATM    5  C8  UNK     1      18.608   2.273  31.055  1.00  0.00     0.034 A 
HETATM    6  C10 UNK     1      18.234   2.502  32.379  1.00  0.00     0.030 A 
HETATM    7  C12 UNK     1      19.205   5.780  29.796  1.00  0.00     0.049 C 
ENDROOT
BRANCH   5   8
HETATM    8  N1  UNK     1      18.668   0.969  30.562  1.00  0.00    -0.333 N 
HETATM    9  H10 UNK     1      17.977   0.794  29.836  1.00  0.00     0.168 HD
BRANCH   8  10
HETATM   10  C17 UNK     1      19.635  -0.046  30.652  1.00  0.00     0.179 C 
HETATM   11  S1  UNK     1      20.585  -0.690  29.427  1.00  0.00    -0.040 SA
BRANCH  10  12
HETATM   12  N2  UNK     1      19.786  -0.609  31.936  1.00  0.00    -0.298 N 
HETATM   13  C18 UNK     1      18.829  -1.167  32.799  1.00  0.00     0.281 C 
HETATM   14  O4  UNK     1      17.628  -1.267  32.568  1.00  0.00    -0.265 OA
HETATM   15  H13 UNK     1      20.744  -0.603  32.281  1.00  0.00     0.171 HD
BRANCH  13  16
HETATM   16  C19 UNK     1      19.350  -1.630  34.111  1.00  0.00     0.142 A 
HETATM   17  O3  UNK     1      18.697  -1.178  35.178  1.00  0.00    -0.317 OA
HETATM   18  C22 UNK     1      19.352  -1.733  36.232  1.00  0.00     0.143 A 
HETATM   19  C21 UNK     1      20.395  -2.517  35.793  1.00  0.00     0.027 A 
HETATM   20  C20 UNK     1      20.379  -2.438  34.380  1.00  0.00     0.045 A 
ENDBRANCH  13  16
ENDBRANCH  10  12
ENDBRANCH   8  10
ENDBRANCH   5   8
BRANCH   1  21
HETATM   21  C2  UNK     1      18.418   6.248  32.592  1.00  0.00     0.051 A 
HETATM   22  C11 UNK     1      19.640   6.909  33.126  1.00  0.00     0.299 A 
HETATM   23  O1  UNK     1      19.499   8.209  33.602  1.00  0.00    -0.274 OA
HETATM   24  O2  UNK     1      20.728   6.340  33.157  1.00  0.00    -0.259 OA
HETATM   25  C9  UNK     1      18.259   8.873  33.602  1.00  0.00     0.089 A 
HETATM   26  C14 UNK     1      18.217  10.170  34.110  1.00  0.00     0.038 A 
HETATM   27  C4  UNK     1      17.123   8.245  33.108  1.00  0.00    -0.001 A 
HETATM   28  C16 UNK     1      17.001  10.852  34.123  1.00  0.00     0.003 A 
HETATM   29  C15 UNK     1      15.850  10.235  33.631  1.00  0.00     0.001 A 
HETATM   30  C13 UNK     1      15.908   8.934  33.123  1.00  0.00     0.014 A 
HETATM   31  C5  UNK     1      17.240   6.891  32.589  1.00  0.00     0.032 A 
ENDBRANCH   1  21
TORSDOF 5
ENDMDL
MODEL 2
REMARK VINA RESULT:     -10.1      1.156      1.826
REMARK  5 active torsions:
REMARK  status: ('A' for Active; 'I' for Inactive)
REMARK    1  A    between atoms: C17_24  and  N1_6 
REMARK    2  A    between atoms: C8_15  and  N1_6 
REMARK    3  A    between atoms: C17_24  and  N2_7 
REMARK       I    between atoms: C18_25  and  N2_7 
REMARK    4  A    between atoms: C1_8  and  C2_9 
REMARK    5  A    between atoms: C18_25  and  C19_26 
ROOT
HETATM    1  C1  UNK     1      18.393   4.796  32.025  1.00  0.00    -0.014 A 
HETATM    2  C3  UNK     1      18.765   4.514  30.709  1.00  0.00    -0.049 A 
HETATM    3  C6  UNK     1      18.100   3.751  32.902  1.00  0.00     0.015 A 
HETATM    4  C7  UNK     1      18.844   3.192  30.273  1.00  0.00     0.037 A 
HETATM    5  C8  UNK     1      18.551   2.149  31.152  1.00  0.00     0.034 A 
HETATM    6  C10 UNK     1      18.178   2.429  32.466  1.00  0.00     0.030 A 
HETATM    7  C12 UNK     1      19.086   5.607  29.741  1.00  0.00     0.049 C 
ENDROOT
BRANCH   5   8
HETATM    8  N1  UNK     1      18.631   0.826  30.715  1.00  0.00    -0.333 N 
HETATM    9  H10 UNK     1      17.920   0.600  30.023  1.00  0.00     0.168 HD
BRANCH   8  10
HETATM   10  C17 UNK     1      19.628  -0.157  30.816  1.00  0.00     0.179 C 
HETATM   11  S1  UNK     1      20.623  -0.758  29.605  1.00  0.00    -0.040 SA
BRANCH  10  12
HETATM   12  N2  UNK     1      19.772  -0.728  32.097  1.00  0.00    -0.298 N 
HETATM   13  C18 UNK     1      18.799  -1.191  32.998  1.00  0.00     0.281 C 
HETATM   14  O4  UNK     1      17.586  -1.177  32.811  1.00  0.00    -0.265 OA
HETATM   15  H13 UNK     1      20.738  -0.811  32.407  1.00  0.00     0.171 HD
BRANCH  13  16
HETATM   16  C19 UNK     1      19.320  -1.696  34.293  1.00  0.00     0.142 A 
HETATM   17  O3  UNK     1      18.640  -1.318  35.372  1.00  0.00    -0.317 OA
HETATM   18  C22 UNK     1      19.302  -1.899  36.407  1.00  0.00     0.143 A 
HETATM   19  C21 UNK     1      20.377  -2.624  35.946  1.00  0.00     0.027 A 
HETATM   20  C20 UNK     1      20.375  -2.478  34.539  1.00  0.00     0.045 A 
ENDBRANCH  13  16
ENDBRANCH  10  12
ENDBRANCH   8  10
ENDBRANCH   5   8
BRANCH   1  21
HETATM   21  C2  UNK     1      18.301   6.183  32.517  1.00  0.00     0.051 A 
HETATM   22  C11 UNK     1      17.009   6.920  32.455  1.00  0.00     0.299 A 
HETATM   23  O1  UNK     1      16.995   8.215  32.966  1.00  0.00    -0.274 OA
HETATM   24  O2  UNK     1      15.998   6.421  31.971  1.00  0.00    -0.259 OA
HETATM   25  C9  UNK     1      18.148   8.818  33.503  1.00  0.00     0.089 A 
HETATM   26  C14 UNK     1      18.035  10.122  33.980  1.00  0.00     0.038 A 
HETATM   27  C4  UNK     1      19.350   8.123  33.549  1.00  0.00    -0.001 A 
HETATM   28  C16 UNK     1      19.161  10.745  34.516  1.00  0.00     0.003 A 
HETATM   29  C15 UNK     1      20.377  10.062  34.570  1.00  0.00     0.001 A 
HETATM   30  C13 UNK     1      20.474   8.754  34.088  1.00  0.00     0.014 A 
HETATM   31  C5  UNK     1      19.395   6.763  33.037  1.00  0.00     0.032 A 
ENDBRANCH   1  21
TORSDOF 5
ENDMDL
MODEL 3
REMARK VINA RESULT:      -9.2      1.710      2.729
REMARK  5 active torsions:
REMARK  status: ('A' for Active; 'I' for Inactive)
REMARK    1  A    between atoms: C17_24  and  N1_6 
REMARK    2  A    between atoms: C8_15  and  N1_6 
REMARK    3  A    between atoms: C17_24  and  N2_7 
REMARK       I    between atoms: C18_25  and  N2_7 
REMARK    4  A    between atoms: C1_8  and  C2_9 
REMARK    5  A    between atoms: C18_25  and  C19_26 
ROOT
HETATM    1  C1  UNK     1      17.924   6.689  32.097  1.00  0.00    -0.014 A 
HETATM    2  C3  UNK     1      17.995   5.463  32.763  1.00  0.00    -0.049 A 
HETATM    3  C6  UNK     1      18.343   6.782  30.769  1.00  0.00     0.015 A 
HETATM    4  C7  UNK     1      18.483   4.336  32.103  1.00  0.00     0.037 A 
HETATM    5  C8  UNK     1      18.901   4.432  30.775  1.00  0.00     0.034 A 
HETATM    6  C10 UNK     1      18.831   5.654  30.109  1.00  0.00     0.030 A 
HETATM    7  C12 UNK     1      17.556   5.325  34.186  1.00  0.00     0.049 C 
ENDROOT
BRANCH   5   8
HETATM    8  N1  UNK     1      19.388   3.303  30.115  1.00  0.00    -0.333 N 
HETATM    9  H10 UNK     1      20.401   3.312  30.024  1.00  0.00     0.168 HD
BRANCH   8  10
HETATM   10  C17 UNK     1      18.821   2.057  29.802  1.00  0.00     0.179 C 
HETATM   11  S1  UNK     1      17.793   1.670  28.533  1.00  0.00    -0.040 SA
BRANCH  10  12
HETATM   12  N2  UNK     1      19.139   1.018  30.701  1.00  0.00    -0.298 N 
HETATM   13  C18 UNK     1      19.972  -0.100  30.537  1.00  0.00     0.281 C 
HETATM   14  O4  UNK     1      20.604  -0.379  29.523  1.00  0.00    -0.265 OA
HETATM   15  H13 UNK     1      18.685   1.103  31.609  1.00  0.00     0.171 HD
BRANCH  13  16
HETATM   16  C19 UNK     1      20.037  -1.021  31.700  1.00  0.00     0.142 A 
HETATM   17  O3  UNK     1      19.188  -0.756  32.690  1.00  0.00    -0.317 OA
HETATM   18  C22 UNK     1      19.438  -1.720  33.614  1.00  0.00     0.143 A 
HETATM   19  C21 UNK     1      20.435  -2.561  33.177  1.00  0.00     0.027 A 
HETATM   20  C20 UNK     1      20.823  -2.082  31.902  1.00  0.00     0.045 A 
ENDBRANCH  13  16
ENDBRANCH  10  12
ENDBRANCH   8  10
ENDBRANCH   5   8
BRANCH   1  21
HETATM   21  C2  UNK     1      17.412   7.899  32.766  1.00  0.00     0.051 A 
HETATM   22  C11 UNK     1      18.314   8.732  33.607  1.00  0.00     0.299 A 
HETATM   23  O1  UNK     1      17.765   9.875  34.182  1.00  0.00    -0.274 OA
HETATM   24  O2  UNK     1      19.489   8.432  33.798  1.00  0.00    -0.259 OA
HETATM   25  C9  UNK     1      16.415  10.227  33.999  1.00  0.00     0.089 A 
HETATM   26  C14 UNK     1      15.956  11.385  34.625  1.00  0.00     0.038 A 
HETATM   27  C4  UNK     1      15.580   9.437  33.219  1.00  0.00    -0.001 A 
HETATM   28  C16 UNK     1      14.623  11.757  34.462  1.00  0.00     0.003 A 
HETATM   29  C15 UNK     1      13.770  10.975  33.682  1.00  0.00     0.001 A 
HETATM   30  C13 UNK     1      14.246   9.817  33.060  1.00  0.00     0.014 A 
HETATM   31  C5  UNK     1      16.127   8.245  32.592  1.00  0.00     0.032 A 
ENDBRANCH   1  21
TORSDOF 5
ENDMDL
MODEL 4
REMARK VINA RESULT:      -9.2      2.300      3.234
REMARK  5 active torsions:
REMARK  status: ('A' for Active; 'I' for Inactive)
REMARK    1  A    between atoms: C17_24  and  N1_6 
REMARK    2  A    between atoms: C8_15  and  N1_6 
REMARK    3  A    between atoms: C17_24  and  N2_7 
REMARK       I    between atoms: C18_25  and  N2_7 
REMARK    4  A    between atoms: C1_8  and  C2_9 
REMARK    5  A    between atoms: C18_25  and  C19_26 
ROOT
HETATM    1  C1  UNK     1      17.707   6.627  31.920  1.00  0.00    -0.014 A 
HETATM    2  C3  UNK     1      17.828   5.502  32.738  1.00  0.00    -0.049 A 
HETATM    3  C6  UNK     1      18.166   6.580  30.603  1.00  0.00     0.015 A 
HETATM    4  C7  UNK     1      18.406   4.334  32.241  1.00  0.00     0.037 A 
HETATM    5  C8  UNK     1      18.863   4.290  30.923  1.00  0.00     0.034 A 
HETATM    6  C10 UNK     1      18.744   5.412  30.105  1.00  0.00     0.030 A 
HETATM    7  C12 UNK     1      17.348   5.515  34.154  1.00  0.00     0.049 C 
ENDROOT
BRANCH   5   8
HETATM    8  N1  UNK     1      19.441   3.121  30.425  1.00  0.00    -0.333 N 
HETATM    9  H10 UNK     1      20.367   2.949  30.811  1.00  0.00     0.168 HD
BRANCH   8  10
HETATM   10  C17 UNK     1      18.921   2.014  29.735  1.00  0.00     0.179 C 
HETATM   11  S1  UNK     1      17.781   1.998  28.503  1.00  0.00    -0.040 SA
BRANCH  10  12
HETATM   12  N2  UNK     1      19.401   0.763  30.173  1.00  0.00    -0.298 N 
HETATM   13  C18 UNK     1      19.337   0.160  31.439  1.00  0.00     0.281 C 
HETATM   14  O4  UNK     1      18.821   0.648  32.440  1.00  0.00    -0.265 OA
HETATM   15  H13 UNK     1      19.866   0.221  29.447  1.00  0.00     0.171 HD
BRANCH  13  16
HETATM   16  C19 UNK     1      19.997  -1.166  31.546  1.00  0.00     0.142 A 
HETATM   17  O3  UNK     1      20.386  -1.516  32.770  1.00  0.00    -0.317 OA
HETATM   18  C22 UNK     1      20.949  -2.742  32.605  1.00  0.00     0.143 A 
HETATM   19  C21 UNK     1      20.895  -3.124  31.284  1.00  0.00     0.027 A 
HETATM   20  C20 UNK     1      20.259  -2.065  30.594  1.00  0.00     0.045 A 
ENDBRANCH  13  16
ENDBRANCH  10  12
ENDBRANCH   8  10
ENDBRANCH   5   8
BRANCH   1  21
HETATM   21  C2  UNK     1      17.100   7.876  32.416  1.00  0.00     0.051 A 
HETATM   22  C11 UNK     1      15.655   8.152  32.188  1.00  0.00     0.299 A 
HETATM   23  O1  UNK     1      15.148   9.338  32.712  1.00  0.00    -0.274 OA
HETATM   24  O2  UNK     1      14.935   7.380  31.562  1.00  0.00    -0.259 OA
HETATM   25  C9  UNK     1      15.959  10.252  33.410  1.00  0.00     0.089 A 
HETATM   26  C14 UNK     1      15.361  11.417  33.887  1.00  0.00     0.038 A 
HETATM   27  C4  UNK     1      17.307   9.987  33.611  1.00  0.00    -0.001 A 
HETATM   28  C16 UNK     1      16.140  12.340  34.582  1.00  0.00     0.003 A 
HETATM   29  C15 UNK     1      17.497  12.091  34.792  1.00  0.00     0.001 A 
HETATM   30  C13 UNK     1      18.082  10.917  34.309  1.00  0.00     0.014 A 
HETATM   31  C5  UNK     1      17.865   8.749  33.089  1.00  0.00     0.032 A 
ENDBRANCH   1  21
TORSDOF 5
ENDMDL
MODEL 5
REMARK VINA RESULT:      -9.0     23.569     25.556
REMARK  5 active torsions:
REMARK  status: ('A' for Active; 'I' for Inactive)
REMARK    1  A    between atoms: C17_24  and  N1_6 
REMARK    2  A    between atoms: C8_15  and  N1_6 
REMARK    3  A    between atoms: C17_24  and  N2_7 
REMARK       I    between atoms: C18_25  and  N2_7 
REMARK    4  A    between atoms: C1_8  and  C2_9 
REMARK    5  A    between atoms: C18_25  and  C19_26 
ROOT
HETATM    1  C1  UNK     1      14.734   8.821   9.128  1.00  0.00    -0.014 A 
HETATM    2  C3  UNK     1      15.819   8.088   9.613  1.00  0.00    -0.049 A 
HETATM    3  C6  UNK     1      14.889  10.176   8.832  1.00  0.00     0.015 A 
HETATM    4  C7  UNK     1      17.054   8.709   9.802  1.00  0.00     0.037 A 
HETATM    5  C8  UNK     1      17.206  10.064   9.505  1.00  0.00     0.034 A 
HETATM    6  C10 UNK     1      16.123  10.797   9.021  1.00  0.00     0.030 A 
HETATM    7  C12 UNK     1      15.692   6.635   9.941  1.00  0.00     0.049 C 
ENDROOT
BRANCH   5   8
HETATM    8  N1  UNK     1      18.441  10.685   9.694  1.00  0.00    -0.333 N 
HETATM    9  H10 UNK     1      18.904  10.381  10.548  1.00  0.00     0.168 HD
BRANCH   8  10
HETATM   10  C17 UNK     1      19.288  11.412   8.842  1.00  0.00     0.179 C 
HETATM   11  S1  UNK     1      18.987  11.937   7.276  1.00  0.00    -0.040 SA
BRANCH  10  12
HETATM   12  N2  UNK     1      20.562  11.697   9.373  1.00  0.00    -0.298 N 
HETATM   13  C18 UNK     1      20.930  12.163  10.646  1.00  0.00     0.281 C 
HETATM   14  O4  UNK     1      20.159  12.416  11.567  1.00  0.00    -0.265 OA
HETATM   15  H13 UNK     1      21.327  11.537   8.722  1.00  0.00     0.171 HD
BRANCH  13  16
HETATM   16  C19 UNK     1      22.384  12.395  10.842  1.00  0.00     0.142 A 
HETATM   17  O3  UNK     1      22.958  11.662  11.792  1.00  0.00    -0.317 OA
HETATM   18  C22 UNK     1      24.260  12.052  11.775  1.00  0.00     0.143 A 
HETATM   19  C21 UNK     1      24.463  13.017  10.815  1.00  0.00     0.027 A 
HETATM   20  C20 UNK     1      23.205  13.233  10.204  1.00  0.00     0.045 A 
ENDBRANCH  13  16
ENDBRANCH  10  12
ENDBRANCH   8  10
ENDBRANCH   5   8
BRANCH   1  21
HETATM   21  C2  UNK     1      13.417   8.194   8.915  1.00  0.00     0.051 A 
HETATM   22  C11 UNK     1      12.460   8.052  10.047  1.00  0.00     0.299 A 
HETATM   23  O1  UNK     1      11.225   7.477   9.762  1.00  0.00    -0.274 OA
HETATM   24  O2  UNK     1      12.739   8.416  11.186  1.00  0.00    -0.259 OA
HETATM   25  C9  UNK     1      10.891   7.028   8.470  1.00  0.00     0.089 A 
HETATM   26  C14 UNK     1       9.633   6.456   8.287  1.00  0.00     0.038 A 
HETATM   27  C4  UNK     1      11.795   7.159   7.424  1.00  0.00    -0.001 A 
HETATM   28  C16 UNK     1       9.276   6.002   7.019  1.00  0.00     0.003 A 
HETATM   29  C15 UNK     1      10.172   6.125   5.955  1.00  0.00     0.001 A 
HETATM   30  C13 UNK     1      11.429   6.702   6.155  1.00  0.00     0.014 A 
HETATM   31  C5  UNK     1      13.088   7.770   7.685  1.00  0.00     0.032 A 
ENDBRANCH   1  21
TORSDOF 5
ENDMDL
MODEL 6
REMARK VINA RESULT:      -8.9     23.664     26.697
REMARK  5 active torsions:
REMARK  status: ('A' for Active; 'I' for Inactive)
REMARK    1  A    between atoms: C17_24  and  N1_6 
REMARK    2  A    between atoms: C8_15  and  N1_6 
REMARK    3  A    between atoms: C17_24  and  N2_7 
REMARK       I    between atoms: C18_25  and  N2_7 
REMARK    4  A    between atoms: C1_8  and  C2_9 
REMARK    5  A    between atoms: C18_25  and  C19_26 
ROOT
HETATM    1  C1  UNK     1      14.534   8.821   9.003  1.00  0.00    -0.014 A 
HETATM    2  C3  UNK     1      15.510   8.105   9.699  1.00  0.00    -0.049 A 
HETATM    3  C6  UNK     1      14.825  10.094   8.512  1.00  0.00     0.015 A 
HETATM    4  C7  UNK     1      16.773   8.661   9.903  1.00  0.00     0.037 A 
HETATM    5  C8  UNK     1      17.062   9.934   9.411  1.00  0.00     0.034 A 
HETATM    6  C10 UNK     1      16.088  10.651   8.716  1.00  0.00     0.030 A 
HETATM    7  C12 UNK     1      15.235   6.739  10.240  1.00  0.00     0.049 C 
ENDROOT
BRANCH   5   8
HETATM    8  N1  UNK     1      18.325  10.490   9.615  1.00  0.00    -0.333 N 
HETATM    9  H10 UNK     1      19.075   9.883   9.292  1.00  0.00     0.168 HD
BRANCH   8  10
HETATM   10  C17 UNK     1      18.763  11.792   9.907  1.00  0.00     0.179 C 
HETATM   11  S1  UNK     1      18.677  12.615  11.368  1.00  0.00    -0.040 SA
BRANCH  10  12
HETATM   12  N2  UNK     1      19.307  12.495   8.813  1.00  0.00    -0.298 N 
HETATM   13  C18 UNK     1      20.471  12.251   8.066  1.00  0.00     0.281 C 
HETATM   14  O4  UNK     1      21.259  11.328   8.250  1.00  0.00    -0.265 OA
HETATM   15  H13 UNK     1      18.761  13.307   8.529  1.00  0.00     0.171 HD
BRANCH  13  16
HETATM   16  C19 UNK     1      20.759  13.239   6.996  1.00  0.00     0.142 A 
HETATM   17  O3  UNK     1      19.693  13.785   6.417  1.00  0.00    -0.317 OA
HETATM   18  C22 UNK     1      20.212  14.637   5.494  1.00  0.00     0.143 A 
HETATM   19  C21 UNK     1      21.587  14.600   5.522  1.00  0.00     0.027 A 
HETATM   20  C20 UNK     1      21.935  13.665   6.526  1.00  0.00     0.045 A 
ENDBRANCH  13  16
ENDBRANCH  10  12
ENDBRANCH   8  10
ENDBRANCH   5   8
BRANCH   1  21
HETATM   21  C2  UNK     1      13.190   8.260   8.769  1.00  0.00     0.051 A 
HETATM   22  C11 UNK     1      12.149   8.333   9.831  1.00  0.00     0.299 A 
HETATM   23  O1  UNK     1      10.897   7.809   9.525  1.00  0.00    -0.274 OA
HETATM   24  O2  UNK     1      12.376   8.826  10.932  1.00  0.00    -0.259 OA
HETATM   25  C9  UNK     1      10.620   7.217   8.279  1.00  0.00     0.089 A 
HETATM   26  C14 UNK     1       9.338   6.711   8.071  1.00  0.00     0.038 A 
HETATM   27  C4  UNK     1      11.601   7.147   7.298  1.00  0.00    -0.001 A 
HETATM   28  C16 UNK     1       9.036   6.117   6.847  1.00  0.00     0.003 A 
HETATM   29  C15 UNK     1      10.010   6.038   5.850  1.00  0.00     0.001 A 
HETATM   30  C13 UNK     1      11.291   6.552   6.073  1.00  0.00     0.014 A 
HETATM   31  C5  UNK     1      12.916   7.700   7.581  1.00  0.00     0.032 A 
ENDBRANCH   1  21
TORSDOF 5
ENDMDL
MODEL 7
REMARK VINA RESULT:      -8.9      1.388      1.714
REMARK  5 active torsions:
REMARK  status: ('A' for Active; 'I' for Inactive)
REMARK    1  A    between atoms: C17_24  and  N1_6 
REMARK    2  A    between atoms: C8_15  and  N1_6 
REMARK    3  A    between atoms: C17_24  and  N2_7 
REMARK       I    between atoms: C18_25  and  N2_7 
REMARK    4  A    between atoms: C1_8  and  C2_9 
REMARK    5  A    between atoms: C18_25  and  C19_26 
ROOT
HETATM    1  C1  UNK     1      18.340   5.819  32.867  1.00  0.00    -0.014 A 
HETATM    2  C3  UNK     1      18.430   5.416  31.533  1.00  0.00    -0.049 A 
HETATM    3  C6  UNK     1      18.170   4.864  33.871  1.00  0.00     0.015 A 
HETATM    4  C7  UNK     1      18.348   4.064  31.204  1.00  0.00     0.037 A 
HETATM    5  C8  UNK     1      18.177   3.111  32.209  1.00  0.00     0.034 A 
HETATM    6  C10 UNK     1      18.087   3.511  33.542  1.00  0.00     0.030 A 
HETATM    7  C12 UNK     1      18.612   6.410  30.431  1.00  0.00     0.049 C 
ENDROOT
BRANCH   5   8
HETATM    8  N1  UNK     1      18.096   1.757  31.880  1.00  0.00    -0.333 N 
HETATM    9  H10 UNK     1      17.378   1.567  31.185  1.00  0.00     0.168 HD
BRANCH   8  10
HETATM   10  C17 UNK     1      18.957   0.667  32.089  1.00  0.00     0.179 C 
HETATM   11  S1  UNK     1      20.039  -0.027  31.010  1.00  0.00    -0.040 SA
BRANCH  10  12
HETATM   12  N2  UNK     1      18.858   0.069  33.362  1.00  0.00    -0.298 N 
HETATM   13  C18 UNK     1      17.772   0.003  34.251  1.00  0.00     0.281 C 
HETATM   14  O4  UNK     1      16.659   0.483  34.059  1.00  0.00    -0.265 OA
HETATM   15  H13 UNK     1      19.715  -0.382  33.675  1.00  0.00     0.171 HD
BRANCH  13  16
HETATM   16  C19 UNK     1      18.047  -0.680  35.541  1.00  0.00     0.142 A 
HETATM   17  O3  UNK     1      18.952  -1.654  35.492  1.00  0.00    -0.317 OA
HETATM   18  C22 UNK     1      19.023  -2.110  36.771  1.00  0.00     0.143 A 
HETATM   19  C21 UNK     1      18.161  -1.408  37.582  1.00  0.00     0.027 A 
HETATM   20  C20 UNK     1      17.520  -0.462  36.748  1.00  0.00     0.045 A 
ENDBRANCH  13  16
ENDBRANCH  10  12
ENDBRANCH   8  10
ENDBRANCH   5   8
BRANCH   1  21
HETATM   21  C2  UNK     1      18.425   7.241  33.248  1.00  0.00     0.051 A 
HETATM   22  C11 UNK     1      19.747   7.875  33.503  1.00  0.00     0.299 A 
HETATM   23  O1  UNK     1      19.747   9.228  33.828  1.00  0.00    -0.274 OA
HETATM   24  O2  UNK     1      20.796   7.241  33.438  1.00  0.00    -0.259 OA
HETATM   25  C9  UNK     1      18.556   9.970  33.934  1.00  0.00     0.089 A 
HETATM   26  C14 UNK     1      18.659  11.318  34.276  1.00  0.00     0.038 A 
HETATM   27  C4  UNK     1      17.327   9.367  33.701  1.00  0.00    -0.001 A 
HETATM   28  C16 UNK     1      17.495  12.076  34.389  1.00  0.00     0.003 A 
HETATM   29  C15 UNK     1      16.251  11.486  34.159  1.00  0.00     0.001 A 
HETATM   30  C13 UNK     1      16.165  10.134  33.815  1.00  0.00     0.014 A 
HETATM   31  C5  UNK     1      17.293   7.957  33.344  1.00  0.00     0.032 A 
ENDBRANCH   1  21
TORSDOF 5
ENDMDL
MODEL 8
REMARK VINA RESULT:      -8.9      2.889      4.861
REMARK  5 active torsions:
REMARK  status: ('A' for Active; 'I' for Inactive)
REMARK    1  A    between atoms: C17_24  and  N1_6 
REMARK    2  A    between atoms: C8_15  and  N1_6 
REMARK    3  A    between atoms: C17_24  and  N2_7 
REMARK       I    between atoms: C18_25  and  N2_7 
REMARK    4  A    between atoms: C1_8  and  C2_9 
REMARK    5  A    between atoms: C18_25  and  C19_26 
ROOT
HETATM    1  C1  UNK     1      17.006   8.611  33.528  1.00  0.00    -0.014 A 
HETATM    2  C3  UNK     1      18.000   7.788  34.059  1.00  0.00    -0.049 A 
HETATM    3  C6  UNK     1      16.391   8.267  32.323  1.00  0.00     0.015 A 
HETATM    4  C7  UNK     1      18.379   6.626  33.388  1.00  0.00     0.037 A 
HETATM    5  C8  UNK     1      17.762   6.284  32.183  1.00  0.00     0.034 A 
HETATM    6  C10 UNK     1      16.769   7.105  31.651  1.00  0.00     0.030 A 
HETATM    7  C12 UNK     1      18.682   8.124  35.347  1.00  0.00     0.049 C 
ENDROOT
BRANCH   5   8
HETATM    8  N1  UNK     1      18.140   5.121  31.512  1.00  0.00    -0.333 N 
HETATM    9  H10 UNK     1      17.407   4.415  31.510  1.00  0.00     0.168 HD
BRANCH   8  10
HETATM   10  C17 UNK     1      19.186   4.825  30.622  1.00  0.00     0.179 C 
HETATM   11  S1  UNK     1      20.118   5.892  29.721  1.00  0.00    -0.040 SA
BRANCH  10  12
HETATM   12  N2  UNK     1      19.446   3.451  30.448  1.00  0.00    -0.298 N 
HETATM   13  C18 UNK     1      18.569   2.354  30.454  1.00  0.00     0.281 C 
HETATM   14  O4  UNK     1      17.355   2.409  30.623  1.00  0.00    -0.265 OA
HETATM   15  H13 UNK     1      20.428   3.232  30.294  1.00  0.00     0.171 HD
BRANCH  13  16
HETATM   16  C19 UNK     1      19.210   1.026  30.279  1.00  0.00     0.142 A 
HETATM   17  O3  UNK     1      19.355   0.309  31.390  1.00  0.00    -0.317 OA
HETATM   18  C22 UNK     1      19.953  -0.839  30.973  1.00  0.00     0.143 A 
HETATM   19  C21 UNK     1      20.164  -0.806  29.614  1.00  0.00     0.027 A 
HETATM   20  C20 UNK     1      19.665   0.441  29.168  1.00  0.00     0.045 A 
ENDBRANCH  13  16
ENDBRANCH  10  12
ENDBRANCH   8  10
ENDBRANCH   5   8
BRANCH   1  21
HETATM   21  C2  UNK     1      16.582   9.846  34.214  1.00  0.00     0.051 A 
HETATM   22  C11 UNK     1      17.395  11.087  34.099  1.00  0.00     0.299 A 
HETATM   23  O1  UNK     1      16.915  12.220  34.750  1.00  0.00    -0.274 OA
HETATM   24  O2  UNK     1      18.447  11.121  33.466  1.00  0.00    -0.259 OA
HETATM   25  C9  UNK     1      15.726  12.200  35.503  1.00  0.00     0.089 A 
HETATM   26  C14 UNK     1      15.334  13.382  36.127  1.00  0.00     0.038 A 
HETATM   27  C4  UNK     1      14.980  11.034  35.610  1.00  0.00    -0.001 A 
HETATM   28  C16 UNK     1      14.161  13.392  36.880  1.00  0.00     0.003 A 
HETATM   29  C15 UNK     1      13.399  12.229  36.999  1.00  0.00     0.001 A 
HETATM   30  C13 UNK     1      13.805  11.051  36.366  1.00  0.00     0.014 A 
HETATM   31  C5  UNK     1      15.446   9.837  34.928  1.00  0.00     0.032 A 
ENDBRANCH   1  21
TORSDOF 5
ENDMDL
MODEL 9
REMARK VINA RESULT:      -8.8      2.622      4.047
REMARK  5 active torsions:
REMARK  status: ('A' for Active; 'I' for Inactive)
REMARK    1  A    between atoms: C17_24  and  N1_6 
REMARK    2  A    between atoms: C8_15  and  N1_6 
REMARK    3  A    between atoms: C17_24  and  N2_7 
REMARK       I    between atoms: C18_25  and  N2_7 
REMARK    4  A    between atoms: C1_8  and  C2_9 
REMARK    5  A    between atoms: C18_25  and  C19_26 
ROOT
HETATM    1  C1  UNK     1      17.602   8.218  33.398  1.00  0.00    -0.014 A 
HETATM    2  C3  UNK     1      18.544   7.429  34.062  1.00  0.00    -0.049 A 
HETATM    3  C6  UNK     1      17.120   7.820  32.150  1.00  0.00     0.015 A 
HETATM    4  C7  UNK     1      19.000   6.247  33.481  1.00  0.00     0.037 A 
HETATM    5  C8  UNK     1      18.516   5.851  32.233  1.00  0.00     0.034 A 
HETATM    6  C10 UNK     1      17.576   6.638  31.568  1.00  0.00     0.030 A 
HETATM    7  C12 UNK     1      19.084   7.824  35.399  1.00  0.00     0.049 C 
ENDROOT
BRANCH   5   8
HETATM    8  N1  UNK     1      18.972   4.667  31.652  1.00  0.00    -0.333 N 
HETATM    9  H10 UNK     1      19.983   4.654  31.538  1.00  0.00     0.168 HD
BRANCH   8  10
HETATM   10  C17 UNK     1      18.382   3.409  31.451  1.00  0.00     0.179 C 
HETATM   11  S1  UNK     1      18.137   2.594  30.004  1.00  0.00    -0.040 SA
BRANCH  10  12
HETATM   12  N2  UNK     1      17.907   2.782  32.621  1.00  0.00    -0.298 N 
HETATM   13  C18 UNK     1      18.166   1.500  33.132  1.00  0.00     0.281 C 
HETATM   14  O4  UNK     1      18.894   0.657  32.616  1.00  0.00    -0.265 OA
HETATM   15  H13 UNK     1      17.277   3.360  33.174  1.00  0.00     0.171 HD
BRANCH  13  16
HETATM   16  C19 UNK     1      17.447   1.157  34.385  1.00  0.00     0.142 A 
HETATM   17  O3  UNK     1      16.279   0.542  34.226  1.00  0.00    -0.317 OA
HETATM   18  C22 UNK     1      15.830   0.340  35.493  1.00  0.00     0.143 A 
HETATM   19  C21 UNK     1      16.731   0.835  36.408  1.00  0.00     0.027 A 
HETATM   20  C20 UNK     1      17.800   1.375  35.655  1.00  0.00     0.045 A 
ENDBRANCH  13  16
ENDBRANCH  10  12
ENDBRANCH   8  10
ENDBRANCH   5   8
BRANCH   1  21
HETATM   21  C2  UNK     1      17.099   9.473  33.986  1.00  0.00     0.051 A 
HETATM   22  C11 UNK     1      17.925  10.711  33.939  1.00  0.00     0.299 A 
HETATM   23  O1  UNK     1      17.369  11.862  34.489  1.00  0.00    -0.274 OA
HETATM   24  O2  UNK     1      19.049  10.726  33.446  1.00  0.00    -0.259 OA
HETATM   25  C9  UNK     1      16.093  11.865  35.083  1.00  0.00     0.089 A 
HETATM   26  C14 UNK     1      15.628  13.066  35.616  1.00  0.00     0.038 A 
HETATM   27  C4  UNK     1      15.334  10.702  35.128  1.00  0.00    -0.001 A 
HETATM   28  C16 UNK     1      14.368  13.098  36.211  1.00  0.00     0.003 A 
HETATM   29  C15 UNK     1      13.592  11.939  36.266  1.00  0.00     0.001 A 
HETATM   30  C13 UNK     1      14.073  10.742  35.726  1.00  0.00     0.014 A 
HETATM   31  C5  UNK     1      15.880   9.485  34.548  1.00  0.00     0.032 A 
ENDBRANCH   1  21
TORSDOF 5
ENDMDL
MODEL 10
REMARK VINA RESULT:      -8.7      6.854     10.696
REMARK  5 active torsions:
REMARK  status: ('A' for Active; 'I' for Inactive)
REMARK    1  A    between atoms: C17_24  and  N1_6 
REMARK    2  A    between atoms: C8_15  and  N1_6 
REMARK    3  A    between atoms: C17_24  and  N2_7 
REMARK       I    between atoms: C18_25  and  N2_7 
REMARK    4  A    between atoms: C1_8  and  C2_9 
REMARK    5  A    between atoms: C18_25  and  C19_26 
ROOT
HETATM    1  C1  UNK     1      20.093  -4.309  37.082  1.00  0.00    -0.014 A 
HETATM    2  C3  UNK     1      19.275  -5.433  36.956  1.00  0.00    -0.049 A 
HETATM    3  C6  UNK     1      21.367  -4.437  37.639  1.00  0.00     0.015 A 
HETATM    4  C7  UNK     1      19.728  -6.680  37.385  1.00  0.00     0.037 A 
HETATM    5  C8  UNK     1      21.001  -6.805  37.941  1.00  0.00     0.034 A 
HETATM    6  C10 UNK     1      21.820  -5.684  38.069  1.00  0.00     0.030 A 
HETATM    7  C12 UNK     1      17.905  -5.335  36.365  1.00  0.00     0.049 C 
ENDROOT
BRANCH   5   8
HETATM    8  N1  UNK     1      21.455  -8.053  38.370  1.00  0.00    -0.333 N 
HETATM    9  H10 UNK     1      21.277  -8.214  39.359  1.00  0.00     0.168 HD
BRANCH   8  10
HETATM   10  C17 UNK     1      21.844  -9.218  37.688  1.00  0.00     0.179 C 
HETATM   11  S1  UNK     1      20.906 -10.551  37.285  1.00  0.00    -0.040 SA
BRANCH  10  12
HETATM   12  N2  UNK     1      23.208  -9.272  37.337  1.00  0.00    -0.298 N 
HETATM   13  C18 UNK     1      24.328  -8.695  37.959  1.00  0.00     0.281 C 
HETATM   14  O4  UNK     1      24.307  -8.005  38.973  1.00  0.00    -0.265 OA
HETATM   15  H13 UNK     1      23.399  -9.817  36.499  1.00  0.00     0.171 HD
BRANCH  13  16
HETATM   16  C19 UNK     1      25.626  -8.930  37.276  1.00  0.00     0.142 A 
HETATM   17  O3  UNK     1      26.421  -7.869  37.177  1.00  0.00    -0.317 OA
HETATM   18  C22 UNK     1      27.522  -8.334  36.528  1.00  0.00     0.143 A 
HETATM   19  C21 UNK     1      27.383  -9.672  36.241  1.00  0.00     0.027 A 
HETATM   20  C20 UNK     1      26.116 -10.053  36.745  1.00  0.00     0.045 A 
ENDBRANCH  13  16
ENDBRANCH  10  12
ENDBRANCH   8  10
ENDBRANCH   5   8
BRANCH   1  21
HETATM   21  C2  UNK     1      19.644  -2.977  36.636  1.00  0.00     0.051 A 
HETATM   22  C11 UNK     1      19.955  -2.499  35.261  1.00  0.00     0.299 A 
HETATM   23  O1  UNK     1      19.472  -1.243  34.905  1.00  0.00    -0.274 OA
HETATM   24  O2  UNK     1      20.613  -3.170  34.472  1.00  0.00    -0.259 OA
HETATM   25  C9  UNK     1      18.737  -0.444  35.800  1.00  0.00     0.089 A 
HETATM   26  C14 UNK     1      18.306   0.803  35.353  1.00  0.00     0.038 A 
HETATM   27  C4  UNK     1      18.460  -0.897  37.084  1.00  0.00    -0.001 A 
HETATM   28  C16 UNK     1      17.578   1.616  36.219  1.00  0.00     0.003 A 
HETATM   29  C15 UNK     1      17.289   1.177  37.513  1.00  0.00     0.001 A 
HETATM   30  C13 UNK     1      17.729  -0.077  37.946  1.00  0.00     0.014 A 
HETATM   31  C5  UNK     1      18.937  -2.212  37.483  1.00  0.00     0.032 A 
ENDBRANCH   1  21
TORSDOF 5
ENDMDL
