MODEL 1
REMARK VINA RESULT:      -7.1      0.000      0.000
REMARK  2 active torsions:
REMARK  status: ('A' for Active; 'I' for Inactive)
REMARK    1  A    between atoms: C3_7  and  C8_12 
REMARK    2  A    between atoms: C11_15  and  C8_12 
ROOT
HETATM    1  O1  UNK     1      18.786   1.232  31.686  1.00  0.00    -0.274 OA
HETATM    2  O2  UNK     1      17.695   2.045  33.521  1.00  0.00    -0.259 OA
HETATM    3  C1  UNK     1      19.497  -1.093  31.645  1.00  0.00    -0.001 A 
HETATM    4  C2  UNK     1      19.410   0.152  31.031  1.00  0.00     0.089 A 
HETATM    5  C3  UNK     1      18.340  -0.234  33.592  1.00  0.00     0.087 A 
HETATM    6  C4  UNK     1      18.933  -1.263  32.975  1.00  0.00     0.035 A 
HETATM    7  C5  UNK     1      20.124  -2.139  30.963  1.00  0.00     0.014 A 
HETATM    8  C6  UNK     1      18.236   1.099  32.958  1.00  0.00     0.302 A 
HETATM    9  C7  UNK     1      19.932   0.382  29.759  1.00  0.00     0.038 A 
HETATM   10  C9  UNK     1      20.651  -1.924  29.686  1.00  0.00     0.001 A 
HETATM   11  C10 UNK     1      20.555  -0.667  29.086  1.00  0.00     0.003 A 
ENDROOT
BRANCH   5  12
HETATM   12  C8  UNK     1      17.801  -0.504  34.931  1.00  0.00     0.175 C 
HETATM   13  O3  UNK     1      16.690  -1.022  35.051  1.00  0.00    -0.291 OA
BRANCH  12  14
HETATM   14  C11 UNK     1      18.690  -0.160  36.102  1.00  0.00     0.169 C 
HETATM   15 Br1  UNK     1      17.601   0.591  37.520  1.00  0.00    -0.088 Br
ENDBRANCH  12  14
ENDBRANCH   5  12
TORSDOF 2
ENDMDL
MODEL 2
REMARK VINA RESULT:      -7.1      2.822      4.095
REMARK  2 active torsions:
REMARK  status: ('A' for Active; 'I' for Inactive)
REMARK    1  A    between atoms: C3_7  and  C8_12 
REMARK    2  A    between atoms: C11_15  and  C8_12 
ROOT
HETATM    1  O1  UNK     1      18.768   0.511  32.654  1.00  0.00    -0.274 OA
HETATM    2  O2  UNK     1      17.921   2.335  33.737  1.00  0.00    -0.259 OA
HETATM    3  C1  UNK     1      19.475   0.714  30.336  1.00  0.00    -0.001 A 
HETATM    4  C2  UNK     1      19.306  -0.057  31.483  1.00  0.00     0.089 A 
HETATM    5  C3  UNK     1      18.577   2.649  31.482  1.00  0.00     0.087 A 
HETATM    6  C4  UNK     1      19.086   2.115  30.366  1.00  0.00     0.035 A 
HETATM    7  C5  UNK     1      20.011   0.114  29.194  1.00  0.00     0.014 A 
HETATM    8  C6  UNK     1      18.389   1.850  32.714  1.00  0.00     0.302 A 
HETATM    9  C7  UNK     1      19.657  -1.405  31.519  1.00  0.00     0.038 A 
HETATM   10  C9  UNK     1      20.369  -1.237  29.216  1.00  0.00     0.001 A 
HETATM   11  C10 UNK     1      20.191  -1.995  30.376  1.00  0.00     0.003 A 
ENDROOT
BRANCH   5  12
HETATM   12  C8  UNK     1      18.215   4.070  31.415  1.00  0.00     0.175 C 
HETATM   13  O3  UNK     1      17.145   4.453  31.890  1.00  0.00    -0.291 OA
BRANCH  12  14
HETATM   14  C11 UNK     1      19.230   5.000  30.794  1.00  0.00     0.169 C 
HETATM   15 Br1  UNK     1      19.922   6.184  32.165  1.00  0.00    -0.088 Br
ENDBRANCH  12  14
ENDBRANCH   5  12
TORSDOF 2
ENDMDL
MODEL 3
REMARK VINA RESULT:      -6.9      3.398      4.390
REMARK  2 active torsions:
REMARK  status: ('A' for Active; 'I' for Inactive)
REMARK    1  A    between atoms: C3_7  and  C8_12 
REMARK    2  A    between atoms: C11_15  and  C8_12 
ROOT
HETATM    1  O1  UNK     1      18.913   0.738  28.523  1.00  0.00    -0.274 OA
HETATM    2  O2  UNK     1      17.981   2.795  28.180  1.00  0.00    -0.259 OA
HETATM    3  C1  UNK     1      19.720   0.142  30.738  1.00  0.00    -0.001 A 
HETATM    4  C2  UNK     1      19.515  -0.185  29.402  1.00  0.00     0.089 A 
HETATM    5  C3  UNK     1      18.732   2.323  30.377  1.00  0.00     0.087 A 
HETATM    6  C4  UNK     1      19.304   1.451  31.215  1.00  0.00     0.035 A 
HETATM    7  C5  UNK     1      20.321  -0.800  31.578  1.00  0.00     0.014 A 
HETATM    8  C6  UNK     1      18.503   1.998  28.951  1.00  0.00     0.302 A 
HETATM    9  C7  UNK     1      19.893  -1.421  28.882  1.00  0.00     0.038 A 
HETATM   10  C9  UNK     1      20.704  -2.045  31.071  1.00  0.00     0.001 A 
HETATM   11  C10 UNK     1      20.491  -2.355  29.726  1.00  0.00     0.003 A 
ENDROOT
BRANCH   5  12
HETATM   12  C8  UNK     1      18.345   3.618  30.951  1.00  0.00     0.175 C 
HETATM   13  O3  UNK     1      17.452   3.671  31.797  1.00  0.00    -0.291 OA
BRANCH  12  14
HETATM   14  C11 UNK     1      19.123   4.826  30.486  1.00  0.00     0.169 C 
HETATM   15 Br1  UNK     1      19.040   6.194  31.857  1.00  0.00    -0.088 Br
ENDBRANCH  12  14
ENDBRANCH   5  12
TORSDOF 2
ENDMDL
MODEL 4
REMARK VINA RESULT:      -6.8     15.139     16.901
REMARK  2 active torsions:
REMARK  status: ('A' for Active; 'I' for Inactive)
REMARK    1  A    between atoms: C3_7  and  C8_12 
REMARK    2  A    between atoms: C11_15  and  C8_12 
ROOT
HETATM    1  O1  UNK     1      19.264   1.000  15.354  1.00  0.00    -0.274 OA
HETATM    2  O2  UNK     1      19.274  -0.568  13.693  1.00  0.00    -0.259 OA
HETATM    3  C1  UNK     1      18.892   0.308  17.656  1.00  0.00    -0.001 A 
HETATM    4  C2  UNK     1      19.133   1.311  16.722  1.00  0.00     0.089 A 
HETATM    5  C3  UNK     1      18.903  -1.358  15.897  1.00  0.00     0.087 A 
HETATM    6  C4  UNK     1      18.777  -1.068  17.197  1.00  0.00     0.035 A 
HETATM    7  C5  UNK     1      18.768   0.656  19.003  1.00  0.00     0.014 A 
HETATM    8  C6  UNK     1      19.160  -0.307  14.886  1.00  0.00     0.302 A 
HETATM    9  C7  UNK     1      19.252   2.648  17.096  1.00  0.00     0.038 A 
HETATM   10  C9  UNK     1      18.886   1.993  19.393  1.00  0.00     0.001 A 
HETATM   11  C10 UNK     1      19.127   2.987  18.442  1.00  0.00     0.003 A 
ENDROOT
BRANCH   5  12
HETATM   12  C8  UNK     1      18.773  -2.773  15.531  1.00  0.00     0.175 C 
HETATM   13  O3  UNK     1      17.684  -3.211  15.156  1.00  0.00    -0.291 OA
BRANCH  12  14
HETATM   14  C11 UNK     1      20.028  -3.610  15.596  1.00  0.00     0.169 C 
HETATM   15 Br1  UNK     1      19.546  -5.481  15.443  1.00  0.00    -0.088 Br
ENDBRANCH  12  14
ENDBRANCH   5  12
TORSDOF 2
ENDMDL
MODEL 5
REMARK VINA RESULT:      -6.7      4.193      6.260
REMARK  2 active torsions:
REMARK  status: ('A' for Active; 'I' for Inactive)
REMARK    1  A    between atoms: C3_7  and  C8_12 
REMARK    2  A    between atoms: C11_15  and  C8_12 
ROOT
HETATM    1  O1  UNK     1      18.012   3.307  33.399  1.00  0.00    -0.274 OA
HETATM    2  O2  UNK     1      18.120   1.047  33.086  1.00  0.00    -0.259 OA
HETATM    3  C1  UNK     1      18.464   4.799  31.532  1.00  0.00    -0.001 A 
HETATM    4  C2  UNK     1      18.129   4.608  32.869  1.00  0.00     0.089 A 
HETATM    5  C3  UNK     1      18.578   2.403  31.198  1.00  0.00     0.087 A 
HETATM    6  C4  UNK     1      18.691   3.636  30.690  1.00  0.00     0.035 A 
HETATM    7  C5  UNK     1      18.571   6.104  31.045  1.00  0.00     0.014 A 
HETATM    8  C6  UNK     1      18.223   2.175  32.617  1.00  0.00     0.302 A 
HETATM    9  C7  UNK     1      17.901   5.679  33.730  1.00  0.00     0.038 A 
HETATM   10  C9  UNK     1      18.343   7.189  31.895  1.00  0.00     0.001 A 
HETATM   11  C10 UNK     1      18.009   6.978  33.235  1.00  0.00     0.003 A 
ENDROOT
BRANCH   5  12
HETATM   12  C8  UNK     1      18.826   1.293  30.270  1.00  0.00     0.175 C 
HETATM   13  O3  UNK     1      18.055   1.097  29.329  1.00  0.00    -0.291 OA
BRANCH  12  14
HETATM   14  C11 UNK     1      20.070   0.472  30.511  1.00  0.00     0.169 C 
HETATM   15 Br1  UNK     1      20.370  -0.681  28.981  1.00  0.00    -0.088 Br
ENDBRANCH  12  14
ENDBRANCH   5  12
TORSDOF 2
ENDMDL
MODEL 6
REMARK VINA RESULT:      -6.7     24.649     26.333
REMARK  2 active torsions:
REMARK  status: ('A' for Active; 'I' for Inactive)
REMARK    1  A    between atoms: C3_7  and  C8_12 
REMARK    2  A    between atoms: C11_15  and  C8_12 
ROOT
HETATM    1  O1  UNK     1      11.164   7.173   9.487  1.00  0.00    -0.274 OA
HETATM    2  O2  UNK     1      12.869   7.468  10.978  1.00  0.00    -0.259 OA
HETATM    3  C1  UNK     1      11.659   6.395   7.237  1.00  0.00    -0.001 A 
HETATM    4  C2  UNK     1      10.738   6.804   8.195  1.00  0.00     0.089 A 
HETATM    5  C3  UNK     1      13.469   6.706   8.816  1.00  0.00     0.087 A 
HETATM    6  C4  UNK     1      13.070   6.355   7.588  1.00  0.00     0.035 A 
HETATM    7  C5  UNK     1      11.198   6.037   5.967  1.00  0.00     0.014 A 
HETATM    8  C6  UNK     1      12.507   7.144   9.852  1.00  0.00     0.302 A 
HETATM    9  C7  UNK     1       9.373   6.866   7.922  1.00  0.00     0.038 A 
HETATM   10  C9  UNK     1       9.831   6.092   5.679  1.00  0.00     0.001 A 
HETATM   11  C10 UNK     1       8.921   6.506   6.654  1.00  0.00     0.003 A 
ENDROOT
BRANCH   5  12
HETATM   12  C8  UNK     1      14.912   6.633   9.076  1.00  0.00     0.175 C 
HETATM   13  O3  UNK     1      15.515   5.574   8.892  1.00  0.00    -0.291 OA
BRANCH  12  14
HETATM   14  C11 UNK     1      15.588   7.909   9.518  1.00  0.00     0.169 C 
HETATM   15 Br1  UNK     1      17.291   7.469  10.332  1.00  0.00    -0.088 Br
ENDBRANCH  12  14
ENDBRANCH   5  12
TORSDOF 2
ENDMDL
MODEL 7
REMARK VINA RESULT:      -6.6      1.266      1.266
REMARK  2 active torsions:
REMARK  status: ('A' for Active; 'I' for Inactive)
REMARK    1  A    between atoms: C3_7  and  C8_12 
REMARK    2  A    between atoms: C11_15  and  C8_12 
ROOT
HETATM    1  O1  UNK     1      18.534   1.188  32.177  1.00  0.00    -0.274 OA
HETATM    2  O2  UNK     1      17.637   1.603  34.236  1.00  0.00    -0.259 OA
HETATM    3  C1  UNK     1      19.509  -0.991  31.710  1.00  0.00    -0.001 A 
HETATM    4  C2  UNK     1      19.181   0.297  31.297  1.00  0.00     0.089 A 
HETATM    5  C3  UNK     1      18.558  -0.553  33.895  1.00  0.00     0.087 A 
HETATM    6  C4  UNK     1      19.173  -1.403  33.064  1.00  0.00     0.035 A 
HETATM    7  C5  UNK     1      20.151  -1.845  30.810  1.00  0.00     0.014 A 
HETATM    8  C6  UNK     1      18.199   0.821  33.478  1.00  0.00     0.302 A 
HETATM    9  C7  UNK     1      19.477   0.754  30.015  1.00  0.00     0.038 A 
HETATM   10  C9  UNK     1      20.452  -1.401  29.519  1.00  0.00     0.001 A 
HETATM   11  C10 UNK     1      20.116  -0.104  29.122  1.00  0.00     0.003 A 
ENDROOT
BRANCH   5  12
HETATM   12  C8  UNK     1      18.260  -1.060  35.239  1.00  0.00     0.175 C 
HETATM   13  O3  UNK     1      17.094  -1.286  35.565  1.00  0.00    -0.291 OA
BRANCH  12  14
HETATM   14  C11 UNK     1      19.442  -1.325  36.142  1.00  0.00     0.169 C 
HETATM   15 Br1  UNK     1      19.367  -3.162  36.755  1.00  0.00    -0.088 Br
ENDBRANCH  12  14
ENDBRANCH   5  12
TORSDOF 2
ENDMDL
MODEL 8
REMARK VINA RESULT:      -6.6      7.217      8.092
REMARK  2 active torsions:
REMARK  status: ('A' for Active; 'I' for Inactive)
REMARK    1  A    between atoms: C3_7  and  C8_12 
REMARK    2  A    between atoms: C11_15  and  C8_12 
ROOT
HETATM    1  O1  UNK     1      18.624   7.009  34.032  1.00  0.00    -0.274 OA
HETATM    2  O2  UNK     1      17.037   7.761  35.493  1.00  0.00    -0.259 OA
HETATM    3  C1  UNK     1      18.056   6.725  31.685  1.00  0.00    -0.001 A 
HETATM    4  C2  UNK     1      18.984   6.649  32.718  1.00  0.00     0.089 A 
HETATM    5  C3  UNK     1      16.371   7.523  33.231  1.00  0.00     0.087 A 
HETATM    6  C4  UNK     1      16.707   7.181  31.982  1.00  0.00     0.035 A 
HETATM    7  C5  UNK     1      18.451   6.358  30.396  1.00  0.00     0.014 A 
HETATM    8  C6  UNK     1      17.342   7.451  34.347  1.00  0.00     0.302 A 
HETATM    9  C7  UNK     1      20.291   6.218  32.501  1.00  0.00     0.038 A 
HETATM   10  C9  UNK     1      19.759   5.926  30.162  1.00  0.00     0.001 A 
HETATM   11  C10 UNK     1      20.677   5.855  31.212  1.00  0.00     0.003 A 
ENDROOT
BRANCH   5  12
HETATM   12  C8  UNK     1      14.988   7.972  33.432  1.00  0.00     0.175 C 
HETATM   13  O3  UNK     1      14.142   7.181  33.854  1.00  0.00    -0.291 OA
BRANCH  12  14
HETATM   14  C11 UNK     1      14.697   9.425  33.145  1.00  0.00     0.169 C 
HETATM   15 Br1  UNK     1      14.423  10.356  34.823  1.00  0.00    -0.088 Br
ENDBRANCH  12  14
ENDBRANCH   5  12
TORSDOF 2
ENDMDL
MODEL 9
REMARK VINA RESULT:      -6.5      4.240      6.035
REMARK  2 active torsions:
REMARK  status: ('A' for Active; 'I' for Inactive)
REMARK    1  A    between atoms: C3_7  and  C8_12 
REMARK    2  A    between atoms: C11_15  and  C8_12 
ROOT
HETATM    1  O1  UNK     1      19.552  -1.147  34.708  1.00  0.00    -0.274 OA
HETATM    2  O2  UNK     1      20.683  -3.041  34.118  1.00  0.00    -0.259 OA
HETATM    3  C1  UNK     1      18.533  -0.995  36.911  1.00  0.00    -0.001 A 
HETATM    4  C2  UNK     1      18.808  -0.433  35.668  1.00  0.00     0.089 A 
HETATM    5  C3  UNK     1      19.732  -3.005  36.288  1.00  0.00     0.087 A 
HETATM    6  C4  UNK     1      19.025  -2.332  37.203  1.00  0.00     0.035 A 
HETATM    7  C5  UNK     1      17.792  -0.256  37.836  1.00  0.00     0.014 A 
HETATM    8  C6  UNK     1      20.037  -2.427  34.959  1.00  0.00     0.302 A 
HETATM    9  C7  UNK     1      18.364   0.843  35.325  1.00  0.00     0.038 A 
HETATM   10  C9  UNK     1      17.341   1.025  37.507  1.00  0.00     0.001 A 
HETATM   11  C10 UNK     1      17.626   1.573  36.254  1.00  0.00     0.003 A 
ENDROOT
BRANCH   5  12
HETATM   12  C8  UNK     1      20.186  -4.347  36.675  1.00  0.00     0.175 C 
HETATM   13  O3  UNK     1      21.302  -4.495  37.176  1.00  0.00    -0.291 OA
BRANCH  12  14
HETATM   14  C11 UNK     1      19.208  -5.479  36.471  1.00  0.00     0.169 C 
HETATM   15 Br1  UNK     1      19.889  -6.657  35.090  1.00  0.00    -0.088 Br
ENDBRANCH  12  14
ENDBRANCH   5  12
TORSDOF 2
ENDMDL
MODEL 10
REMARK VINA RESULT:      -6.4      3.197      4.587
REMARK  2 active torsions:
REMARK  status: ('A' for Active; 'I' for Inactive)
REMARK    1  A    between atoms: C3_7  and  C8_12 
REMARK    2  A    between atoms: C11_15  and  C8_12 
ROOT
HETATM    1  O1  UNK     1      18.905   2.498  30.879  1.00  0.00    -0.274 OA
HETATM    2  O2  UNK     1      18.733   0.396  31.757  1.00  0.00    -0.259 OA
HETATM    3  C1  UNK     1      18.346   4.423  32.256  1.00  0.00    -0.001 A 
HETATM    4  C2  UNK     1      18.773   3.891  31.043  1.00  0.00     0.089 A 
HETATM    5  C3  UNK     1      18.162   2.195  33.190  1.00  0.00     0.087 A 
HETATM    6  C4  UNK     1      18.035   3.517  33.351  1.00  0.00     0.035 A 
HETATM    7  C5  UNK     1      18.227   5.809  32.380  1.00  0.00     0.014 A 
HETATM    8  C6  UNK     1      18.616   1.607  31.910  1.00  0.00     0.302 A 
HETATM    9  C7  UNK     1      19.085   4.703  29.955  1.00  0.00     0.038 A 
HETATM   10  C9  UNK     1      18.537   6.637  31.297  1.00  0.00     0.001 A 
HETATM   11  C10 UNK     1      18.965   6.085  30.087  1.00  0.00     0.003 A 
ENDROOT
BRANCH   5  12
HETATM   12  C8  UNK     1      17.827   1.364  34.352  1.00  0.00     0.175 C 
HETATM   13  O3  UNK     1      16.838   0.629  34.315  1.00  0.00    -0.291 OA
BRANCH  12  14
HETATM   14  C11 UNK     1      18.769   1.431  35.530  1.00  0.00     0.169 C 
HETATM   15 Br1  UNK     1      17.731   1.435  37.167  1.00  0.00    -0.088 Br
ENDBRANCH  12  14
ENDBRANCH   5  12
TORSDOF 2
ENDMDL
