MODEL 1
REMARK VINA RESULT:      -9.4      0.000      0.000
REMARK  2 active torsions:
REMARK  status: ('A' for Active; 'I' for Inactive)
REMARK       I    between atoms: C5_11  and  N1_6 
REMARK    1  A    between atoms: C7_13  and  N1_6 
REMARK    2  A    between atoms: C2_8  and  C5_11 
ROOT
HETATM    1  O2  UNK     1      17.610   3.433  32.846  1.00  0.00    -0.267 OA
HETATM    2  N1  UNK     1      18.846   4.891  31.463  1.00  0.00    -0.320 N 
HETATM    3  C5  UNK     1      18.320   3.674  31.872  1.00  0.00     0.262 C 
HETATM    4  H3  UNK     1      19.404   4.928  30.613  1.00  0.00     0.169 HD
ENDROOT
BRANCH   3   5
HETATM    5  C2  UNK     1      18.710   2.580  30.974  1.00  0.00     0.108 A 
HETATM    6  C4  UNK     1      19.131   1.454  31.562  1.00  0.00     0.037 A 
HETATM    7  C1  UNK     1      19.540   0.314  30.756  1.00  0.00    -0.001 A 
HETATM    8  C3  UNK     1      19.485   0.417  29.369  1.00  0.00     0.089 A 
HETATM    9  C6  UNK     1      19.985  -0.881  31.326  1.00  0.00     0.014 A 
HETATM   10  O1  UNK     1      19.041   1.605  28.757  1.00  0.00    -0.274 OA
HETATM   11  C9  UNK     1      19.862  -0.638  28.540  1.00  0.00     0.038 A 
HETATM   12  C8  UNK     1      18.643   2.711  29.501  1.00  0.00     0.304 A 
HETATM   13  O3  UNK     1      18.259   3.741  28.959  1.00  0.00    -0.259 OA
HETATM   14  C11 UNK     1      20.305  -1.826  29.116  1.00  0.00     0.003 A 
HETATM   15  C10 UNK     1      20.367  -1.947  30.507  1.00  0.00     0.001 A 
ENDBRANCH   3   5
BRANCH   2  16
HETATM   16  C7  UNK     1      18.664   6.123  32.098  1.00  0.00     0.074 A 
HETATM   17  C12 UNK     1      19.668   6.643  32.913  1.00  0.00     0.146 A 
HETATM   18  F1  UNK     1      20.814   5.973  33.096  1.00  0.00    -0.204 F 
HETATM   19  C14 UNK     1      19.483   7.873  33.546  1.00  0.00     0.086 A 
HETATM   20  C16 UNK     1      18.294   8.579  33.362  1.00  0.00     0.119 A 
HETATM   21  C15 UNK     1      17.291   8.057  32.547  1.00  0.00     0.044 A 
HETATM   22  F2  UNK     1      18.116   9.759  33.970  1.00  0.00    -0.206 F 
HETATM   23  C13 UNK     1      17.476   6.827  31.913  1.00  0.00     0.036 A 
ENDBRANCH   2  16
TORSDOF 2
ENDMDL
MODEL 2
REMARK VINA RESULT:      -9.4      8.515     11.834
REMARK  2 active torsions:
REMARK  status: ('A' for Active; 'I' for Inactive)
REMARK       I    between atoms: C5_11  and  N1_6 
REMARK    1  A    between atoms: C7_13  and  N1_6 
REMARK    2  A    between atoms: C2_8  and  C5_11 
ROOT
HETATM    1  O2  UNK     1      21.218  -4.527  36.915  1.00  0.00    -0.267 OA
HETATM    2  N1  UNK     1      18.947  -5.143  36.749  1.00  0.00    -0.320 N 
HETATM    3  C5  UNK     1      20.034  -4.284  36.689  1.00  0.00     0.262 C 
HETATM    4  H3  UNK     1      18.023  -4.790  36.510  1.00  0.00     0.169 HD
ENDROOT
BRANCH   3   5
HETATM    5  C2  UNK     1      19.636  -2.925  36.300  1.00  0.00     0.108 A 
HETATM    6  C4  UNK     1      18.932  -2.234  37.204  1.00  0.00     0.037 A 
HETATM    7  C1  UNK     1      18.491  -0.879  36.910  1.00  0.00    -0.001 A 
HETATM    8  C3  UNK     1      18.813  -0.319  35.678  1.00  0.00     0.089 A 
HETATM    9  C6  UNK     1      17.754  -0.121  37.823  1.00  0.00     0.014 A 
HETATM   10  O1  UNK     1      19.555  -1.052  34.731  1.00  0.00    -0.274 OA
HETATM   11  C9  UNK     1      18.422   0.973  35.335  1.00  0.00     0.038 A 
HETATM   12  C8  UNK     1      19.991  -2.349  34.983  1.00  0.00     0.304 A 
HETATM   13  O3  UNK     1      20.635  -2.979  34.152  1.00  0.00    -0.259 OA
HETATM   14  C11 UNK     1      17.687   1.723  36.251  1.00  0.00     0.003 A 
HETATM   15  C10 UNK     1      17.354   1.177  37.493  1.00  0.00     0.001 A 
ENDBRANCH   3   5
BRANCH   2  16
HETATM   16  C7  UNK     1      18.985  -6.499  37.088  1.00  0.00     0.074 A 
HETATM   17  C12 UNK     1      18.654  -7.465  36.140  1.00  0.00     0.146 A 
HETATM   18  F1  UNK     1      18.297  -7.109  34.898  1.00  0.00    -0.204 F 
HETATM   19  C14 UNK     1      18.692  -8.817  36.482  1.00  0.00     0.086 A 
HETATM   20  C16 UNK     1      19.062  -9.200  37.772  1.00  0.00     0.119 A 
HETATM   21  C15 UNK     1      19.393  -8.232  38.719  1.00  0.00     0.044 A 
HETATM   22  F2  UNK     1      19.098 -10.497  38.100  1.00  0.00    -0.206 F 
HETATM   23  C13 UNK     1      19.355  -6.879  38.377  1.00  0.00     0.036 A 
ENDBRANCH   2  16
TORSDOF 2
ENDMDL
MODEL 3
REMARK VINA RESULT:      -9.2     13.738     16.200
REMARK  2 active torsions:
REMARK  status: ('A' for Active; 'I' for Inactive)
REMARK       I    between atoms: C5_11  and  N1_6 
REMARK    1  A    between atoms: C7_13  and  N1_6 
REMARK    2  A    between atoms: C2_8  and  C5_11 
ROOT
HETATM    1  O2  UNK     1      17.119  -1.658  17.104  1.00  0.00    -0.267 OA
HETATM    2  N1  UNK     1      19.217  -0.583  17.016  1.00  0.00    -0.320 N 
HETATM    3  C5  UNK     1      18.202  -1.420  16.574  1.00  0.00     0.262 C 
HETATM    4  H3  UNK     1      20.053  -0.476  16.446  1.00  0.00     0.169 HD
ENDROOT
BRANCH   3   5
HETATM    5  C2  UNK     1      18.544  -2.070  15.303  1.00  0.00     0.108 A 
HETATM    6  C4  UNK     1      18.260  -3.375  15.211  1.00  0.00     0.037 A 
HETATM    7  C1  UNK     1      18.562  -4.107  13.991  1.00  0.00    -0.001 A 
HETATM    8  C3  UNK     1      19.149  -3.429  12.927  1.00  0.00     0.089 A 
HETATM    9  C6  UNK     1      18.284  -5.469  13.851  1.00  0.00     0.014 A 
HETATM   10  O1  UNK     1      19.444  -2.055  13.030  1.00  0.00    -0.274 OA
HETATM   11  C9  UNK     1      19.463  -4.071  11.732  1.00  0.00     0.038 A 
HETATM   12  C8  UNK     1      19.167  -1.328  14.184  1.00  0.00     0.304 A 
HETATM   13  O3  UNK     1      19.429  -0.133  14.264  1.00  0.00    -0.259 OA
HETATM   14  C11 UNK     1      19.182  -5.429  11.600  1.00  0.00     0.003 A 
HETATM   15  C10 UNK     1      18.594  -6.127  12.658  1.00  0.00     0.001 A 
ENDBRANCH   3   5
BRANCH   2  16
HETATM   16  C7  UNK     1      19.206   0.179  18.187  1.00  0.00     0.074 A 
HETATM   17  C12 UNK     1      19.040   1.561  18.120  1.00  0.00     0.146 A 
HETATM   18  F1  UNK     1      18.889   2.173  16.937  1.00  0.00    -0.204 F 
HETATM   19  C14 UNK     1      19.031   2.319  19.291  1.00  0.00     0.086 A 
HETATM   20  C16 UNK     1      19.188   1.693  20.528  1.00  0.00     0.119 A 
HETATM   21  C15 UNK     1      19.354   0.309  20.594  1.00  0.00     0.044 A 
HETATM   22  F2  UNK     1      19.179   2.419  21.652  1.00  0.00    -0.206 F 
HETATM   23  C13 UNK     1      19.363  -0.449  19.422  1.00  0.00     0.036 A 
ENDBRANCH   2  16
TORSDOF 2
ENDMDL
MODEL 4
REMARK VINA RESULT:      -9.1      8.594     11.702
REMARK  2 active torsions:
REMARK  status: ('A' for Active; 'I' for Inactive)
REMARK       I    between atoms: C5_11  and  N1_6 
REMARK    1  A    between atoms: C7_13  and  N1_6 
REMARK    2  A    between atoms: C2_8  and  C5_11 
ROOT
HETATM    1  O2  UNK     1      20.123  -5.175  35.448  1.00  0.00    -0.267 OA
HETATM    2  N1  UNK     1      20.172  -4.626  37.741  1.00  0.00    -0.320 N 
HETATM    3  C5  UNK     1      20.004  -4.388  36.385  1.00  0.00     0.262 C 
HETATM    4  H3  UNK     1      20.015  -3.867  38.400  1.00  0.00     0.169 HD
ENDROOT
BRANCH   3   5
HETATM    5  C2  UNK     1      19.639  -2.992  36.116  1.00  0.00     0.108 A 
HETATM    6  C4  UNK     1      18.904  -2.382  37.054  1.00  0.00     0.037 A 
HETATM    7  C1  UNK     1      18.492  -0.999  36.877  1.00  0.00    -0.001 A 
HETATM    8  C3  UNK     1      18.873  -0.325  35.721  1.00  0.00     0.089 A 
HETATM    9  C6  UNK     1      17.725  -0.323  37.829  1.00  0.00     0.014 A 
HETATM   10  O1  UNK     1      19.647  -0.972  34.738  1.00  0.00    -0.274 OA
HETATM   11  C9  UNK     1      18.512   1.001  35.491  1.00  0.00     0.038 A 
HETATM   12  C8  UNK     1      20.056  -2.296  34.879  1.00  0.00     0.304 A 
HETATM   13  O3  UNK     1      20.729  -2.851  34.017  1.00  0.00    -0.259 OA
HETATM   14  C11 UNK     1      17.747   1.668  36.445  1.00  0.00     0.003 A 
HETATM   15  C10 UNK     1      17.354   1.007  37.612  1.00  0.00     0.001 A 
ENDBRANCH   3   5
BRANCH   2  16
HETATM   16  C7  UNK     1      20.520  -5.847  38.328  1.00  0.00     0.074 A 
HETATM   17  C12 UNK     1      21.845  -6.102  38.674  1.00  0.00     0.146 A 
HETATM   18  F1  UNK     1      22.798  -5.186  38.451  1.00  0.00    -0.204 F 
HETATM   19  C14 UNK     1      22.189  -7.322  39.258  1.00  0.00     0.086 A 
HETATM   20  C16 UNK     1      21.206  -8.283  39.495  1.00  0.00     0.119 A 
HETATM   21  C15 UNK     1      19.880  -8.025  39.148  1.00  0.00     0.044 A 
HETATM   22  F2  UNK     1      21.536  -9.453  40.055  1.00  0.00    -0.206 F 
HETATM   23  C13 UNK     1      19.536  -6.806  38.564  1.00  0.00     0.036 A 
ENDBRANCH   2  16
TORSDOF 2
ENDMDL
MODEL 5
REMARK VINA RESULT:      -9.0      8.457     10.252
REMARK  2 active torsions:
REMARK  status: ('A' for Active; 'I' for Inactive)
REMARK       I    between atoms: C5_11  and  N1_6 
REMARK    1  A    between atoms: C7_13  and  N1_6 
REMARK    2  A    between atoms: C2_8  and  C5_11 
ROOT
HETATM    1  O2  UNK     1      21.073  -3.522  37.612  1.00  0.00    -0.267 OA
HETATM    2  N1  UNK     1      18.917  -3.496  36.654  1.00  0.00    -0.320 N 
HETATM    3  C5  UNK     1      20.082  -4.074  37.137  1.00  0.00     0.262 C 
HETATM    4  H3  UNK     1      18.173  -4.097  36.309  1.00  0.00     0.169 HD
ENDROOT
BRANCH   3   5
HETATM    5  C2  UNK     1      20.052  -5.537  37.029  1.00  0.00     0.108 A 
HETATM    6  C4  UNK     1      19.960  -6.213  38.181  1.00  0.00     0.037 A 
HETATM    7  C1  UNK     1      19.924  -7.667  38.177  1.00  0.00    -0.001 A 
HETATM    8  C3  UNK     1      19.987  -8.339  36.960  1.00  0.00     0.089 A 
HETATM    9  C6  UNK     1      19.828  -8.413  39.354  1.00  0.00     0.014 A 
HETATM   10  O1  UNK     1      20.084  -7.622  35.751  1.00  0.00    -0.274 OA
HETATM   11  C9  UNK     1      19.957  -9.729  36.887  1.00  0.00     0.038 A 
HETATM   12  C8  UNK     1      20.121  -6.230  35.723  1.00  0.00     0.304 A 
HETATM   13  O3  UNK     1      20.207  -5.616  34.666  1.00  0.00    -0.259 OA
HETATM   14  C11 UNK     1      19.862 -10.466  38.065  1.00  0.00     0.003 A 
HETATM   15  C10 UNK     1      19.797  -9.809  39.297  1.00  0.00     0.001 A 
ENDBRANCH   3   5
BRANCH   2  16
HETATM   16  C7  UNK     1      18.630  -2.128  36.614  1.00  0.00     0.074 A 
HETATM   17  C12 UNK     1      18.956  -1.380  35.486  1.00  0.00     0.146 A 
HETATM   18  F1  UNK     1      19.545  -1.957  34.429  1.00  0.00    -0.204 F 
HETATM   19  C14 UNK     1      18.669  -0.015  35.449  1.00  0.00     0.086 A 
HETATM   20  C16 UNK     1      18.056   0.598  36.543  1.00  0.00     0.119 A 
HETATM   21  C15 UNK     1      17.730  -0.153  37.672  1.00  0.00     0.044 A 
HETATM   22  F2  UNK     1      17.780   1.908  36.508  1.00  0.00    -0.206 F 
HETATM   23  C13 UNK     1      18.017  -1.518  37.708  1.00  0.00     0.036 A 
ENDBRANCH   2  16
TORSDOF 2
ENDMDL
MODEL 6
REMARK VINA RESULT:      -9.0      1.455      2.220
REMARK  2 active torsions:
REMARK  status: ('A' for Active; 'I' for Inactive)
REMARK       I    between atoms: C5_11  and  N1_6 
REMARK    1  A    between atoms: C7_13  and  N1_6 
REMARK    2  A    between atoms: C2_8  and  C5_11 
ROOT
HETATM    1  O2  UNK     1      17.276   4.271  31.245  1.00  0.00    -0.267 OA
HETATM    2  N1  UNK     1      18.704   4.471  33.112  1.00  0.00    -0.320 N 
HETATM    3  C5  UNK     1      18.084   3.821  32.054  1.00  0.00     0.262 C 
HETATM    4  H3  UNK     1      19.372   3.960  33.684  1.00  0.00     0.169 HD
ENDROOT
BRANCH   3   5
HETATM    5  C2  UNK     1      18.499   2.416  31.958  1.00  0.00     0.108 A 
HETATM    6  C4  UNK     1      19.006   2.029  30.780  1.00  0.00     0.037 A 
HETATM    7  C1  UNK     1      19.444   0.655  30.587  1.00  0.00    -0.001 A 
HETATM    8  C3  UNK     1      19.327  -0.243  31.643  1.00  0.00     0.089 A 
HETATM    9  C6  UNK     1      19.978   0.207  29.377  1.00  0.00     0.014 A 
HETATM   10  O1  UNK     1      18.794   0.171  32.879  1.00  0.00    -0.274 OA
HETATM   11  C9  UNK     1      19.728  -1.572  31.524  1.00  0.00     0.038 A 
HETATM   12  C8  UNK     1      18.366   1.478  33.094  1.00  0.00     0.304 A 
HETATM   13  O3  UNK     1      17.902   1.828  34.174  1.00  0.00    -0.259 OA
HETATM   14  C11 UNK     1      20.260  -2.012  30.313  1.00  0.00     0.003 A 
HETATM   15  C10 UNK     1      20.385  -1.123  29.242  1.00  0.00     0.001 A 
ENDBRANCH   3   5
BRANCH   2  16
HETATM   16  C7  UNK     1      18.526   5.809  33.475  1.00  0.00     0.074 A 
HETATM   17  C12 UNK     1      19.599   6.697  33.416  1.00  0.00     0.146 A 
HETATM   18  F1  UNK     1      20.807   6.282  33.010  1.00  0.00    -0.204 F 
HETATM   19  C14 UNK     1      19.418   8.032  33.780  1.00  0.00     0.086 A 
HETATM   20  C16 UNK     1      18.165   8.475  34.203  1.00  0.00     0.119 A 
HETATM   21  C15 UNK     1      17.093   7.585  34.262  1.00  0.00     0.044 A 
HETATM   22  F2  UNK     1      17.991   9.756  34.553  1.00  0.00    -0.206 F 
HETATM   23  C13 UNK     1      17.273   6.250  33.898  1.00  0.00     0.036 A 
ENDBRANCH   2  16
TORSDOF 2
ENDMDL
MODEL 7
REMARK VINA RESULT:      -9.0      2.861      7.926
REMARK  2 active torsions:
REMARK  status: ('A' for Active; 'I' for Inactive)
REMARK       I    between atoms: C5_11  and  N1_6 
REMARK    1  A    between atoms: C7_13  and  N1_6 
REMARK    2  A    between atoms: C2_8  and  C5_11 
ROOT
HETATM    1  O2  UNK     1      19.604   4.855  30.389  1.00  0.00    -0.267 OA
HETATM    2  N1  UNK     1      18.283   3.101  31.250  1.00  0.00    -0.320 N 
HETATM    3  C5  UNK     1      18.732   4.408  31.131  1.00  0.00     0.262 C 
HETATM    4  H3  UNK     1      17.531   2.893  31.903  1.00  0.00     0.169 HD
ENDROOT
BRANCH   3   5
HETATM    5  C2  UNK     1      18.025   5.314  32.045  1.00  0.00     0.108 A 
HETATM    6  C4  UNK     1      17.362   6.328  31.476  1.00  0.00     0.037 A 
HETATM    7  C1  UNK     1      16.632   7.280  32.299  1.00  0.00    -0.001 A 
HETATM    8  C3  UNK     1      16.636   7.117  33.680  1.00  0.00     0.089 A 
HETATM    9  C6  UNK     1      15.926   8.352  31.748  1.00  0.00     0.014 A 
HETATM   10  O1  UNK     1      17.336   6.048  34.273  1.00  0.00    -0.274 OA
HETATM   11  C9  UNK     1      15.957   7.993  34.524  1.00  0.00     0.038 A 
HETATM   12  C8  UNK     1      18.044   5.121  33.512  1.00  0.00     0.304 A 
HETATM   13  O3  UNK     1      18.651   4.195  34.037  1.00  0.00    -0.259 OA
HETATM   14  C11 UNK     1      15.255   9.060  33.968  1.00  0.00     0.003 A 
HETATM   15  C10 UNK     1      15.240   9.240  32.582  1.00  0.00     0.001 A 
ENDBRANCH   3   5
BRANCH   2  16
HETATM   16  C7  UNK     1      18.748   2.000  30.525  1.00  0.00     0.074 A 
HETATM   17  C12 UNK     1      18.374   1.832  29.194  1.00  0.00     0.146 A 
HETATM   18  F1  UNK     1      17.569   2.720  28.593  1.00  0.00    -0.204 F 
HETATM   19  C14 UNK     1      18.839   0.731  28.473  1.00  0.00     0.086 A 
HETATM   20  C16 UNK     1      19.678  -0.200  29.087  1.00  0.00     0.119 A 
HETATM   21  C15 UNK     1      20.051  -0.030  30.420  1.00  0.00     0.044 A 
HETATM   22  F2  UNK     1      20.124  -1.256  28.396  1.00  0.00    -0.206 F 
HETATM   23  C13 UNK     1      19.586   1.070  31.140  1.00  0.00     0.036 A 
ENDBRANCH   2  16
TORSDOF 2
ENDMDL
MODEL 8
REMARK VINA RESULT:      -8.6      2.931      7.671
REMARK  2 active torsions:
REMARK  status: ('A' for Active; 'I' for Inactive)
REMARK       I    between atoms: C5_11  and  N1_6 
REMARK    1  A    between atoms: C7_13  and  N1_6 
REMARK    2  A    between atoms: C2_8  and  C5_11 
ROOT
HETATM    1  O2  UNK     1      17.697   2.391  32.556  1.00  0.00    -0.267 OA
HETATM    2  N1  UNK     1      18.987   2.892  30.646  1.00  0.00    -0.320 N 
HETATM    3  C5  UNK     1      18.249   3.174  31.786  1.00  0.00     0.262 C 
HETATM    4  H3  UNK     1      19.401   3.659  30.122  1.00  0.00     0.169 HD
ENDROOT
BRANCH   3   5
HETATM    5  C2  UNK     1      18.162   4.618  32.037  1.00  0.00     0.108 A 
HETATM    6  C4  UNK     1      17.616   4.983  33.204  1.00  0.00     0.037 A 
HETATM    7  C1  UNK     1      17.485   6.392  33.543  1.00  0.00    -0.001 A 
HETATM    8  C3  UNK     1      17.935   7.347  32.637  1.00  0.00     0.089 A 
HETATM    9  C6  UNK     1      16.922   6.818  34.748  1.00  0.00     0.014 A 
HETATM   10  O1  UNK     1      18.509   6.956  31.412  1.00  0.00    -0.274 OA
HETATM   11  C9  UNK     1      17.839   8.711  32.901  1.00  0.00     0.038 A 
HETATM   12  C8  UNK     1      18.647   5.616  31.059  1.00  0.00     0.304 A 
HETATM   13  O3  UNK     1      19.147   5.286  29.989  1.00  0.00    -0.259 OA
HETATM   14  C11 UNK     1      17.277   9.129  34.105  1.00  0.00     0.003 A 
HETATM   15  C10 UNK     1      16.819   8.184  35.028  1.00  0.00     0.001 A 
ENDBRANCH   3   5
BRANCH   2  16
HETATM   16  C7  UNK     1      19.256   1.620  30.132  1.00  0.00     0.074 A 
HETATM   17  C12 UNK     1      18.765   1.254  28.881  1.00  0.00     0.146 A 
HETATM   18  F1  UNK     1      18.032   2.112  28.157  1.00  0.00    -0.204 F 
HETATM   19  C14 UNK     1      19.035  -0.016  28.371  1.00  0.00     0.086 A 
HETATM   20  C16 UNK     1      19.796  -0.918  29.115  1.00  0.00     0.119 A 
HETATM   21  C15 UNK     1      20.288  -0.550  30.367  1.00  0.00     0.044 A 
HETATM   22  F2  UNK     1      20.056  -2.137  28.627  1.00  0.00    -0.206 F 
HETATM   23  C13 UNK     1      20.018   0.721  30.877  1.00  0.00     0.036 A 
ENDBRANCH   2  16
TORSDOF 2
ENDMDL
MODEL 9
REMARK VINA RESULT:      -8.6     14.034     16.563
REMARK  2 active torsions:
REMARK  status: ('A' for Active; 'I' for Inactive)
REMARK       I    between atoms: C5_11  and  N1_6 
REMARK    1  A    between atoms: C7_13  and  N1_6 
REMARK    2  A    between atoms: C2_8  and  C5_11 
ROOT
HETATM    1  O2  UNK     1      17.084  -1.821  16.923  1.00  0.00    -0.267 OA
HETATM    2  N1  UNK     1      19.170  -0.724  16.825  1.00  0.00    -0.320 N 
HETATM    3  C5  UNK     1      18.171  -1.587  16.399  1.00  0.00     0.262 C 
HETATM    4  H3  UNK     1      20.012  -0.625  16.263  1.00  0.00     0.169 HD
ENDROOT
BRANCH   3   5
HETATM    5  C2  UNK     1      18.536  -2.273  15.153  1.00  0.00     0.108 A 
HETATM    6  C4  UNK     1      19.276  -1.570  14.287  1.00  0.00     0.037 A 
HETATM    7  C1  UNK     1      19.687  -2.164  13.024  1.00  0.00    -0.001 A 
HETATM    8  C3  UNK     1      19.298  -3.469  12.736  1.00  0.00     0.089 A 
HETATM    9  C6  UNK     1      20.458  -1.469  12.090  1.00  0.00     0.014 A 
HETATM   10  O1  UNK     1      18.520  -4.203  13.652  1.00  0.00    -0.274 OA
HETATM   11  C9  UNK     1      19.658  -4.096  11.545  1.00  0.00     0.038 A 
HETATM   12  C8  UNK     1      18.111  -3.662  14.868  1.00  0.00     0.304 A 
HETATM   13  O3  UNK     1      17.433  -4.308  15.659  1.00  0.00    -0.259 OA
HETATM   14  C11 UNK     1      20.428  -3.396  10.619  1.00  0.00     0.003 A 
HETATM   15  C10 UNK     1      20.827  -2.084  10.891  1.00  0.00     0.001 A 
ENDBRANCH   3   5
BRANCH   2  16
HETATM   16  C7  UNK     1      19.136   0.075  17.972  1.00  0.00     0.074 A 
HETATM   17  C12 UNK     1      19.043   1.461  17.854  1.00  0.00     0.146 A 
HETATM   18  F1  UNK     1      18.984   2.041  16.647  1.00  0.00    -0.204 F 
HETATM   19  C14 UNK     1      19.010   2.256  19.000  1.00  0.00     0.086 A 
HETATM   20  C16 UNK     1      19.070   1.663  20.261  1.00  0.00     0.119 A 
HETATM   21  C15 UNK     1      19.164   0.276  20.377  1.00  0.00     0.044 A 
HETATM   22  F2  UNK     1      19.039   2.425  21.362  1.00  0.00    -0.206 F 
HETATM   23  C13 UNK     1      19.197  -0.519  19.231  1.00  0.00     0.036 A 
ENDBRANCH   2  16
TORSDOF 2
ENDMDL
MODEL 10
REMARK VINA RESULT:      -8.4      8.260     10.200
REMARK  2 active torsions:
REMARK  status: ('A' for Active; 'I' for Inactive)
REMARK       I    between atoms: C5_11  and  N1_6 
REMARK    1  A    between atoms: C7_13  and  N1_6 
REMARK    2  A    between atoms: C2_8  and  C5_11 
ROOT
HETATM    1  O2  UNK     1      21.054  -3.792  36.882  1.00  0.00    -0.267 OA
HETATM    2  N1  UNK     1      18.712  -3.615  36.654  1.00  0.00    -0.320 N 
HETATM    3  C5  UNK     1      19.927  -4.273  36.785  1.00  0.00     0.262 C 
HETATM    4  H3  UNK     1      17.856  -4.162  36.606  1.00  0.00     0.169 HD
ENDROOT
BRANCH   3   5
HETATM    5  C2  UNK     1      19.760  -5.732  36.801  1.00  0.00     0.108 A 
HETATM    6  C4  UNK     1      20.885  -6.456  36.769  1.00  0.00     0.037 A 
HETATM    7  C1  UNK     1      20.823  -7.909  36.780  1.00  0.00    -0.001 A 
HETATM    8  C3  UNK     1      19.578  -8.529  36.824  1.00  0.00     0.089 A 
HETATM    9  C6  UNK     1      21.970  -8.704  36.748  1.00  0.00     0.014 A 
HETATM   10  O1  UNK     1      18.397  -7.761  36.857  1.00  0.00    -0.274 OA
HETATM   11  C9  UNK     1      19.448  -9.915  36.837  1.00  0.00     0.038 A 
HETATM   12  C8  UNK     1      18.425  -6.369  36.847  1.00  0.00     0.304 A 
HETATM   13  O3  UNK     1      17.392  -5.710  36.875  1.00  0.00    -0.259 OA
HETATM   14  C11 UNK     1      20.598 -10.702  36.804  1.00  0.00     0.003 A 
HETATM   15  C10 UNK     1      21.857 -10.097  36.760  1.00  0.00     0.001 A 
ENDBRANCH   3   5
BRANCH   2  16
HETATM   16  C7  UNK     1      18.525  -2.231  36.606  1.00  0.00     0.074 A 
HETATM   17  C12 UNK     1      18.939  -1.509  35.488  1.00  0.00     0.146 A 
HETATM   18  F1  UNK     1      19.517  -2.129  34.450  1.00  0.00    -0.204 F 
HETATM   19  C14 UNK     1      18.752  -0.127  35.444  1.00  0.00     0.086 A 
HETATM   20  C16 UNK     1      18.152   0.530  36.519  1.00  0.00     0.119 A 
HETATM   21  C15 UNK     1      17.738  -0.194  37.637  1.00  0.00     0.044 A 
HETATM   22  F2  UNK     1      17.972   1.856  36.477  1.00  0.00    -0.206 F 
HETATM   23  C13 UNK     1      17.925  -1.577  37.681  1.00  0.00     0.036 A 
ENDBRANCH   2  16
TORSDOF 2
ENDMDL
