MODEL 1
REMARK VINA RESULT:      -6.6      0.000      0.000
REMARK  1 active torsions:
REMARK  status: ('A' for Active; 'I' for Inactive)
REMARK    1  A    between atoms: C8_12  and  O2_3 
ROOT
HETATM    1  I1  UNK     1      20.176  -2.188  33.165  1.00  0.00    -0.039 I 
HETATM    2  O1  UNK     1      18.937   0.661  32.570  1.00  0.00    -0.273 OA
HETATM    3  O3  UNK     1      17.987   2.382  33.737  1.00  0.00    -0.260 OA
HETATM    4  C1  UNK     1      19.170   0.845  30.145  1.00  0.00     0.005 A 
HETATM    5  C2  UNK     1      18.546   2.175  30.212  1.00  0.00    -0.043 A 
HETATM    6  C3  UNK     1      19.345   0.130  31.330  1.00  0.00     0.109 A 
HETATM    7  C4  UNK     1      19.603   0.248  28.954  1.00  0.00     0.017 A 
HETATM    8  C5  UNK     1      19.929  -1.139  31.356  1.00  0.00     0.074 A 
HETATM    9  C6  UNK     1      18.167   2.655  31.404  1.00  0.00     0.090 A 
HETATM   10  C7  UNK     1      18.342   2.970  28.955  1.00  0.00     0.049 C 
HETATM   11  C8  UNK     1      20.353  -1.714  30.162  1.00  0.00     0.085 A 
HETATM   12  C9  UNK     1      20.189  -1.023  28.963  1.00  0.00     0.039 A 
HETATM   13  C10 UNK     1      18.347   1.911  32.663  1.00  0.00     0.288 A 
ENDROOT
BRANCH  11  14
HETATM   14  O2  UNK     1      20.928  -2.949  30.115  1.00  0.00    -0.359 OA
HETATM   15  H7  UNK     1      21.168  -3.228  31.015  1.00  0.00     0.217 HD
ENDBRANCH  11  14
TORSDOF 1
ENDMDL
MODEL 2
REMARK VINA RESULT:      -6.6      2.095      3.075
REMARK  1 active torsions:
REMARK  status: ('A' for Active; 'I' for Inactive)
REMARK    1  A    between atoms: C8_12  and  O2_3 
ROOT
HETATM    1  I1  UNK     1      17.925  -0.242  35.087  1.00  0.00    -0.039 I 
HETATM    2  O1  UNK     1      18.397   0.836  32.150  1.00  0.00    -0.273 OA
HETATM    3  O3  UNK     1      17.715   2.588  30.849  1.00  0.00    -0.260 OA
HETATM    4  C1  UNK     1      19.939  -0.814  31.220  1.00  0.00     0.005 A 
HETATM    5  C2  UNK     1      19.941  -0.063  29.956  1.00  0.00    -0.043 A 
HETATM    6  C3  UNK     1      19.165  -0.339  32.278  1.00  0.00     0.109 A 
HETATM    7  C4  UNK     1      20.674  -1.989  31.428  1.00  0.00     0.017 A 
HETATM    8  C5  UNK     1      19.106  -0.991  33.512  1.00  0.00     0.074 A 
HETATM    9  C6  UNK     1      19.202   1.051  29.862  1.00  0.00     0.090 A 
HETATM   10  C7  UNK     1      20.763  -0.548  28.798  1.00  0.00     0.049 C 
HETATM   11  C8  UNK     1      19.844  -2.156  33.698  1.00  0.00     0.085 A 
HETATM   12  C9  UNK     1      20.625  -2.654  32.658  1.00  0.00     0.039 A 
HETATM   13  C10 UNK     1      18.380   1.565  30.972  1.00  0.00     0.288 A 
ENDROOT
BRANCH  11  14
HETATM   14  O2  UNK     1      19.831  -2.844  34.875  1.00  0.00    -0.359 OA
HETATM   15  H7  UNK     1      19.381  -3.696  34.746  1.00  0.00     0.217 HD
ENDBRANCH  11  14
TORSDOF 1
ENDMDL
MODEL 3
REMARK VINA RESULT:      -6.5      1.796      4.207
REMARK  1 active torsions:
REMARK  status: ('A' for Active; 'I' for Inactive)
REMARK    1  A    between atoms: C8_12  and  O2_3 
ROOT
HETATM    1  I1  UNK     1      18.092   1.736  34.650  1.00  0.00    -0.039 I 
HETATM    2  O1  UNK     1      19.407  -0.528  32.875  1.00  0.00    -0.273 OA
HETATM    3  O3  UNK     1      20.260  -2.631  33.154  1.00  0.00    -0.260 OA
HETATM    4  C1  UNK     1      19.403   0.474  30.647  1.00  0.00     0.005 A 
HETATM    5  C2  UNK     1      20.030  -0.748  30.123  1.00  0.00    -0.043 A 
HETATM    6  C3  UNK     1      19.111   0.544  32.009  1.00  0.00     0.109 A 
HETATM    7  C4  UNK     1      19.077   1.582  29.854  1.00  0.00     0.017 A 
HETATM    8  C5  UNK     1      18.516   1.667  32.588  1.00  0.00     0.074 A 
HETATM    9  C6  UNK     1      20.300  -1.752  30.969  1.00  0.00     0.090 A 
HETATM   10  C7  UNK     1      20.357  -0.856  28.663  1.00  0.00     0.049 C 
HETATM   11  C8  UNK     1      18.200   2.757  31.783  1.00  0.00     0.085 A 
HETATM   12  C9  UNK     1      18.481   2.715  30.419  1.00  0.00     0.039 A 
HETATM   13  C10 UNK     1      19.997  -1.693  32.410  1.00  0.00     0.288 A 
ENDROOT
BRANCH  11  14
HETATM   14  O2  UNK     1      17.620   3.885  32.283  1.00  0.00    -0.359 OA
HETATM   15  H7  UNK     1      16.811   3.645  32.766  1.00  0.00     0.217 HD
ENDBRANCH  11  14
TORSDOF 1
ENDMDL
MODEL 4
REMARK VINA RESULT:      -6.4      2.252      3.164
REMARK  1 active torsions:
REMARK  status: ('A' for Active; 'I' for Inactive)
REMARK    1  A    between atoms: C8_12  and  O2_3 
ROOT
HETATM    1  I1  UNK     1      17.539   0.973  35.751  1.00  0.00    -0.039 I 
HETATM    2  O1  UNK     1      18.028   2.145  32.854  1.00  0.00    -0.273 OA
HETATM    3  O3  UNK     1      17.663   4.098  31.723  1.00  0.00    -0.260 OA
HETATM    4  C1  UNK     1      19.090   0.274  31.697  1.00  0.00     0.005 A 
HETATM    5  C2  UNK     1      19.169   1.101  30.484  1.00  0.00    -0.043 A 
HETATM    6  C3  UNK     1      18.520   0.824  32.845  1.00  0.00     0.109 A 
HETATM    7  C4  UNK     1      19.556  -1.045  31.770  1.00  0.00     0.017 A 
HETATM    8  C5  UNK     1      18.406   0.108  34.038  1.00  0.00     0.074 A 
HETATM    9  C6  UNK     1      18.693   2.354  30.521  1.00  0.00     0.090 A 
HETATM   10  C7  UNK     1      19.776   0.539  29.232  1.00  0.00     0.049 C 
HETATM   11  C8  UNK     1      18.876  -1.201  34.091  1.00  0.00     0.085 A 
HETATM   12  C9  UNK     1      19.449  -1.777  32.958  1.00  0.00     0.039 A 
HETATM   13  C10 UNK     1      18.089   2.949  31.726  1.00  0.00     0.288 A 
ENDROOT
BRANCH  11  14
HETATM   14  O2  UNK     1      18.794  -1.957  35.222  1.00  0.00    -0.359 OA
HETATM   15  H7  UNK     1      17.924  -2.389  35.259  1.00  0.00     0.217 HD
ENDBRANCH  11  14
TORSDOF 1
ENDMDL
MODEL 5
REMARK VINA RESULT:      -6.4      2.380      3.700
REMARK  1 active torsions:
REMARK  status: ('A' for Active; 'I' for Inactive)
REMARK    1  A    between atoms: C8_12  and  O2_3 
ROOT
HETATM    1  I1  UNK     1      18.564   1.796  29.501  1.00  0.00    -0.039 I 
HETATM    2  O1  UNK     1      18.469   0.689  32.463  1.00  0.00    -0.273 OA
HETATM    3  O3  UNK     1      17.587   1.300  34.482  1.00  0.00    -0.260 OA
HETATM    4  C1  UNK     1      19.754  -1.381  32.298  1.00  0.00     0.005 A 
HETATM    5  C2  UNK     1      19.525  -1.609  33.732  1.00  0.00    -0.043 A 
HETATM    6  C3  UNK     1      19.218  -0.236  31.709  1.00  0.00     0.109 A 
HETATM    7  C4  UNK     1      20.486  -2.252  31.479  1.00  0.00     0.017 A 
HETATM    8  C5  UNK     1      19.389   0.056  30.354  1.00  0.00     0.074 A 
HETATM    9  C6  UNK     1      18.809  -0.712  34.425  1.00  0.00     0.090 A 
HETATM   10  C7  UNK     1      20.089  -2.831  34.396  1.00  0.00     0.049 C 
HETATM   11  C8  UNK     1      20.118  -0.822  29.558  1.00  0.00     0.085 A 
HETATM   12  C9  UNK     1      20.667  -1.973  30.120  1.00  0.00     0.039 A 
HETATM   13  C10 UNK     1      18.236   0.501  33.816  1.00  0.00     0.288 A 
ENDROOT
BRANCH  11  14
HETATM   14  O2  UNK     1      20.325  -0.597  28.230  1.00  0.00    -0.359 OA
HETATM   15  H7  UNK     1      19.522  -0.213  27.839  1.00  0.00     0.217 HD
ENDBRANCH  11  14
TORSDOF 1
ENDMDL
MODEL 6
REMARK VINA RESULT:      -6.4      6.423      8.284
REMARK  1 active torsions:
REMARK  status: ('A' for Active; 'I' for Inactive)
REMARK    1  A    between atoms: C8_12  and  O2_3 
ROOT
HETATM    1  I1  UNK     1      15.146   7.574  32.459  1.00  0.00    -0.039 I 
HETATM    2  O1  UNK     1      17.841   6.515  31.185  1.00  0.00    -0.273 OA
HETATM    3  O3  UNK     1      18.551   5.612  29.208  1.00  0.00    -0.260 OA
HETATM    4  C1  UNK     1      19.451   6.854  32.990  1.00  0.00     0.005 A 
HETATM    5  C2  UNK     1      20.501   6.300  32.124  1.00  0.00    -0.043 A 
HETATM    6  C3  UNK     1      18.152   6.943  32.491  1.00  0.00     0.109 A 
HETATM    7  C4  UNK     1      19.678   7.302  34.298  1.00  0.00     0.017 A 
HETATM    8  C5  UNK     1      17.096   7.456  33.248  1.00  0.00     0.074 A 
HETATM    9  C6  UNK     1      20.178   5.900  30.886  1.00  0.00     0.090 A 
HETATM   10  C7  UNK     1      21.910   6.190  32.631  1.00  0.00     0.049 C 
HETATM   11  C8  UNK     1      17.342   7.896  34.544  1.00  0.00     0.085 A 
HETATM   12  C9  UNK     1      18.630   7.818  35.069  1.00  0.00     0.039 A 
HETATM   13  C10 UNK     1      18.810   5.989  30.345  1.00  0.00     0.288 A 
ENDROOT
BRANCH  11  14
HETATM   14  O2  UNK     1      16.357   8.406  35.338  1.00  0.00    -0.359 OA
HETATM   15  H7  UNK     1      16.747   9.027  35.977  1.00  0.00     0.217 HD
ENDBRANCH  11  14
TORSDOF 1
ENDMDL
MODEL 7
REMARK VINA RESULT:      -6.3      6.919      8.370
REMARK  1 active torsions:
REMARK  status: ('A' for Active; 'I' for Inactive)
REMARK    1  A    between atoms: C8_12  and  O2_3 
ROOT
HETATM    1  I1  UNK     1      18.725   5.032  31.208  1.00  0.00    -0.039 I 
HETATM    2  O1  UNK     1      16.163   6.658  32.102  1.00  0.00    -0.273 OA
HETATM    3  O3  UNK     1      13.918   6.674  31.668  1.00  0.00    -0.260 OA
HETATM    4  C1  UNK     1      17.086   8.275  33.683  1.00  0.00     0.005 A 
HETATM    5  C2  UNK     1      15.733   8.816  33.880  1.00  0.00    -0.043 A 
HETATM    6  C3  UNK     1      17.257   7.211  32.798  1.00  0.00     0.109 A 
HETATM    7  C4  UNK     1      18.223   8.767  34.336  1.00  0.00     0.017 A 
HETATM    8  C5  UNK     1      18.506   6.638  32.552  1.00  0.00     0.074 A 
HETATM    9  C6  UNK     1      14.711   8.271  33.206  1.00  0.00     0.090 A 
HETATM   10  C7  UNK     1      15.515   9.962  34.825  1.00  0.00     0.049 C 
HETATM   11  C8  UNK     1      19.624   7.141  33.211  1.00  0.00     0.085 A 
HETATM   12  C9  UNK     1      19.483   8.204  34.100  1.00  0.00     0.039 A 
HETATM   13  C10 UNK     1      14.877   7.147  32.268  1.00  0.00     0.288 A 
ENDROOT
BRANCH  11  14
HETATM   14  O2  UNK     1      20.873   6.630  33.017  1.00  0.00    -0.359 OA
HETATM   15  H7  UNK     1      21.333   6.570  33.872  1.00  0.00     0.217 HD
ENDBRANCH  11  14
TORSDOF 1
ENDMDL
MODEL 8
REMARK VINA RESULT:      -6.2      8.393     10.317
REMARK  1 active torsions:
REMARK  status: ('A' for Active; 'I' for Inactive)
REMARK    1  A    between atoms: C8_12  and  O2_3 
ROOT
HETATM    1  I1  UNK     1      21.482 -10.763  36.600  1.00  0.00    -0.039 I 
HETATM    2  O1  UNK     1      20.731  -8.036  35.182  1.00  0.00    -0.273 OA
HETATM    3  O3  UNK     1      20.549  -7.217  33.055  1.00  0.00    -0.260 OA
HETATM    4  C1  UNK     1      20.260  -6.565  37.074  1.00  0.00     0.005 A 
HETATM    5  C2  UNK     1      19.972  -5.480  36.126  1.00  0.00    -0.043 A 
HETATM    6  C3  UNK     1      20.632  -7.811  36.569  1.00  0.00     0.109 A 
HETATM    7  C4  UNK     1      20.184  -6.423  38.466  1.00  0.00     0.017 A 
HETATM    8  C5  UNK     1      20.923  -8.896  37.400  1.00  0.00     0.074 A 
HETATM    9  C6  UNK     1      20.074  -5.721  34.812  1.00  0.00     0.090 A 
HETATM   10  C7  UNK     1      19.570  -4.126  36.636  1.00  0.00     0.049 C 
HETATM   11  C8  UNK     1      20.841  -8.735  38.779  1.00  0.00     0.085 A 
HETATM   12  C9  UNK     1      20.474  -7.500  39.311  1.00  0.00     0.039 A 
HETATM   13  C10 UNK     1      20.464  -7.032  34.264  1.00  0.00     0.288 A 
ENDROOT
BRANCH  11  14
HETATM   14  O2  UNK     1      21.114  -9.750  39.647  1.00  0.00    -0.359 OA
HETATM   15  H7  UNK     1      21.300 -10.562  39.145  1.00  0.00     0.217 HD
ENDBRANCH  11  14
TORSDOF 1
ENDMDL
MODEL 9
REMARK VINA RESULT:      -6.2     13.364     15.364
REMARK  1 active torsions:
REMARK  status: ('A' for Active; 'I' for Inactive)
REMARK    1  A    between atoms: C8_12  and  O2_3 
ROOT
HETATM    1  I1  UNK     1      26.584  -8.121  38.597  1.00  0.00    -0.039 I 
HETATM    2  O1  UNK     1      29.719  -8.433  38.310  1.00  0.00    -0.273 OA
HETATM    3  O3  UNK     1      31.246 -10.115  38.053  1.00  0.00    -0.260 OA
HETATM    4  C1  UNK     1      30.496  -6.120  38.423  1.00  0.00     0.005 A 
HETATM    5  C2  UNK     1      31.876  -6.603  38.271  1.00  0.00    -0.043 A 
HETATM    6  C3  UNK     1      29.460  -7.054  38.438  1.00  0.00     0.109 A 
HETATM    7  C4  UNK     1      30.155  -4.768  38.556  1.00  0.00     0.017 A 
HETATM    8  C5  UNK     1      28.121  -6.681  38.579  1.00  0.00     0.074 A 
HETATM    9  C6  UNK     1      32.094  -7.920  38.151  1.00  0.00     0.090 A 
HETATM   10  C7  UNK     1      33.014  -5.624  38.252  1.00  0.00     0.049 C 
HETATM   11  C8  UNK     1      27.803  -5.332  38.708  1.00  0.00     0.085 A 
HETATM   12  C9  UNK     1      28.818  -4.378  38.698  1.00  0.00     0.039 A 
HETATM   13  C10 UNK     1      31.009  -8.917  38.164  1.00  0.00     0.288 A 
ENDROOT
BRANCH  11  14
HETATM   14  O2  UNK     1      26.519  -4.899  38.851  1.00  0.00    -0.359 OA
HETATM   15  H7  UNK     1      25.965  -5.300  38.159  1.00  0.00     0.217 HD
ENDBRANCH  11  14
TORSDOF 1
ENDMDL
MODEL 10
REMARK VINA RESULT:      -6.2      8.934     10.879
REMARK  1 active torsions:
REMARK  status: ('A' for Active; 'I' for Inactive)
REMARK    1  A    between atoms: C8_12  and  O2_3 
ROOT
HETATM    1  I1  UNK     1      20.312  -3.307  36.492  1.00  0.00    -0.039 I 
HETATM    2  O1  UNK     1      22.144  -5.271  38.165  1.00  0.00    -0.273 OA
HETATM    3  O3  UNK     1      24.276  -5.324  38.988  1.00  0.00    -0.260 OA
HETATM    4  C1  UNK     1      20.660  -7.170  38.565  1.00  0.00     0.005 A 
HETATM    5  C2  UNK     1      21.746  -7.831  39.303  1.00  0.00    -0.043 A 
HETATM    6  C3  UNK     1      20.895  -5.908  38.018  1.00  0.00     0.109 A 
HETATM    7  C4  UNK     1      19.392  -7.734  38.376  1.00  0.00     0.017 A 
HETATM    8  C5  UNK     1      19.919  -5.211  37.304  1.00  0.00     0.074 A 
HETATM    9  C6  UNK     1      22.924  -7.202  39.426  1.00  0.00     0.090 A 
HETATM   10  C7  UNK     1      21.526  -9.189  39.903  1.00  0.00     0.049 C 
HETATM   11  C8  UNK     1      18.666  -5.789  37.127  1.00  0.00     0.085 A 
HETATM   12  C9  UNK     1      18.403  -7.049  37.661  1.00  0.00     0.039 A 
HETATM   13  C10 UNK     1      23.186  -5.869  38.855  1.00  0.00     0.288 A 
ENDROOT
BRANCH  11  14
HETATM   14  O2  UNK     1      17.668  -5.165  36.439  1.00  0.00    -0.359 OA
HETATM   15  H7  UNK     1      17.660  -4.220  36.668  1.00  0.00     0.217 HD
ENDBRANCH  11  14
TORSDOF 1
ENDMDL
