MODEL 1
REMARK VINA RESULT:      -7.4      0.000      0.000
REMARK  1 active torsions:
REMARK  status: ('A' for Active; 'I' for Inactive)
REMARK    1  A    between atoms: C6_10  and  O2_3 
ROOT
HETATM    1 Cl1  UNK     1      19.134  -0.097  15.110  1.00  0.00    -0.081 Cl
HETATM    2  O1  UNK     1      19.330   2.826  20.237  1.00  0.00    -0.275 OA
HETATM    3  O3  UNK     1      19.416   2.792  22.524  1.00  0.00    -0.260 OA
HETATM    4  C1  UNK     1      19.282   0.717  19.022  1.00  0.00    -0.000 A 
HETATM    5  C2  UNK     1      19.284   2.109  19.023  1.00  0.00     0.092 A 
HETATM    6  C3  UNK     1      19.235   0.043  17.800  1.00  0.00     0.041 A 
HETATM    7  C4  UNK     1      19.240   2.844  17.839  1.00  0.00     0.076 A 
HETATM    8  C5  UNK     1      19.328   0.015  20.294  1.00  0.00     0.020 A 
HETATM    9  C6  UNK     1      19.194   2.163  16.624  1.00  0.00     0.090 A 
HETATM   10  C7  UNK     1      19.191   0.766  16.605  1.00  0.00     0.068 A 
HETATM   11  C8  UNK     1      19.373   0.701  21.439  1.00  0.00     0.083 A 
HETATM   12  C9  UNK     1      19.375   2.176  21.465  1.00  0.00     0.288 A 
ENDROOT
BRANCH   9  13
HETATM   13  O2  UNK     1      19.152   2.886  15.470  1.00  0.00    -0.359 OA
HETATM   14  H5  UNK     1      19.047   2.267  14.726  1.00  0.00     0.217 HD
ENDBRANCH   9  13
TORSDOF 1
ENDMDL
MODEL 2
REMARK VINA RESULT:      -7.3      2.706      5.146
REMARK  1 active torsions:
REMARK  status: ('A' for Active; 'I' for Inactive)
REMARK    1  A    between atoms: C6_10  and  O2_3 
ROOT
HETATM    1 Cl1  UNK     1      19.394   2.427  22.213  1.00  0.00    -0.081 Cl
HETATM    2  O1  UNK     1      19.278   0.038  16.814  1.00  0.00    -0.275 OA
HETATM    3  O3  UNK     1      19.298   0.302  14.540  1.00  0.00    -0.260 OA
HETATM    4  C1  UNK     1      19.382   2.012  18.236  1.00  0.00    -0.000 A 
HETATM    5  C2  UNK     1      19.307   0.628  18.095  1.00  0.00     0.092 A 
HETATM    6  C3  UNK     1      19.408   2.558  19.521  1.00  0.00     0.041 A 
HETATM    7  C4  UNK     1      19.258  -0.220  19.199  1.00  0.00     0.076 A 
HETATM    8  C5  UNK     1      19.430   2.836  17.040  1.00  0.00     0.020 A 
HETATM    9  C6  UNK     1      19.285   0.334  20.478  1.00  0.00     0.090 A 
HETATM   10  C7  UNK     1      19.360   1.720  20.638  1.00  0.00     0.068 A 
HETATM   11  C8  UNK     1      19.403   2.270  15.831  1.00  0.00     0.083 A 
HETATM   12  C9  UNK     1      19.323   0.808  15.656  1.00  0.00     0.288 A 
ENDROOT
BRANCH   9  13
HETATM   13  O2  UNK     1      19.236  -0.501  21.554  1.00  0.00    -0.359 OA
HETATM   14  H5  UNK     1      19.875  -0.182  22.215  1.00  0.00     0.217 HD
ENDBRANCH   9  13
TORSDOF 1
ENDMDL
MODEL 3
REMARK VINA RESULT:      -6.9      2.464      4.825
REMARK  1 active torsions:
REMARK  status: ('A' for Active; 'I' for Inactive)
REMARK    1  A    between atoms: C6_10  and  O2_3 
ROOT
HETATM    1 Cl1  UNK     1      18.972   2.127  20.899  1.00  0.00    -0.081 Cl
HETATM    2  O1  UNK     1      19.253   0.850  15.141  1.00  0.00    -0.275 OA
HETATM    3  O3  UNK     1      19.170  -0.700  13.458  1.00  0.00    -0.260 OA
HETATM    4  C1  UNK     1      18.965   0.115  17.444  1.00  0.00    -0.000 A 
HETATM    5  C2  UNK     1      19.183   1.135  16.520  1.00  0.00     0.092 A 
HETATM    6  C3  UNK     1      18.902   0.436  18.801  1.00  0.00     0.041 A 
HETATM    7  C4  UNK     1      19.337   2.462  16.916  1.00  0.00     0.076 A 
HETATM    8  C5  UNK     1      18.813  -1.247  16.960  1.00  0.00     0.020 A 
HETATM    9  C6  UNK     1      19.272   2.773  18.273  1.00  0.00     0.090 A 
HETATM   10  C7  UNK     1      19.055   1.763  19.213  1.00  0.00     0.068 A 
HETATM   11  C8  UNK     1      18.881  -1.508  15.652  1.00  0.00     0.083 A 
HETATM   12  C9  UNK     1      19.110  -0.445  14.655  1.00  0.00     0.288 A 
ENDROOT
BRANCH   9  13
HETATM   13  O2  UNK     1      19.425   4.072  18.654  1.00  0.00    -0.359 OA
HETATM   14  H5  UNK     1      18.541   4.450  18.810  1.00  0.00     0.217 HD
ENDBRANCH   9  13
TORSDOF 1
ENDMDL
MODEL 4
REMARK VINA RESULT:      -6.8     12.992     15.381
REMARK  1 active torsions:
REMARK  status: ('A' for Active; 'I' for Inactive)
REMARK    1  A    between atoms: C6_10  and  O2_3 
ROOT
HETATM    1 Cl1  UNK     1      20.121   9.010  34.518  1.00  0.00    -0.081 Cl
HETATM    2  O1  UNK     1      17.485   4.233  32.261  1.00  0.00    -0.275 OA
HETATM    3  O3  UNK     1      17.396   2.603  30.655  1.00  0.00    -0.260 OA
HETATM    4  C1  UNK     1      19.260   5.896  32.162  1.00  0.00    -0.000 A 
HETATM    5  C2  UNK     1      18.129   5.373  32.785  1.00  0.00     0.092 A 
HETATM    6  C3  UNK     1      19.870   7.027  32.711  1.00  0.00     0.041 A 
HETATM    7  C4  UNK     1      17.594   5.948  33.936  1.00  0.00     0.076 A 
HETATM    8  C5  UNK     1      19.765   5.246  30.965  1.00  0.00     0.020 A 
HETATM    9  C6  UNK     1      18.209   7.075  34.476  1.00  0.00     0.090 A 
HETATM   10  C7  UNK     1      19.344   7.613  33.865  1.00  0.00     0.068 A 
HETATM   11  C8  UNK     1      19.149   4.167  30.476  1.00  0.00     0.083 A 
HETATM   12  C9  UNK     1      17.950   3.595  31.116  1.00  0.00     0.288 A 
ENDROOT
BRANCH   9  13
HETATM   13  O2  UNK     1      17.680   7.633  35.602  1.00  0.00    -0.359 OA
HETATM   14  H5  UNK     1      18.394   7.732  36.256  1.00  0.00     0.217 HD
ENDBRANCH   9  13
TORSDOF 1
ENDMDL
MODEL 5
REMARK VINA RESULT:      -6.4     10.779     12.310
REMARK  1 active torsions:
REMARK  status: ('A' for Active; 'I' for Inactive)
REMARK    1  A    between atoms: C6_10  and  O2_3 
ROOT
HETATM    1 Cl1  UNK     1      21.115  -2.816  32.731  1.00  0.00    -0.081 Cl
HETATM    2  O1  UNK     1      18.921   0.723  28.545  1.00  0.00    -0.275 OA
HETATM    3  O3  UNK     1      17.879   2.676  27.961  1.00  0.00    -0.260 OA
HETATM    4  C1  UNK     1      19.375   0.280  30.896  1.00  0.00    -0.000 A 
HETATM    5  C2  UNK     1      19.439  -0.109  29.560  1.00  0.00     0.092 A 
HETATM    6  C3  UNK     1      19.899  -0.570  31.872  1.00  0.00     0.041 A 
HETATM    7  C4  UNK     1      20.011  -1.320  29.175  1.00  0.00     0.076 A 
HETATM    8  C5  UNK     1      18.764   1.557  31.225  1.00  0.00     0.020 A 
HETATM    9  C6  UNK     1      20.532  -2.162  30.155  1.00  0.00     0.090 A 
HETATM   10  C7  UNK     1      20.476  -1.788  31.500  1.00  0.00     0.068 A 
HETATM   11  C8  UNK     1      18.275   2.338  30.258  1.00  0.00     0.083 A 
HETATM   12  C9  UNK     1      18.331   1.948  28.837  1.00  0.00     0.288 A 
ENDROOT
BRANCH   9  13
HETATM   13  O2  UNK     1      21.090  -3.345  29.773  1.00  0.00    -0.359 OA
HETATM   14  H5  UNK     1      21.564  -3.201  28.935  1.00  0.00     0.217 HD
ENDBRANCH   9  13
TORSDOF 1
ENDMDL
MODEL 6
REMARK VINA RESULT:      -6.4     13.588     15.700
REMARK  1 active torsions:
REMARK  status: ('A' for Active; 'I' for Inactive)
REMARK    1  A    between atoms: C6_10  and  O2_3 
ROOT
HETATM    1 Cl1  UNK     1      14.627   7.464  33.921  1.00  0.00    -0.081 Cl
HETATM    2  O1  UNK     1      20.352   6.438  32.902  1.00  0.00    -0.275 OA
HETATM    3  O3  UNK     1      22.021   5.841  31.453  1.00  0.00    -0.260 OA
HETATM    4  C1  UNK     1      18.059   6.534  32.091  1.00  0.00    -0.000 A 
HETATM    5  C2  UNK     1      18.980   6.678  33.125  1.00  0.00     0.092 A 
HETATM    6  C3  UNK     1      16.709   6.780  32.351  1.00  0.00     0.041 A 
HETATM    7  C4  UNK     1      18.591   7.061  34.407  1.00  0.00     0.076 A 
HETATM    8  C5  UNK     1      18.535   6.131  30.779  1.00  0.00     0.020 A 
HETATM    9  C6  UNK     1      17.242   7.306  34.658  1.00  0.00     0.090 A 
HETATM   10  C7  UNK     1      16.304   7.166  33.632  1.00  0.00     0.068 A 
HETATM   11  C8  UNK     1      19.836   5.906  30.576  1.00  0.00     0.083 A 
HETATM   12  C9  UNK     1      20.831   6.051  31.655  1.00  0.00     0.288 A 
ENDROOT
BRANCH   9  13
HETATM   13  O2  UNK     1      16.867   7.679  35.913  1.00  0.00    -0.359 OA
HETATM   14  H5  UNK     1      16.772   6.876  36.454  1.00  0.00     0.217 HD
ENDBRANCH   9  13
TORSDOF 1
ENDMDL
MODEL 7
REMARK VINA RESULT:      -6.2     18.818     21.103
REMARK  1 active torsions:
REMARK  status: ('A' for Active; 'I' for Inactive)
REMARK    1  A    between atoms: C6_10  and  O2_3 
ROOT
HETATM    1 Cl1  UNK     1      20.511  -3.558  37.539  1.00  0.00    -0.081 Cl
HETATM    2  O1  UNK     1      19.640  -9.363  36.901  1.00  0.00    -0.275 OA
HETATM    3  O3  UNK     1      19.452 -11.444  37.837  1.00  0.00    -0.260 OA
HETATM    4  C1  UNK     1      20.059  -7.449  38.345  1.00  0.00    -0.000 A 
HETATM    5  C2  UNK     1      19.850  -7.980  37.074  1.00  0.00     0.092 A 
HETATM    6  C3  UNK     1      20.263  -6.073  38.476  1.00  0.00     0.041 A 
HETATM    7  C4  UNK     1      19.840  -7.176  35.936  1.00  0.00     0.076 A 
HETATM    8  C5  UNK     1      20.056  -8.346  39.488  1.00  0.00     0.020 A 
HETATM    9  C6  UNK     1      20.045  -5.804  36.076  1.00  0.00     0.090 A 
HETATM   10  C7  UNK     1      20.256  -5.255  37.343  1.00  0.00     0.068 A 
HETATM   11  C8  UNK     1      19.856  -9.655  39.315  1.00  0.00     0.083 A 
HETATM   12  C9  UNK     1      19.634 -10.240  37.980  1.00  0.00     0.288 A 
ENDROOT
BRANCH   9  13
HETATM   13  O2  UNK     1      20.035  -5.024  34.960  1.00  0.00    -0.359 OA
HETATM   14  H5  UNK     1      19.184  -5.153  34.505  1.00  0.00     0.217 HD
ENDBRANCH   9  13
TORSDOF 1
ENDMDL
MODEL 8
REMARK VINA RESULT:      -6.2     13.616     15.538
REMARK  1 active torsions:
REMARK  status: ('A' for Active; 'I' for Inactive)
REMARK    1  A    between atoms: C6_10  and  O2_3 
ROOT
HETATM    1 Cl1  UNK     1      22.103   6.128  32.380  1.00  0.00    -0.081 Cl
HETATM    2  O1  UNK     1      16.240   6.638  32.860  1.00  0.00    -0.275 OA
HETATM    3  O3  UNK     1      14.415   7.418  34.001  1.00  0.00    -0.260 OA
HETATM    4  C1  UNK     1      18.467   7.103  33.727  1.00  0.00    -0.000 A 
HETATM    5  C2  UNK     1      17.643   6.527  32.763  1.00  0.00     0.092 A 
HETATM    6  C3  UNK     1      19.851   6.972  33.597  1.00  0.00     0.041 A 
HETATM    7  C4  UNK     1      18.163   5.826  31.677  1.00  0.00     0.076 A 
HETATM    8  C5  UNK     1      17.855   7.819  34.834  1.00  0.00     0.020 A 
HETATM    9  C6  UNK     1      19.546   5.701  31.555  1.00  0.00     0.090 A 
HETATM   10  C7  UNK     1      20.387   6.272  32.512  1.00  0.00     0.068 A 
HETATM   11  C8  UNK     1      16.526   7.920  34.918  1.00  0.00     0.083 A 
HETATM   12  C9  UNK     1      15.633   7.318  33.910  1.00  0.00     0.288 A 
ENDROOT
BRANCH   9  13
HETATM   13  O2  UNK     1      20.049   5.015  30.491  1.00  0.00    -0.359 OA
HETATM   14  H5  UNK     1      20.567   4.264  30.830  1.00  0.00     0.217 HD
ENDBRANCH   9  13
TORSDOF 1
ENDMDL
MODEL 9
REMARK VINA RESULT:      -6.2     11.299     12.632
REMARK  1 active torsions:
REMARK  status: ('A' for Active; 'I' for Inactive)
REMARK    1  A    between atoms: C6_10  and  O2_3 
ROOT
HETATM    1 Cl1  UNK     1      18.017   2.787  28.560  1.00  0.00    -0.081 Cl
HETATM    2  O1  UNK     1      20.082  -1.231  32.361  1.00  0.00    -0.275 OA
HETATM    3  O3  UNK     1      21.165  -3.212  32.742  1.00  0.00    -0.260 OA
HETATM    4  C1  UNK     1      19.764  -0.477  30.068  1.00  0.00    -0.000 A 
HETATM    5  C2  UNK     1      19.595  -0.283  31.437  1.00  0.00     0.092 A 
HETATM    6  C3  UNK     1      19.269   0.484  29.185  1.00  0.00     0.041 A 
HETATM    7  C4  UNK     1      18.948   0.842  31.944  1.00  0.00     0.076 A 
HETATM    8  C5  UNK     1      20.449  -1.674  29.610  1.00  0.00     0.020 A 
HETATM    9  C6  UNK     1      18.457   1.796  31.055  1.00  0.00     0.090 A 
HETATM   10  C7  UNK     1      18.617   1.618  29.679  1.00  0.00     0.068 A 
HETATM   11  C8  UNK     1      20.906  -2.567  30.492  1.00  0.00     0.083 A 
HETATM   12  C9  UNK     1      20.740  -2.384  31.945  1.00  0.00     0.288 A 
ENDROOT
BRANCH   9  13
HETATM   13  O2  UNK     1      17.825   2.894  31.557  1.00  0.00    -0.359 OA
HETATM   14  H5  UNK     1      18.339   3.682  31.308  1.00  0.00     0.217 HD
ENDBRANCH   9  13
TORSDOF 1
ENDMDL
MODEL 10
REMARK VINA RESULT:      -6.1     11.180     13.243
REMARK  1 active torsions:
REMARK  status: ('A' for Active; 'I' for Inactive)
REMARK    1  A    between atoms: C6_10  and  O2_3 
ROOT
HETATM    1 Cl1  UNK     1      21.723  -4.521  31.556  1.00  0.00    -0.081 Cl
HETATM    2  O1  UNK     1      18.760   0.582  31.353  1.00  0.00    -0.275 OA
HETATM    3  O3  UNK     1      17.994   2.371  30.148  1.00  0.00    -0.260 OA
HETATM    4  C1  UNK     1      20.051  -1.143  30.220  1.00  0.00    -0.000 A 
HETATM    5  C2  UNK     1      19.472  -0.635  31.381  1.00  0.00     0.092 A 
HETATM    6  C3  UNK     1      20.748  -2.351  30.288  1.00  0.00     0.041 A 
HETATM    7  C4  UNK     1      19.571  -1.299  32.602  1.00  0.00     0.076 A 
HETATM    8  C5  UNK     1      19.908  -0.398  28.982  1.00  0.00     0.020 A 
HETATM    9  C6  UNK     1      20.268  -2.505  32.660  1.00  0.00     0.090 A 
HETATM   10  C7  UNK     1      20.855  -3.029  31.506  1.00  0.00     0.068 A 
HETATM   11  C8  UNK     1      19.232   0.754  28.964  1.00  0.00     0.083 A 
HETATM   12  C9  UNK     1      18.611   1.313  30.179  1.00  0.00     0.288 A 
ENDROOT
BRANCH   9  13
HETATM   13  O2  UNK     1      20.362  -3.149  33.856  1.00  0.00    -0.359 OA
HETATM   14  H5  UNK     1      21.169  -3.693  33.847  1.00  0.00     0.217 HD
ENDBRANCH   9  13
TORSDOF 1
ENDMDL
