MODEL 1
REMARK VINA RESULT:     -10.0      0.000      0.000
REMARK  4 active torsions:
REMARK  status: ('A' for Active; 'I' for Inactive)
REMARK    1  A    between atoms: C13_19  and  N1_5 
REMARK       I    between atoms: C15_21  and  N1_5 
REMARK    2  A    between atoms: C1_7  and  C2_8 
REMARK    3  A    between atoms: C2_8  and  C5_11 
REMARK    4  A    between atoms: C15_21  and  C16_22 
ROOT
HETATM    1  S1  UNK     1      16.393   6.317  31.848  1.00  0.00    -0.075 SA
HETATM    2  N2  UNK     1      21.363   6.567  32.927  1.00  0.00    -0.191 NA
HETATM    3  C1  UNK     1      16.188  10.112  33.416  1.00  0.00    -0.002 C 
HETATM    4  C3  UNK     1      17.379   9.937  34.384  1.00  0.00     0.010 C 
HETATM    5  C4  UNK     1      15.600   8.742  33.006  1.00  0.00     0.052 C 
HETATM    6  C6  UNK     1      18.524   9.141  33.738  1.00  0.00     0.042 C 
HETATM    7  C7  UNK     1      16.694   7.775  32.675  1.00  0.00    -0.007 A 
HETATM    8  C10 UNK     1      18.022   7.928  33.019  1.00  0.00    -0.021 A 
HETATM    9  C12 UNK     1      18.806   6.818  32.580  1.00  0.00     0.085 A 
HETATM   10  C13 UNK     1      18.044   5.870  31.930  1.00  0.00     0.098 A 
HETATM   11  C14 UNK     1      20.217   6.680  32.772  1.00  0.00     0.103 C 
ENDROOT
BRANCH  10  12
HETATM   12  N1  UNK     1      18.381   4.673  31.359  1.00  0.00    -0.316 N 
HETATM   13  C15 UNK     1      18.159   3.398  31.898  1.00  0.00     0.262 C 
HETATM   14  O1  UNK     1      17.633   3.102  32.962  1.00  0.00    -0.267 OA
HETATM   15  H19 UNK     1      18.819   4.746  30.445  1.00  0.00     0.170 HD
BRANCH  13  16
HETATM   16  C16 UNK     1      18.650   2.319  31.014  1.00  0.00     0.108 A 
HETATM   17  C17 UNK     1      19.061   1.199  31.619  1.00  0.00     0.037 A 
HETATM   18  C19 UNK     1      19.561   0.081  30.833  1.00  0.00    -0.001 A 
HETATM   19  C20 UNK     1      19.603   0.199  29.447  1.00  0.00     0.089 A 
HETATM   20  C21 UNK     1      20.000  -1.106  31.422  1.00  0.00     0.014 A 
HETATM   21  O2  UNK     1      19.168   1.380  28.815  1.00  0.00    -0.274 OA
HETATM   22  C22 UNK     1      20.071  -0.834  28.637  1.00  0.00     0.038 A 
HETATM   23  C18 UNK     1      18.685   2.466  29.540  1.00  0.00     0.304 A 
HETATM   24  O3  UNK     1      18.309   3.491  28.982  1.00  0.00    -0.259 OA
HETATM   25  C24 UNK     1      20.507  -2.015  29.234  1.00  0.00     0.003 A 
HETATM   26  C23 UNK     1      20.472  -2.151  30.623  1.00  0.00     0.001 A 
ENDBRANCH  13  16
ENDBRANCH  10  12
BRANCH   3  27
HETATM   27  C2  UNK     1      15.107  10.993  34.038  1.00  0.00    -0.044 C 
HETATM   28  C8  UNK     1      14.590  10.315  35.325  1.00  0.00     0.015 C 
HETATM   29  C9  UNK     1      15.712  12.358  34.423  1.00  0.00     0.015 C 
BRANCH  27  30
HETATM   30  C5  UNK     1      13.899  11.176  33.077  1.00  0.00     0.004 C 
HETATM   31  C11 UNK     1      12.661  11.820  33.691  1.00  0.00     0.006 C 
ENDBRANCH  27  30
ENDBRANCH   3  27
TORSDOF 4
ENDMDL
MODEL 2
REMARK VINA RESULT:      -9.5      1.289      2.230
REMARK  4 active torsions:
REMARK  status: ('A' for Active; 'I' for Inactive)
REMARK    1  A    between atoms: C13_19  and  N1_5 
REMARK       I    between atoms: C15_21  and  N1_5 
REMARK    2  A    between atoms: C1_7  and  C2_8 
REMARK    3  A    between atoms: C2_8  and  C5_11 
REMARK    4  A    between atoms: C15_21  and  C16_22 
ROOT
HETATM    1  S1  UNK     1      15.483   6.546  32.614  1.00  0.00    -0.075 SA
HETATM    2  N2  UNK     1      20.412   7.396  33.565  1.00  0.00    -0.191 NA
HETATM    3  C1  UNK     1      15.008  10.592  33.162  1.00  0.00    -0.002 C 
HETATM    4  C3  UNK     1      16.196  10.750  34.135  1.00  0.00     0.010 C 
HETATM    5  C4  UNK     1      14.517   9.127  33.119  1.00  0.00     0.052 C 
HETATM    6  C6  UNK     1      17.399   9.895  33.707  1.00  0.00     0.042 C 
HETATM    7  C7  UNK     1      15.676   8.183  33.039  1.00  0.00    -0.007 A 
HETATM    8  C10 UNK     1      16.988   8.508  33.325  1.00  0.00    -0.021 A 
HETATM    9  C12 UNK     1      17.848   7.378  33.180  1.00  0.00     0.085 A 
HETATM   10  C13 UNK     1      17.159   6.246  32.798  1.00  0.00     0.098 A 
HETATM   11  C14 UNK     1      19.263   7.388  33.393  1.00  0.00     0.103 C 
ENDROOT
BRANCH  10  12
HETATM   12  N1  UNK     1      17.581   4.968  32.550  1.00  0.00    -0.316 N 
HETATM   13  C15 UNK     1      18.241   4.514  31.401  1.00  0.00     0.262 C 
HETATM   14  O1  UNK     1      18.567   5.150  30.407  1.00  0.00    -0.267 OA
HETATM   15  H19 UNK     1      17.399   4.308  33.301  1.00  0.00     0.170 HD
BRANCH  13  16
HETATM   16  C16 UNK     1      18.554   3.070  31.463  1.00  0.00     0.108 A 
HETATM   17  C17 UNK     1      19.025   2.517  30.339  1.00  0.00     0.037 A 
HETATM   18  C19 UNK     1      19.361   1.102  30.303  1.00  0.00    -0.001 A 
HETATM   19  C20 UNK     1      19.184   0.338  31.452  1.00  0.00     0.089 A 
HETATM   20  C21 UNK     1      19.855   0.484  29.152  1.00  0.00     0.014 A 
HETATM   21  O2  UNK     1      18.689   0.925  32.633  1.00  0.00    -0.274 OA
HETATM   22  C22 UNK     1      19.486  -1.021  31.484  1.00  0.00     0.038 A 
HETATM   23  C18 UNK     1      18.359   2.277  32.699  1.00  0.00     0.304 A 
HETATM   24  O3  UNK     1      17.927   2.779  33.730  1.00  0.00    -0.259 OA
HETATM   25  C24 UNK     1      19.979  -1.630  30.331  1.00  0.00     0.003 A 
HETATM   26  C23 UNK     1      20.163  -0.880  29.168  1.00  0.00     0.001 A 
ENDBRANCH  13  16
ENDBRANCH  10  12
BRANCH   3  27
HETATM   27  C2  UNK     1      13.864  11.528  33.544  1.00  0.00    -0.044 C 
HETATM   28  C8  UNK     1      14.265  12.977  33.194  1.00  0.00     0.015 C 
HETATM   29  C9  UNK     1      12.606  11.167  32.730  1.00  0.00     0.015 C 
BRANCH  27  30
HETATM   30  C5  UNK     1      13.567  11.471  35.069  1.00  0.00     0.004 C 
HETATM   31  C11 UNK     1      12.528  12.465  35.576  1.00  0.00     0.006 C 
ENDBRANCH  27  30
ENDBRANCH   3  27
TORSDOF 4
ENDMDL
MODEL 3
REMARK VINA RESULT:      -9.0      5.291      7.985
REMARK  4 active torsions:
REMARK  status: ('A' for Active; 'I' for Inactive)
REMARK    1  A    between atoms: C13_19  and  N1_5 
REMARK       I    between atoms: C15_21  and  N1_5 
REMARK    2  A    between atoms: C1_7  and  C2_8 
REMARK    3  A    between atoms: C2_8  and  C5_11 
REMARK    4  A    between atoms: C15_21  and  C16_22 
ROOT
HETATM    1  S1  UNK     1      18.541   0.995  35.047  1.00  0.00    -0.075 SA
HETATM    2  N2  UNK     1      19.458  -1.949  30.995  1.00  0.00    -0.191 NA
HETATM    3  C1  UNK     1      17.888   3.998  32.317  1.00  0.00    -0.002 C 
HETATM    4  C3  UNK     1      18.835   3.427  31.239  1.00  0.00     0.010 C 
HETATM    5  C4  UNK     1      18.240   3.442  33.715  1.00  0.00     0.052 C 
HETATM    6  C6  UNK     1      18.730   1.897  31.143  1.00  0.00     0.042 C 
HETATM    7  C7  UNK     1      18.492   1.967  33.650  1.00  0.00    -0.007 A 
HETATM    8  C10 UNK     1      18.739   1.253  32.494  1.00  0.00    -0.021 A 
HETATM    9  C12 UNK     1      18.965  -0.128  32.774  1.00  0.00     0.085 A 
HETATM   10  C13 UNK     1      18.887  -0.405  34.123  1.00  0.00     0.098 A 
HETATM   11  C14 UNK     1      19.237  -1.133  31.792  1.00  0.00     0.103 C 
ENDROOT
BRANCH  10  12
HETATM   12  N1  UNK     1      19.036  -1.574  34.819  1.00  0.00    -0.316 N 
HETATM   13  C15 UNK     1      20.216  -2.315  34.967  1.00  0.00     0.262 C 
HETATM   14  O1  UNK     1      21.328  -2.075  34.515  1.00  0.00    -0.267 OA
HETATM   15  H19 UNK     1      18.192  -1.905  35.278  1.00  0.00     0.170 HD
BRANCH  13  16
HETATM   16  C16 UNK     1      20.020  -3.530  35.785  1.00  0.00     0.108 A 
HETATM   17  C17 UNK     1      20.077  -4.698  35.133  1.00  0.00     0.037 A 
HETATM   18  C19 UNK     1      19.895  -5.949  35.854  1.00  0.00    -0.001 A 
HETATM   19  C20 UNK     1      19.663  -5.909  37.225  1.00  0.00     0.089 A 
HETATM   20  C21 UNK     1      19.946  -7.190  35.215  1.00  0.00     0.014 A 
HETATM   21  O2  UNK     1      19.605  -4.678  37.906  1.00  0.00    -0.274 OA
HETATM   22  C22 UNK     1      19.481  -7.070  37.972  1.00  0.00     0.038 A 
HETATM   23  C18 UNK     1      19.775  -3.464  37.244  1.00  0.00     0.304 A 
HETATM   24  O3  UNK     1      19.722  -2.396  37.845  1.00  0.00    -0.259 OA
HETATM   25  C24 UNK     1      19.533  -8.304  37.327  1.00  0.00     0.003 A 
HETATM   26  C23 UNK     1      19.765  -8.364  35.951  1.00  0.00     0.001 A 
ENDBRANCH  13  16
ENDBRANCH  10  12
BRANCH   3  27
HETATM   27  C2  UNK     1      17.930   5.525  32.323  1.00  0.00    -0.044 C 
HETATM   28  C8  UNK     1      18.585   6.012  31.012  1.00  0.00     0.015 C 
HETATM   29  C9  UNK     1      16.494   6.081  32.377  1.00  0.00     0.015 C 
BRANCH  27  30
HETATM   30  C5  UNK     1      18.776   6.067  33.509  1.00  0.00     0.004 C 
HETATM   31  C11 UNK     1      20.129   6.663  33.135  1.00  0.00     0.006 C 
ENDBRANCH  27  30
ENDBRANCH   3  27
TORSDOF 4
ENDMDL
MODEL 4
REMARK VINA RESULT:      -9.0     15.966     21.483
REMARK  4 active torsions:
REMARK  status: ('A' for Active; 'I' for Inactive)
REMARK    1  A    between atoms: C13_19  and  N1_5 
REMARK       I    between atoms: C15_21  and  N1_5 
REMARK    2  A    between atoms: C1_7  and  C2_8 
REMARK    3  A    between atoms: C2_8  and  C5_11 
REMARK    4  A    between atoms: C15_21  and  C16_22 
ROOT
HETATM    1  S1  UNK     1      19.368  -1.569  12.107  1.00  0.00    -0.075 SA
HETATM    2  N2  UNK     1      20.931  -4.935  15.593  1.00  0.00    -0.191 NA
HETATM    3  C1  UNK     1      19.472  -4.726   9.476  1.00  0.00    -0.002 C 
HETATM    4  C3  UNK     1      20.587  -5.498  10.215  1.00  0.00     0.010 C 
HETATM    5  C4  UNK     1      19.493  -3.227   9.852  1.00  0.00     0.052 C 
HETATM    6  C6  UNK     1      20.414  -5.423  11.741  1.00  0.00     0.042 C 
HETATM    7  C7  UNK     1      19.666  -3.054  11.329  1.00  0.00    -0.007 A 
HETATM    8  C10 UNK     1      20.105  -4.033  12.198  1.00  0.00    -0.021 A 
HETATM    9  C12 UNK     1      20.188  -3.542  13.536  1.00  0.00     0.085 A 
HETATM   10  C13 UNK     1      19.816  -2.217  13.628  1.00  0.00     0.098 A 
HETATM   11  C14 UNK     1      20.598  -4.311  14.671  1.00  0.00     0.103 C 
ENDROOT
BRANCH  10  12
HETATM   12  N1  UNK     1      19.748  -1.366  14.697  1.00  0.00    -0.316 N 
HETATM   13  C15 UNK     1      18.806  -1.399  15.734  1.00  0.00     0.262 C 
HETATM   14  O1  UNK     1      17.873  -2.176  15.891  1.00  0.00    -0.267 OA
HETATM   15  H19 UNK     1      20.478  -0.660  14.725  1.00  0.00     0.170 HD
BRANCH  13  16
HETATM   16  C16 UNK     1      19.025  -0.330  16.731  1.00  0.00     0.108 A 
HETATM   17  C17 UNK     1      19.017  -0.707  18.015  1.00  0.00     0.037 A 
HETATM   18  C19 UNK     1      19.224   0.275  19.069  1.00  0.00    -0.001 A 
HETATM   19  C20 UNK     1      19.430   1.606  18.718  1.00  0.00     0.089 A 
HETATM   20  C21 UNK     1      19.223  -0.073  20.421  1.00  0.00     0.014 A 
HETATM   21  O2  UNK     1      19.438   1.996  17.365  1.00  0.00    -0.274 OA
HETATM   22  C22 UNK     1      19.634   2.594  19.678  1.00  0.00     0.038 A 
HETATM   23  C18 UNK     1      19.243   1.080  16.334  1.00  0.00     0.304 A 
HETATM   24  O3  UNK     1      19.251   1.430  15.159  1.00  0.00    -0.259 OA
HETATM   25  C24 UNK     1      19.632   2.238  21.025  1.00  0.00     0.003 A 
HETATM   26  C23 UNK     1      19.427   0.907  21.396  1.00  0.00     0.001 A 
ENDBRANCH  13  16
ENDBRANCH  10  12
BRANCH   3  27
HETATM   27  C2  UNK     1      19.600  -4.901   7.965  1.00  0.00    -0.044 C 
HETATM   28  C8  UNK     1      20.060  -3.564   7.345  1.00  0.00     0.015 C 
HETATM   29  C9  UNK     1      20.671  -5.967   7.658  1.00  0.00     0.015 C 
BRANCH  27  30
HETATM   30  C5  UNK     1      18.239  -5.284   7.318  1.00  0.00     0.004 C 
HETATM   31  C11 UNK     1      17.122  -5.634   8.294  1.00  0.00     0.006 C 
ENDBRANCH  27  30
ENDBRANCH   3  27
TORSDOF 4
ENDMDL
MODEL 5
REMARK VINA RESULT:      -9.0      1.830      3.559
REMARK  4 active torsions:
REMARK  status: ('A' for Active; 'I' for Inactive)
REMARK    1  A    between atoms: C13_19  and  N1_5 
REMARK       I    between atoms: C15_21  and  N1_5 
REMARK    2  A    between atoms: C1_7  and  C2_8 
REMARK    3  A    between atoms: C2_8  and  C5_11 
REMARK    4  A    between atoms: C15_21  and  C16_22 
ROOT
HETATM    1  S1  UNK     1      18.257   8.126  33.653  1.00  0.00    -0.075 SA
HETATM    2  N2  UNK     1      13.780   6.596  31.772  1.00  0.00    -0.191 NA
HETATM    3  C1  UNK     1      16.329  11.653  34.515  1.00  0.00    -0.002 C 
HETATM    4  C3  UNK     1      15.304  11.545  33.365  1.00  0.00     0.010 C 
HETATM    5  C4  UNK     1      17.574  10.781  34.231  1.00  0.00     0.052 C 
HETATM    6  C6  UNK     1      14.800  10.104  33.184  1.00  0.00     0.042 C 
HETATM    7  C7  UNK     1      17.170   9.434  33.716  1.00  0.00    -0.007 A 
HETATM    8  C10 UNK     1      15.923   9.115  33.215  1.00  0.00    -0.021 A 
HETATM    9  C12 UNK     1      15.868   7.757  32.780  1.00  0.00     0.085 A 
HETATM   10  C13 UNK     1      17.070   7.105  32.961  1.00  0.00     0.098 A 
HETATM   11  C14 UNK     1      14.716   7.117  32.224  1.00  0.00     0.103 C 
ENDROOT
BRANCH  10  12
HETATM   12  N1  UNK     1      17.454   5.820  32.687  1.00  0.00    -0.316 N 
HETATM   13  C15 UNK     1      18.101   5.369  31.529  1.00  0.00     0.262 C 
HETATM   14  O1  UNK     1      18.445   6.016  30.548  1.00  0.00    -0.267 OA
HETATM   15  H19 UNK     1      17.253   5.150  33.425  1.00  0.00     0.170 HD
BRANCH  13  16
HETATM   16  C16 UNK     1      18.371   3.916  31.562  1.00  0.00     0.108 A 
HETATM   17  C17 UNK     1      18.754   3.359  30.407  1.00  0.00     0.037 A 
HETATM   18  C19 UNK     1      19.042   1.934  30.341  1.00  0.00    -0.001 A 
HETATM   19  C20 UNK     1      18.913   1.167  31.494  1.00  0.00     0.089 A 
HETATM   20  C21 UNK     1      19.443   1.310  29.157  1.00  0.00     0.014 A 
HETATM   21  O2  UNK     1      18.511   1.759  32.707  1.00  0.00    -0.274 OA
HETATM   22  C22 UNK     1      19.173  -0.202  31.497  1.00  0.00     0.038 A 
HETATM   23  C18 UNK     1      18.229   3.119  32.802  1.00  0.00     0.304 A 
HETATM   24  O3  UNK     1      17.878   3.626  33.862  1.00  0.00    -0.259 OA
HETATM   25  C24 UNK     1      19.573  -0.816  30.312  1.00  0.00     0.003 A 
HETATM   26  C23 UNK     1      19.708  -0.062  29.145  1.00  0.00     0.001 A 
ENDBRANCH  13  16
ENDBRANCH  10  12
BRANCH   3  27
HETATM   27  C2  UNK     1      16.735  13.106  34.746  1.00  0.00    -0.044 C 
HETATM   28  C8  UNK     1      15.972  14.003  33.748  1.00  0.00     0.015 C 
HETATM   29  C9  UNK     1      16.342  13.532  36.174  1.00  0.00     0.015 C 
BRANCH  27  30
HETATM   30  C5  UNK     1      18.257  13.316  34.508  1.00  0.00     0.004 C 
HETATM   31  C11 UNK     1      18.623  14.159  33.292  1.00  0.00     0.006 C 
ENDBRANCH  27  30
ENDBRANCH   3  27
TORSDOF 4
ENDMDL
MODEL 6
REMARK VINA RESULT:      -8.9     15.752     21.670
REMARK  4 active torsions:
REMARK  status: ('A' for Active; 'I' for Inactive)
REMARK    1  A    between atoms: C13_19  and  N1_5 
REMARK       I    between atoms: C15_21  and  N1_5 
REMARK    2  A    between atoms: C1_7  and  C2_8 
REMARK    3  A    between atoms: C2_8  and  C5_11 
REMARK    4  A    between atoms: C15_21  and  C16_22 
ROOT
HETATM    1  S1  UNK     1      20.426  -4.230  14.277  1.00  0.00    -0.075 SA
HETATM    2  N2  UNK     1      18.727  -0.459  11.308  1.00  0.00    -0.191 NA
HETATM    3  C1  UNK     1      20.780  -6.384  10.793  1.00  0.00    -0.002 C 
HETATM    4  C3  UNK     1      19.645  -5.647  10.047  1.00  0.00     0.010 C 
HETATM    5  C4  UNK     1      20.630  -6.229  12.323  1.00  0.00     0.052 C 
HETATM    6  C6  UNK     1      19.658  -4.139  10.341  1.00  0.00     0.042 C 
HETATM    7  C7  UNK     1      20.299  -4.813  12.682  1.00  0.00    -0.007 A 
HETATM    8  C10 UNK     1      19.834  -3.858  11.800  1.00  0.00    -0.021 A 
HETATM    9  C12 UNK     1      19.588  -2.616  12.460  1.00  0.00     0.085 A 
HETATM   10  C13 UNK     1      19.867  -2.680  13.809  1.00  0.00     0.098 A 
HETATM   11  C14 UNK     1      19.113  -1.426  11.824  1.00  0.00     0.103 C 
ENDROOT
BRANCH  10  12
HETATM   12  N1  UNK     1      19.775  -1.741  14.800  1.00  0.00    -0.316 N 
HETATM   13  C15 UNK     1      18.772  -1.649  15.775  1.00  0.00     0.262 C 
HETATM   14  O1  UNK     1      17.797  -2.372  15.935  1.00  0.00    -0.267 OA
HETATM   15  H19 UNK     1      20.534  -1.065  14.817  1.00  0.00     0.170 HD
BRANCH  13  16
HETATM   16  C16 UNK     1      18.981  -0.510  16.694  1.00  0.00     0.108 A 
HETATM   17  C17 UNK     1      18.961  -0.793  18.002  1.00  0.00     0.037 A 
HETATM   18  C19 UNK     1      19.157   0.262  18.984  1.00  0.00    -0.001 A 
HETATM   19  C20 UNK     1      19.364   1.565  18.540  1.00  0.00     0.089 A 
HETATM   20  C21 UNK     1      19.143   0.013  20.357  1.00  0.00     0.014 A 
HETATM   21  O2  UNK     1      19.385   1.857  17.162  1.00  0.00    -0.274 OA
HETATM   22  C22 UNK     1      19.557   2.621  19.428  1.00  0.00     0.038 A 
HETATM   23  C18 UNK     1      19.201   0.868  16.199  1.00  0.00     0.304 A 
HETATM   24  O3  UNK     1      19.220   1.132  15.001  1.00  0.00    -0.259 OA
HETATM   25  C24 UNK     1      19.542   2.362  20.797  1.00  0.00     0.003 A 
HETATM   26  C23 UNK     1      19.336   1.061  21.261  1.00  0.00     0.001 A 
ENDBRANCH  13  16
ENDBRANCH  10  12
BRANCH   3  27
HETATM   27  C2  UNK     1      20.815  -7.860  10.405  1.00  0.00    -0.044 C 
HETATM   28  C8  UNK     1      20.488  -8.711  11.651  1.00  0.00     0.015 C 
HETATM   29  C9  UNK     1      19.741  -8.139   9.336  1.00  0.00     0.015 C 
BRANCH  27  30
HETATM   30  C5  UNK     1      22.222  -8.282   9.896  1.00  0.00     0.004 C 
HETATM   31  C11 UNK     1      23.282  -7.187   9.908  1.00  0.00     0.006 C 
ENDBRANCH  27  30
ENDBRANCH   3  27
TORSDOF 4
ENDMDL
MODEL 7
REMARK VINA RESULT:      -8.8      2.133      3.672
REMARK  4 active torsions:
REMARK  status: ('A' for Active; 'I' for Inactive)
REMARK    1  A    between atoms: C13_19  and  N1_5 
REMARK       I    between atoms: C15_21  and  N1_5 
REMARK    2  A    between atoms: C1_7  and  C2_8 
REMARK    3  A    between atoms: C2_8  and  C5_11 
REMARK    4  A    between atoms: C15_21  and  C16_22 
ROOT
HETATM    1  S1  UNK     1      18.107   8.104  33.893  1.00  0.00    -0.075 SA
HETATM    2  N2  UNK     1      13.708   6.687  31.757  1.00  0.00    -0.191 NA
HETATM    3  C1  UNK     1      16.261  11.720  34.539  1.00  0.00    -0.002 C 
HETATM    4  C3  UNK     1      15.309  11.619  33.326  1.00  0.00     0.010 C 
HETATM    5  C4  UNK     1      17.487  10.797  34.359  1.00  0.00     0.052 C 
HETATM    6  C6  UNK     1      14.765  10.193  33.148  1.00  0.00     0.042 C 
HETATM    7  C7  UNK     1      17.068   9.452  33.851  1.00  0.00    -0.007 A 
HETATM    8  C10 UNK     1      15.845   9.165  33.277  1.00  0.00    -0.021 A 
HETATM    9  C12 UNK     1      15.768   7.798  32.873  1.00  0.00     0.085 A 
HETATM   10  C13 UNK     1      16.930   7.108  33.148  1.00  0.00     0.098 A 
HETATM   11  C14 UNK     1      14.631   7.185  32.257  1.00  0.00     0.103 C 
ENDROOT
BRANCH  10  12
HETATM   12  N1  UNK     1      17.283   5.804  32.932  1.00  0.00    -0.316 N 
HETATM   13  C15 UNK     1      18.100   5.318  31.903  1.00  0.00     0.262 C 
HETATM   14  O1  UNK     1      18.651   5.945  31.008  1.00  0.00    -0.267 OA
HETATM   15  H19 UNK     1      16.914   5.146  33.613  1.00  0.00     0.170 HD
BRANCH  13  16
HETATM   16  C16 UNK     1      18.276   3.852  31.966  1.00  0.00     0.108 A 
HETATM   17  C17 UNK     1      18.159   3.294  33.177  1.00  0.00     0.037 A 
HETATM   18  C19 UNK     1      18.317   1.856  33.340  1.00  0.00    -0.001 A 
HETATM   19  C20 UNK     1      18.588   1.078  32.219  1.00  0.00     0.089 A 
HETATM   20  C21 UNK     1      18.204   1.232  34.583  1.00  0.00     0.014 A 
HETATM   21  O2  UNK     1      18.709   1.670  30.947  1.00  0.00    -0.274 OA
HETATM   22  C22 UNK     1      18.751  -0.303  32.307  1.00  0.00     0.038 A 
HETATM   23  C18 UNK     1      18.564   3.043  30.759  1.00  0.00     0.304 A 
HETATM   24  O3  UNK     1      18.671   3.550  29.649  1.00  0.00    -0.259 OA
HETATM   25  C24 UNK     1      18.636  -0.919  33.552  1.00  0.00     0.003 A 
HETATM   26  C23 UNK     1      18.364  -0.153  34.688  1.00  0.00     0.001 A 
ENDBRANCH  13  16
ENDBRANCH  10  12
BRANCH   3  27
HETATM   27  C2  UNK     1      16.706  13.164  34.761  1.00  0.00    -0.044 C 
HETATM   28  C8  UNK     1      15.937  14.080  33.785  1.00  0.00     0.015 C 
HETATM   29  C9  UNK     1      16.359  13.595  36.199  1.00  0.00     0.015 C 
BRANCH  27  30
HETATM   30  C5  UNK     1      18.225  13.340  34.483  1.00  0.00     0.004 C 
HETATM   31  C11 UNK     1      18.578  14.153  33.242  1.00  0.00     0.006 C 
ENDBRANCH  27  30
ENDBRANCH   3  27
TORSDOF 4
ENDMDL
MODEL 8
REMARK VINA RESULT:      -8.8     15.358     18.888
REMARK  4 active torsions:
REMARK  status: ('A' for Active; 'I' for Inactive)
REMARK    1  A    between atoms: C13_19  and  N1_5 
REMARK       I    between atoms: C15_21  and  N1_5 
REMARK    2  A    between atoms: C1_7  and  C2_8 
REMARK    3  A    between atoms: C2_8  and  C5_11 
REMARK    4  A    between atoms: C15_21  and  C16_22 
ROOT
HETATM    1  S1  UNK     1      29.407  -7.290  36.075  1.00  0.00    -0.075 SA
HETATM    2  N2  UNK     1      29.651  -3.807  39.781  1.00  0.00    -0.191 NA
HETATM    3  C1  UNK     1      33.488  -6.851  35.831  1.00  0.00    -0.002 C 
HETATM    4  C3  UNK     1      33.508  -5.386  36.320  1.00  0.00     0.010 C 
HETATM    5  C4  UNK     1      32.094  -7.233  35.282  1.00  0.00     0.052 C 
HETATM    6  C6  UNK     1      32.506  -5.154  37.461  1.00  0.00     0.042 C 
HETATM    7  C7  UNK     1      31.013  -6.735  36.190  1.00  0.00    -0.007 A 
HETATM    8  C10 UNK     1      31.176  -5.775  37.169  1.00  0.00    -0.021 A 
HETATM    9  C12 UNK     1      29.947  -5.502  37.842  1.00  0.00     0.085 A 
HETATM   10  C13 UNK     1      28.905  -6.257  37.345  1.00  0.00     0.098 A 
HETATM   11  C14 UNK     1      29.784  -4.567  38.912  1.00  0.00     0.103 C 
ENDROOT
BRANCH  10  12
HETATM   12  N1  UNK     1      27.581  -6.313  37.690  1.00  0.00    -0.316 N 
HETATM   13  C15 UNK     1      26.943  -7.346  38.390  1.00  0.00     0.262 C 
HETATM   14  O1  UNK     1      27.425  -8.383  38.824  1.00  0.00    -0.267 OA
HETATM   15  H19 UNK     1      27.035  -5.503  37.412  1.00  0.00     0.170 HD
BRANCH  13  16
HETATM   16  C16 UNK     1      25.503  -7.083  38.593  1.00  0.00     0.108 A 
HETATM   17  C17 UNK     1      24.679  -8.120  38.401  1.00  0.00     0.037 A 
HETATM   18  C19 UNK     1      23.243  -7.959  38.577  1.00  0.00    -0.001 A 
HETATM   19  C20 UNK     1      22.746  -6.713  38.947  1.00  0.00     0.089 A 
HETATM   20  C21 UNK     1      22.347  -9.013  38.386  1.00  0.00     0.014 A 
HETATM   21  O2  UNK     1      23.618  -5.626  39.149  1.00  0.00    -0.274 OA
HETATM   22  C22 UNK     1      21.383  -6.493  39.131  1.00  0.00     0.038 A 
HETATM   23  C18 UNK     1      24.996  -5.749  38.989  1.00  0.00     0.304 A 
HETATM   24  O3  UNK     1      25.747  -4.796  39.166  1.00  0.00    -0.259 OA
HETATM   25  C24 UNK     1      20.496  -7.550  38.939  1.00  0.00     0.003 A 
HETATM   26  C23 UNK     1      20.977  -8.807  38.568  1.00  0.00     0.001 A 
ENDBRANCH  13  16
ENDBRANCH  10  12
BRANCH   3  27
HETATM   27  C2  UNK     1      34.562  -7.086  34.772  1.00  0.00    -0.044 C 
HETATM   28  C8  UNK     1      34.455  -8.540  34.266  1.00  0.00     0.015 C 
HETATM   29  C9  UNK     1      34.326  -6.141  33.578  1.00  0.00     0.015 C 
BRANCH  27  30
HETATM   30  C5  UNK     1      35.990  -6.889  35.357  1.00  0.00     0.004 C 
HETATM   31  C11 UNK     1      37.138  -7.309  34.446  1.00  0.00     0.006 C 
ENDBRANCH  27  30
ENDBRANCH   3  27
TORSDOF 4
ENDMDL
MODEL 9
REMARK VINA RESULT:      -8.5      5.839     12.152
REMARK  4 active torsions:
REMARK  status: ('A' for Active; 'I' for Inactive)
REMARK    1  A    between atoms: C13_19  and  N1_5 
REMARK       I    between atoms: C15_21  and  N1_5 
REMARK    2  A    between atoms: C1_7  and  C2_8 
REMARK    3  A    between atoms: C2_8  and  C5_11 
REMARK    4  A    between atoms: C15_21  and  C16_22 
ROOT
HETATM    1  S1  UNK     1      19.274  -2.274  36.894  1.00  0.00    -0.075 SA
HETATM    2  N2  UNK     1      20.605  -2.582  31.989  1.00  0.00    -0.191 NA
HETATM    3  C1  UNK     1      20.497  -6.191  37.141  1.00  0.00    -0.002 C 
HETATM    4  C3  UNK     1      20.186  -6.536  35.668  1.00  0.00     0.010 C 
HETATM    5  C4  UNK     1      19.695  -4.952  37.601  1.00  0.00     0.052 C 
HETATM    6  C6  UNK     1      20.569  -5.387  34.722  1.00  0.00     0.042 C 
HETATM    7  C7  UNK     1      19.737  -3.878  36.559  1.00  0.00    -0.007 A 
HETATM    8  C10 UNK     1      20.109  -4.062  35.242  1.00  0.00    -0.021 A 
HETATM    9  C12 UNK     1      20.016  -2.846  34.500  1.00  0.00     0.085 A 
HETATM   10  C13 UNK     1      19.574  -1.796  35.277  1.00  0.00     0.098 A 
HETATM   11  C14 UNK     1      20.341  -2.700  33.114  1.00  0.00     0.103 C 
ENDROOT
BRANCH  10  12
HETATM   12  N1  UNK     1      19.344  -0.480  34.977  1.00  0.00    -0.316 N 
HETATM   13  C15 UNK     1      18.252   0.038  34.269  1.00  0.00     0.262 C 
HETATM   14  O1  UNK     1      17.303  -0.565  33.784  1.00  0.00    -0.267 OA
HETATM   15  H19 UNK     1      20.044   0.165  35.333  1.00  0.00     0.170 HD
BRANCH  13  16
HETATM   16  C16 UNK     1      18.318   1.508  34.125  1.00  0.00     0.108 A 
HETATM   17  C17 UNK     1      18.301   1.981  32.873  1.00  0.00     0.037 A 
HETATM   18  C19 UNK     1      18.363   3.414  32.630  1.00  0.00    -0.001 A 
HETATM   19  C20 UNK     1      18.440   4.279  33.718  1.00  0.00     0.089 A 
HETATM   20  C21 UNK     1      18.348   3.952  31.342  1.00  0.00     0.014 A 
HETATM   21  O2  UNK     1      18.457   3.775  35.033  1.00  0.00    -0.274 OA
HETATM   22  C22 UNK     1      18.503   5.661  33.554  1.00  0.00     0.038 A 
HETATM   23  C18 UNK     1      18.399   2.409  35.297  1.00  0.00     0.304 A 
HETATM   24  O3  UNK     1      18.415   1.979  36.446  1.00  0.00    -0.259 OA
HETATM   25  C24 UNK     1      18.487   6.189  32.265  1.00  0.00     0.003 A 
HETATM   26  C23 UNK     1      18.410   5.337  31.161  1.00  0.00     0.001 A 
ENDBRANCH  13  16
ENDBRANCH  10  12
BRANCH   3  27
HETATM   27  C2  UNK     1      20.208  -7.383  38.051  1.00  0.00    -0.044 C 
HETATM   28  C8  UNK     1      21.381  -8.382  37.953  1.00  0.00     0.015 C 
HETATM   29  C9  UNK     1      20.105  -6.904  39.512  1.00  0.00     0.015 C 
BRANCH  27  30
HETATM   30  C5  UNK     1      18.912  -8.126  37.622  1.00  0.00     0.004 C 
HETATM   31  C11 UNK     1      19.031  -9.642  37.504  1.00  0.00     0.006 C 
ENDBRANCH  27  30
ENDBRANCH   3  27
TORSDOF 4
ENDMDL
MODEL 10
REMARK VINA RESULT:      -8.5     16.143     18.656
REMARK  4 active torsions:
REMARK  status: ('A' for Active; 'I' for Inactive)
REMARK    1  A    between atoms: C13_19  and  N1_5 
REMARK       I    between atoms: C15_21  and  N1_5 
REMARK    2  A    between atoms: C1_7  and  C2_8 
REMARK    3  A    between atoms: C2_8  and  C5_11 
REMARK    4  A    between atoms: C15_21  and  C16_22 
ROOT
HETATM    1  S1  UNK     1      29.673  -7.588  35.726  1.00  0.00    -0.075 SA
HETATM    2  N2  UNK     1      28.419  -4.138  39.254  1.00  0.00    -0.191 NA
HETATM    3  C1  UNK     1      33.434  -5.938  35.908  1.00  0.00    -0.002 C 
HETATM    4  C3  UNK     1      32.957  -4.528  36.321  1.00  0.00     0.010 C 
HETATM    5  C4  UNK     1      32.295  -6.732  35.230  1.00  0.00     0.052 C 
HETATM    6  C6  UNK     1      31.802  -4.592  37.332  1.00  0.00     0.042 C 
HETATM    7  C7  UNK     1      31.013  -6.571  35.987  1.00  0.00    -0.007 A 
HETATM    8  C10 UNK     1      30.764  -5.591  36.928  1.00  0.00    -0.021 A 
HETATM    9  C12 UNK     1      29.438  -5.694  37.447  1.00  0.00     0.085 A 
HETATM   10  C13 UNK     1      28.736  -6.736  36.879  1.00  0.00     0.098 A 
HETATM   11  C14 UNK     1      28.876  -4.835  38.444  1.00  0.00     0.103 C 
ENDROOT
BRANCH  10  12
HETATM   12  N1  UNK     1      27.459  -7.186  37.079  1.00  0.00    -0.316 N 
HETATM   13  C15 UNK     1      26.968  -7.827  38.225  1.00  0.00     0.262 C 
HETATM   14  O1  UNK     1      27.566  -8.110  39.255  1.00  0.00    -0.267 OA
HETATM   15  H19 UNK     1      26.821  -7.007  36.310  1.00  0.00     0.170 HD
BRANCH  13  16
HETATM   16  C16 UNK     1      25.538  -8.179  38.105  1.00  0.00     0.108 A 
HETATM   17  C17 UNK     1      24.695  -7.512  38.903  1.00  0.00     0.037 A 
HETATM   18  C19 UNK     1      23.267  -7.789  38.857  1.00  0.00    -0.001 A 
HETATM   19  C20 UNK     1      22.797  -8.755  37.973  1.00  0.00     0.089 A 
HETATM   20  C21 UNK     1      22.353  -7.118  39.671  1.00  0.00     0.014 A 
HETATM   21  O2  UNK     1      23.689  -9.454  37.136  1.00  0.00    -0.274 OA
HETATM   22  C22 UNK     1      21.443  -9.069  37.881  1.00  0.00     0.038 A 
HETATM   23  C18 UNK     1      25.060  -9.210  37.156  1.00  0.00     0.304 A 
HETATM   24  O3  UNK     1      25.828  -9.824  36.424  1.00  0.00    -0.259 OA
HETATM   25  C24 UNK     1      20.537  -8.394  38.696  1.00  0.00     0.003 A 
HETATM   26  C23 UNK     1      20.990  -7.420  39.590  1.00  0.00     0.001 A 
ENDBRANCH  13  16
ENDBRANCH  10  12
BRANCH   3  27
HETATM   27  C2  UNK     1      34.649  -5.853  34.987  1.00  0.00    -0.044 C 
HETATM   28  C8  UNK     1      34.772  -4.409  34.455  1.00  0.00     0.015 C 
HETATM   29  C9  UNK     1      35.926  -6.182  35.784  1.00  0.00     0.015 C 
BRANCH  27  30
HETATM   30  C5  UNK     1      34.503  -6.800  33.763  1.00  0.00     0.004 C 
HETATM   31  C11 UNK     1      35.464  -6.538  32.609  1.00  0.00     0.006 C 
ENDBRANCH  27  30
ENDBRANCH   3  27
TORSDOF 4
ENDMDL
