MODEL 1
REMARK VINA RESULT:      -9.0      0.000      0.000
REMARK  0 active torsions:
REMARK  status: ('A' for Active; 'I' for Inactive)
ROOT
HETATM    1  O1  UNK     1      20.896  -2.446  17.226  1.00  0.00    -0.303 OA
HETATM    2  O2  UNK     1      17.760  -5.629  15.660  1.00  0.00    -0.269 OA
HETATM    3  O3  UNK     1      18.358  -1.175  16.422  1.00  0.00    -0.265 OA
HETATM    4  O4  UNK     1      21.598  -5.698  14.812  1.00  0.00    -0.287 OA
HETATM    5  N1  UNK     1      18.289  -2.858  14.776  1.00  0.00    -0.329 N 
HETATM    6  N2  UNK     1      18.268  -5.939  13.374  1.00  0.00    -0.319 N 
HETATM    7  C1  UNK     1      19.103  -3.988  14.403  1.00  0.00     0.179 A 
HETATM    8  C2  UNK     1      19.464  -4.036  12.953  1.00  0.00     0.011 A 
HETATM    9  C3  UNK     1      20.215  -3.868  15.378  1.00  0.00     0.075 A 
HETATM   10  C4  UNK     1      18.289  -5.279  14.615  1.00  0.00     0.262 A 
HETATM   11  C5  UNK     1      18.956  -5.209  12.392  1.00  0.00     0.046 A 
HETATM   12  C6  UNK     1      20.069  -2.836  16.214  1.00  0.00     0.157 A 
HETATM   13  C7  UNK     1      18.812  -2.156  15.859  1.00  0.00     0.277 A 
HETATM   14  C8  UNK     1      21.396  -4.727  15.527  1.00  0.00     0.197 A 
HETATM   15  C9  UNK     1      20.181  -3.133  12.185  1.00  0.00     0.013 A 
HETATM   16  C10 UNK     1      19.146  -5.519  11.056  1.00  0.00     0.030 A 
HETATM   17  C11 UNK     1      22.325  -4.331  16.611  1.00  0.00     0.049 A 
HETATM   18  C12 UNK     1      17.615  -7.199  13.111  1.00  0.00     0.159 C 
HETATM   19  C13 UNK     1      22.029  -3.212  17.404  1.00  0.00     0.090 A 
HETATM   20  C14 UNK     1      20.382  -3.432  10.835  1.00  0.00     0.001 A 
HETATM   21  C15 UNK     1      19.869  -4.614  10.276  1.00  0.00     0.002 A 
HETATM   22  C16 UNK     1      23.490  -5.067  16.843  1.00  0.00     0.018 A 
HETATM   23  C17 UNK     1      22.897  -2.831  18.427  1.00  0.00     0.038 A 
HETATM   24  C18 UNK     1      24.354  -4.681  17.868  1.00  0.00     0.001 A 
HETATM   25  C19 UNK     1      24.059  -3.567  18.657  1.00  0.00     0.003 A 
HETATM   26  H1  UNK     1      17.410  -2.615  14.327  1.00  0.00     0.164 HD
ENDROOT
TORSDOF 0
ENDMDL
MODEL 2
REMARK VINA RESULT:      -8.7     13.400     15.502
REMARK  0 active torsions:
REMARK  status: ('A' for Active; 'I' for Inactive)
ROOT
HETATM    1  O1  UNK     1      14.512   7.096  10.485  1.00  0.00    -0.303 OA
HETATM    2  O2  UNK     1      12.451   6.651   6.246  1.00  0.00    -0.269 OA
HETATM    3  O3  UNK     1      14.795   4.362   9.413  1.00  0.00    -0.265 OA
HETATM    4  O4  UNK     1      10.914   8.658   9.257  1.00  0.00    -0.287 OA
HETATM    5  N1  UNK     1      12.662   4.737   8.489  1.00  0.00    -0.329 N 
HETATM    6  N2  UNK     1      10.180   6.183   6.698  1.00  0.00    -0.319 N 
HETATM    7  C1  UNK     1      11.718   5.826   8.450  1.00  0.00     0.179 A 
HETATM    8  C2  UNK     1      10.330   5.452   8.860  1.00  0.00     0.011 A 
HETATM    9  C3  UNK     1      12.422   6.839   9.274  1.00  0.00     0.075 A 
HETATM   10  C4  UNK     1      11.551   6.288   6.989  1.00  0.00     0.262 A 
HETATM   11  C5  UNK     1       9.457   5.688   7.795  1.00  0.00     0.046 A 
HETATM   12  C6  UNK     1      13.612   6.420   9.715  1.00  0.00     0.157 A 
HETATM   13  C7  UNK     1      13.810   5.050   9.212  1.00  0.00     0.277 A 
HETATM   14  C8  UNK     1      11.982   8.193   9.630  1.00  0.00     0.197 A 
HETATM   15  C9  UNK     1       9.862   4.953  10.064  1.00  0.00     0.013 A 
HETATM   16  C10 UNK     1       8.100   5.436   7.897  1.00  0.00     0.030 A 
HETATM   17  C11 UNK     1      12.929   8.958  10.474  1.00  0.00     0.049 A 
HETATM   18  C12 UNK     1       9.568   6.517   5.434  1.00  0.00     0.159 C 
HETATM   19  C13 UNK     1      14.145   8.371  10.858  1.00  0.00     0.090 A 
HETATM   20  C14 UNK     1       8.495   4.694  10.183  1.00  0.00     0.001 A 
HETATM   21  C15 UNK     1       7.621   4.933   9.109  1.00  0.00     0.002 A 
HETATM   22  C16 UNK     1      12.616  10.256  10.885  1.00  0.00     0.018 A 
HETATM   23  C17 UNK     1      15.044   9.082  11.652  1.00  0.00     0.038 A 
HETATM   24  C18 UNK     1      13.520  10.962  11.679  1.00  0.00     0.001 A 
HETATM   25  C19 UNK     1      14.729  10.378  12.061  1.00  0.00     0.003 A 
HETATM   26  H1  UNK     1      12.529   3.849   8.013  1.00  0.00     0.164 HD
ENDROOT
TORSDOF 0
ENDMDL
MODEL 3
REMARK VINA RESULT:      -8.6     17.878     20.709
REMARK  0 active torsions:
REMARK  status: ('A' for Active; 'I' for Inactive)
ROOT
HETATM    1  O1  UNK     1      18.715   2.526  31.037  1.00  0.00    -0.303 OA
HETATM    2  O2  UNK     1      20.760   6.490  32.626  1.00  0.00    -0.269 OA
HETATM    3  O3  UNK     1      18.961   4.558  28.911  1.00  0.00    -0.265 OA
HETATM    4  O4  UNK     1      18.096   4.412  34.636  1.00  0.00    -0.287 OA
HETATM    5  N1  UNK     1      18.597   6.105  30.648  1.00  0.00    -0.329 N 
HETATM    6  N2  UNK     1      19.009   7.764  33.570  1.00  0.00    -0.319 N 
HETATM    7  C1  UNK     1      18.399   6.045  32.076  1.00  0.00     0.179 A 
HETATM    8  C2  UNK     1      17.200   6.793  32.563  1.00  0.00     0.011 A 
HETATM    9  C3  UNK     1      18.425   4.579  32.303  1.00  0.00     0.075 A 
HETATM   10  C4  UNK     1      19.576   6.756  32.772  1.00  0.00     0.262 A 
HETATM   11  C5  UNK     1      17.611   7.793  33.448  1.00  0.00     0.046 A 
HETATM   12  C6  UNK     1      18.629   3.880  31.183  1.00  0.00     0.157 A 
HETATM   13  C7  UNK     1      18.758   4.845  30.078  1.00  0.00     0.277 A 
HETATM   14  C8  UNK     1      18.272   3.848  33.566  1.00  0.00     0.197 A 
HETATM   15  C9  UNK     1      15.859   6.617  32.265  1.00  0.00     0.013 A 
HETATM   16  C10 UNK     1      16.705   8.640  34.061  1.00  0.00     0.030 A 
HETATM   17  C11 UNK     1      18.351   2.373  33.449  1.00  0.00     0.049 A 
HETATM   18  C12 UNK     1      19.749   8.680  34.406  1.00  0.00     0.159 C 
HETATM   19  C13 UNK     1      18.568   1.788  32.192  1.00  0.00     0.090 A 
HETATM   20  C14 UNK     1      14.932   7.463  32.876  1.00  0.00     0.001 A 
HETATM   21  C15 UNK     1      15.351   8.467  33.766  1.00  0.00     0.002 A 
HETATM   22  C16 UNK     1      18.210   1.568  34.582  1.00  0.00     0.018 A 
HETATM   23  C17 UNK     1      18.643   0.401  32.070  1.00  0.00     0.038 A 
HETATM   24  C18 UNK     1      18.287   0.181  34.454  1.00  0.00     0.001 A 
HETATM   25  C19 UNK     1      18.503  -0.401  33.203  1.00  0.00     0.003 A 
HETATM   26  H1  UNK     1      18.651   6.969  30.116  1.00  0.00     0.164 HD
ENDROOT
TORSDOF 0
ENDMDL
MODEL 4
REMARK VINA RESULT:      -8.4     18.644     21.750
REMARK  0 active torsions:
REMARK  status: ('A' for Active; 'I' for Inactive)
ROOT
HETATM    1  O1  UNK     1      29.836  -5.518  36.614  1.00  0.00    -0.303 OA
HETATM    2  O2  UNK     1      29.956 -10.003  35.104  1.00  0.00    -0.269 OA
HETATM    3  O3  UNK     1      27.301  -6.924  37.162  1.00  0.00    -0.265 OA
HETATM    4  O4  UNK     1      31.445  -6.956  33.116  1.00  0.00    -0.287 OA
HETATM    5  N1  UNK     1      27.739  -8.048  35.140  1.00  0.00    -0.329 N 
HETATM    6  N2  UNK     1      29.353  -9.914  32.821  1.00  0.00    -0.319 N 
HETATM    7  C1  UNK     1      28.791  -8.050  34.153  1.00  0.00     0.179 A 
HETATM    8  C2  UNK     1      28.316  -7.877  32.747  1.00  0.00     0.011 A 
HETATM    9  C3  UNK     1      29.693  -7.007  34.701  1.00  0.00     0.075 A 
HETATM   10  C4  UNK     1      29.459  -9.439  34.140  1.00  0.00     0.262 A 
HETATM   11  C5  UNK     1      28.679  -8.999  31.998  1.00  0.00     0.046 A 
HETATM   12  C6  UNK     1      29.253  -6.484  35.848  1.00  0.00     0.157 A 
HETATM   13  C7  UNK     1      27.980  -7.148  36.175  1.00  0.00     0.277 A 
HETATM   14  C8  UNK     1      30.965  -6.521  34.153  1.00  0.00     0.197 A 
HETATM   15  C9  UNK     1      27.629  -6.825  32.163  1.00  0.00     0.013 A 
HETATM   16  C10 UNK     1      28.370  -9.106  30.653  1.00  0.00     0.030 A 
HETATM   17  C11 UNK     1      31.627  -5.463  34.952  1.00  0.00     0.049 A 
HETATM   18  C12 UNK     1      29.851 -11.184  32.350  1.00  0.00     0.159 C 
HETATM   19  C13 UNK     1      31.030  -5.016  36.140  1.00  0.00     0.090 A 
HETATM   20  C14 UNK     1      27.311  -6.918  30.806  1.00  0.00     0.001 A 
HETATM   21  C15 UNK     1      27.679  -8.050  30.058  1.00  0.00     0.002 A 
HETATM   22  C16 UNK     1      32.839  -4.914  34.526  1.00  0.00     0.018 A 
HETATM   23  C17 UNK     1      31.644  -4.021  36.900  1.00  0.00     0.038 A 
HETATM   24  C18 UNK     1      33.449  -3.919  35.291  1.00  0.00     0.001 A 
HETATM   25  C19 UNK     1      32.854  -3.474  36.473  1.00  0.00     0.003 A 
HETATM   26  H1  UNK     1      26.928  -8.659  35.110  1.00  0.00     0.164 HD
ENDROOT
TORSDOF 0
ENDMDL
MODEL 5
REMARK VINA RESULT:      -8.4     19.135     23.296
REMARK  0 active torsions:
REMARK  status: ('A' for Active; 'I' for Inactive)
ROOT
HETATM    1  O1  UNK     1      30.954  -7.609  32.638  1.00  0.00    -0.303 OA
HETATM    2  O2  UNK     1      29.467  -9.622  36.657  1.00  0.00    -0.269 OA
HETATM    3  O3  UNK     1      33.206  -8.288  34.419  1.00  0.00    -0.265 OA
HETATM    4  O4  UNK     1      27.697  -6.570  34.921  1.00  0.00    -0.287 OA
HETATM    5  N1  UNK     1      31.707  -7.759  36.157  1.00  0.00    -0.329 N 
HETATM    6  N2  UNK     1      28.935  -7.827  38.099  1.00  0.00    -0.319 N 
HETATM    7  C1  UNK     1      30.329  -7.347  36.258  1.00  0.00     0.179 A 
HETATM    8  C2  UNK     1      30.109  -6.135  37.104  1.00  0.00     0.011 A 
HETATM    9  C3  UNK     1      29.957  -7.253  34.824  1.00  0.00     0.075 A 
HETATM   10  C4  UNK     1      29.533  -8.447  36.988  1.00  0.00     0.262 A 
HETATM   11  C5  UNK     1      29.274  -6.467  38.174  1.00  0.00     0.046 A 
HETATM   12  C6  UNK     1      30.957  -7.581  34.001  1.00  0.00     0.157 A 
HETATM   13  C7  UNK     1      32.119  -7.930  34.837  1.00  0.00     0.277 A 
HETATM   14  C8  UNK     1      28.667  -6.871  34.239  1.00  0.00     0.197 A 
HETATM   15  C9  UNK     1      30.592  -4.846  36.954  1.00  0.00     0.013 A 
HETATM   16  C10 UNK     1      28.896  -5.530  39.119  1.00  0.00     0.030 A 
HETATM   17  C11 UNK     1      28.624  -6.880  32.758  1.00  0.00     0.049 A 
HETATM   18  C12 UNK     1      28.090  -8.486  39.065  1.00  0.00     0.159 C 
HETATM   19  C13 UNK     1      29.769  -7.247  32.034  1.00  0.00     0.090 A 
HETATM   20  C14 UNK     1      30.218  -3.888  37.900  1.00  0.00     0.001 A 
HETATM   21  C15 UNK     1      29.378  -4.228  38.974  1.00  0.00     0.002 A 
HETATM   22  C16 UNK     1      27.452  -6.525  32.085  1.00  0.00     0.018 A 
HETATM   23  C17 UNK     1      29.739  -7.259  30.639  1.00  0.00     0.038 A 
HETATM   24  C18 UNK     1      27.429  -6.539  30.690  1.00  0.00     0.001 A 
HETATM   25  C19 UNK     1      28.568  -6.904  29.970  1.00  0.00     0.003 A 
HETATM   26  H1  UNK     1      32.308  -7.943  36.956  1.00  0.00     0.164 HD
ENDROOT
TORSDOF 0
ENDMDL
MODEL 6
REMARK VINA RESULT:      -8.3     18.786     22.897
REMARK  0 active torsions:
REMARK  status: ('A' for Active; 'I' for Inactive)
ROOT
HETATM    1  O1  UNK     1      30.336  -9.388  32.311  1.00  0.00    -0.303 OA
HETATM    2  O2  UNK     1      29.406  -8.845  36.922  1.00  0.00    -0.269 OA
HETATM    3  O3  UNK     1      32.571 -10.325  33.995  1.00  0.00    -0.265 OA
HETATM    4  O4  UNK     1      28.506  -6.202  34.153  1.00  0.00    -0.287 OA
HETATM    5  N1  UNK     1      31.942  -8.565  35.428  1.00  0.00    -0.329 N 
HETATM    6  N2  UNK     1      30.024  -6.622  37.429  1.00  0.00    -0.319 N 
HETATM    7  C1  UNK     1      30.911  -7.557  35.454  1.00  0.00     0.179 A 
HETATM    8  C2  UNK     1      31.415  -6.167  35.671  1.00  0.00     0.011 A 
HETATM    9  C3  UNK     1      30.213  -7.836  34.176  1.00  0.00     0.075 A 
HETATM   10  C4  UNK     1      30.002  -7.807  36.673  1.00  0.00     0.262 A 
HETATM   11  C5  UNK     1      30.857  -5.654  36.845  1.00  0.00     0.046 A 
HETATM   12  C6  UNK     1      30.737  -8.867  33.506  1.00  0.00     0.157 A 
HETATM   13  C7  UNK     1      31.866  -9.379  34.300  1.00  0.00     0.277 A 
HETATM   14  C8  UNK     1      29.053  -7.145  33.599  1.00  0.00     0.197 A 
HETATM   15  C9  UNK     1      32.285  -5.406  34.908  1.00  0.00     0.013 A 
HETATM   16  C10 UNK     1      31.146  -4.376  37.290  1.00  0.00     0.030 A 
HETATM   17  C11 UNK     1      28.592  -7.677  32.295  1.00  0.00     0.049 A 
HETATM   18  C12 UNK     1      29.305  -6.406  38.662  1.00  0.00     0.159 C 
HETATM   19  C13 UNK     1      29.256  -8.770  31.718  1.00  0.00     0.090 A 
HETATM   20  C14 UNK     1      32.586  -4.114  35.343  1.00  0.00     0.001 A 
HETATM   21  C15 UNK     1      32.021  -3.603  36.524  1.00  0.00     0.002 A 
HETATM   22  C16 UNK     1      27.502  -7.095  31.643  1.00  0.00     0.018 A 
HETATM   23  C17 UNK     1      28.830  -9.278  30.491  1.00  0.00     0.038 A 
HETATM   24  C18 UNK     1      27.080  -7.608  30.416  1.00  0.00     0.001 A 
HETATM   25  C19 UNK     1      27.742  -8.695  29.843  1.00  0.00     0.003 A 
HETATM   26  H1  UNK     1      32.629  -8.698  36.165  1.00  0.00     0.164 HD
ENDROOT
TORSDOF 0
ENDMDL
MODEL 7
REMARK VINA RESULT:      -8.2     20.199     23.075
REMARK  0 active torsions:
REMARK  status: ('A' for Active; 'I' for Inactive)
ROOT
HETATM    1  O1  UNK     1      35.127  -5.883  34.401  1.00  0.00    -0.303 OA
HETATM    2  O2  UNK     1      31.240  -6.354  37.063  1.00  0.00    -0.269 OA
HETATM    3  O3  UNK     1      34.029  -3.265  35.206  1.00  0.00    -0.265 OA
HETATM    4  O4  UNK     1      32.033  -8.542  33.894  1.00  0.00    -0.287 OA
HETATM    5  N1  UNK     1      31.937  -4.331  35.023  1.00  0.00    -0.329 N 
HETATM    6  N2  UNK     1      29.454  -6.574  35.533  1.00  0.00    -0.319 N 
HETATM    7  C1  UNK     1      31.464  -5.656  34.709  1.00  0.00     0.179 A 
HETATM    8  C2  UNK     1      30.411  -5.699  33.649  1.00  0.00     0.011 A 
HETATM    9  C3  UNK     1      32.743  -6.352  34.427  1.00  0.00     0.075 A 
HETATM   10  C4  UNK     1      30.754  -6.237  35.948  1.00  0.00     0.262 A 
HETATM   11  C5  UNK     1      29.246  -6.256  34.181  1.00  0.00     0.046 A 
HETATM   12  C6  UNK     1      33.812  -5.564  34.574  1.00  0.00     0.157 A 
HETATM   13  C7  UNK     1      33.325  -4.233  34.975  1.00  0.00     0.277 A 
HETATM   14  C8  UNK     1      32.955  -7.751  34.037  1.00  0.00     0.197 A 
HETATM   15  C9  UNK     1      30.464  -5.292  32.326  1.00  0.00     0.013 A 
HETATM   16  C10 UNK     1      28.105  -6.424  33.416  1.00  0.00     0.030 A 
HETATM   17  C11 UNK     1      34.371  -8.136  33.830  1.00  0.00     0.049 A 
HETATM   18  C12 UNK     1      28.436  -7.158  36.373  1.00  0.00     0.159 C 
HETATM   19  C13 UNK     1      35.383  -7.184  34.022  1.00  0.00     0.090 A 
HETATM   20  C14 UNK     1      29.321  -5.456  31.541  1.00  0.00     0.001 A 
HETATM   21  C15 UNK     1      28.151  -6.017  32.081  1.00  0.00     0.002 A 
HETATM   22  C16 UNK     1      34.698  -9.439  33.447  1.00  0.00     0.018 A 
HETATM   23  C17 UNK     1      36.719  -7.535  33.831  1.00  0.00     0.038 A 
HETATM   24  C18 UNK     1      36.036  -9.785  33.257  1.00  0.00     0.001 A 
HETATM   25  C19 UNK     1      37.043  -8.837  33.448  1.00  0.00     0.003 A 
HETATM   26  H1  UNK     1      31.333  -3.557  35.288  1.00  0.00     0.164 HD
ENDROOT
TORSDOF 0
ENDMDL
MODEL 8
REMARK VINA RESULT:      -8.1     19.120     23.267
REMARK  0 active torsions:
REMARK  status: ('A' for Active; 'I' for Inactive)
ROOT
HETATM    1  O1  UNK     1      30.690  -5.191  32.764  1.00  0.00    -0.303 OA
HETATM    2  O2  UNK     1      32.148  -8.658  35.640  1.00  0.00    -0.269 OA
HETATM    3  O3  UNK     1      32.813  -4.272  34.596  1.00  0.00    -0.265 OA
HETATM    4  O4  UNK     1      28.392  -8.013  34.674  1.00  0.00    -0.287 OA
HETATM    5  N1  UNK     1      31.829  -5.761  36.133  1.00  0.00    -0.329 N 
HETATM    6  N2  UNK     1      30.641  -8.640  37.460  1.00  0.00    -0.319 N 
HETATM    7  C1  UNK     1      30.733  -6.698  36.124  1.00  0.00     0.179 A 
HETATM    8  C2  UNK     1      29.773  -6.534  37.257  1.00  0.00     0.011 A 
HETATM    9  C3  UNK     1      30.206  -6.502  34.751  1.00  0.00     0.075 A 
HETATM   10  C4  UNK     1      31.293  -8.120  36.328  1.00  0.00     0.262 A 
HETATM   11  C5  UNK     1      29.748  -7.709  38.012  1.00  0.00     0.046 A 
HETATM   12  C6  UNK     1      30.899  -5.601  34.048  1.00  0.00     0.157 A 
HETATM   13  C7  UNK     1      31.979  -5.101  34.916  1.00  0.00     0.277 A 
HETATM   14  C8  UNK     1      29.069  -7.168  34.105  1.00  0.00     0.197 A 
HETATM   15  C9  UNK     1      28.981  -5.451  37.602  1.00  0.00     0.013 A 
HETATM   16  C10 UNK     1      28.936  -7.841  39.126  1.00  0.00     0.030 A 
HETATM   17  C11 UNK     1      28.803  -6.743  32.711  1.00  0.00     0.049 A 
HETATM   18  C12 UNK     1      30.857  -9.955  38.014  1.00  0.00     0.159 C 
HETATM   19  C13 UNK     1      29.626  -5.777  32.113  1.00  0.00     0.090 A 
HETATM   20  C14 UNK     1      28.156  -5.569  38.723  1.00  0.00     0.001 A 
HETATM   21  C15 UNK     1      28.134  -6.754  39.478  1.00  0.00     0.002 A 
HETATM   22  C16 UNK     1      27.740  -7.300  31.996  1.00  0.00     0.018 A 
HETATM   23  C17 UNK     1      29.385  -5.370  30.801  1.00  0.00     0.038 A 
HETATM   24  C18 UNK     1      27.504  -6.888  30.684  1.00  0.00     0.001 A 
HETATM   25  C19 UNK     1      28.323  -5.927  30.089  1.00  0.00     0.003 A 
HETATM   26  H1  UNK     1      32.452  -5.618  36.924  1.00  0.00     0.164 HD
ENDROOT
TORSDOF 0
ENDMDL
MODEL 9
REMARK VINA RESULT:      -8.1     18.969     22.227
REMARK  0 active torsions:
REMARK  status: ('A' for Active; 'I' for Inactive)
ROOT
HETATM    1  O1  UNK     1      28.286  -7.517  37.344  1.00  0.00    -0.303 OA
HETATM    2  O2  UNK     1      31.336  -9.660  34.426  1.00  0.00    -0.269 OA
HETATM    3  O3  UNK     1      27.156  -9.995  36.210  1.00  0.00    -0.265 OA
HETATM    4  O4  UNK     1      30.765  -5.773  34.568  1.00  0.00    -0.287 OA
HETATM    5  N1  UNK     1      28.392  -9.422  34.290  1.00  0.00    -0.329 N 
HETATM    6  N2  UNK     1      31.031  -8.622  32.326  1.00  0.00    -0.319 N 
HETATM    7  C1  UNK     1      29.301  -8.369  33.908  1.00  0.00     0.179 A 
HETATM    8  C2  UNK     1      28.959  -7.699  32.617  1.00  0.00     0.011 A 
HETATM    9  C3  UNK     1      29.292  -7.532  35.133  1.00  0.00     0.075 A 
HETATM   10  C4  UNK     1      30.689  -8.982  33.641  1.00  0.00     0.262 A 
HETATM   11  C5  UNK     1      30.014  -7.869  31.718  1.00  0.00     0.046 A 
HETATM   12  C6  UNK     1      28.514  -8.027  36.100  1.00  0.00     0.157 A 
HETATM   13  C7  UNK     1      27.915  -9.272  35.589  1.00  0.00     0.277 A 
HETATM   14  C8  UNK     1      30.022  -6.286  35.393  1.00  0.00     0.197 A 
HETATM   15  C9  UNK     1      27.824  -6.993  32.254  1.00  0.00     0.013 A 
HETATM   16  C10 UNK     1      29.972  -7.343  30.438  1.00  0.00     0.030 A 
HETATM   17  C11 UNK     1      29.794  -5.694  36.732  1.00  0.00     0.049 A 
HETATM   18  C12 UNK     1      32.258  -8.982  31.655  1.00  0.00     0.159 C 
HETATM   19  C13 UNK     1      28.939  -6.339  37.638  1.00  0.00     0.090 A 
HETATM   20  C14 UNK     1      27.766  -6.455  30.967  1.00  0.00     0.001 A 
HETATM   21  C15 UNK     1      28.831  -6.629  30.066  1.00  0.00     0.002 A 
HETATM   22  C16 UNK     1      30.427  -4.501  37.092  1.00  0.00     0.018 A 
HETATM   23  C17 UNK     1      28.717  -5.790  38.901  1.00  0.00     0.038 A 
HETATM   24  C18 UNK     1      30.202  -3.958  38.357  1.00  0.00     0.001 A 
HETATM   25  C19 UNK     1      29.350  -4.600  39.258  1.00  0.00     0.003 A 
HETATM   26  H1  UNK     1      28.151 -10.210  33.695  1.00  0.00     0.164 HD
ENDROOT
TORSDOF 0
ENDMDL
MODEL 10
REMARK VINA RESULT:      -8.0     20.296     23.357
REMARK  0 active torsions:
REMARK  status: ('A' for Active; 'I' for Inactive)
ROOT
HETATM    1  O1  UNK     1      29.152  -9.447  32.655  1.00  0.00    -0.303 OA
HETATM    2  O2  UNK     1      31.238  -5.581  34.421  1.00  0.00    -0.269 OA
HETATM    3  O3  UNK     1      27.553  -7.018  32.157  1.00  0.00    -0.265 OA
HETATM    4  O4  UNK     1      31.107  -9.058  36.250  1.00  0.00    -0.287 OA
HETATM    5  N1  UNK     1      28.378  -6.310  34.245  1.00  0.00    -0.329 N 
HETATM    6  N2  UNK     1      30.575  -5.489  36.687  1.00  0.00    -0.319 N 
HETATM    7  C1  UNK     1      29.279  -6.831  35.244  1.00  0.00     0.179 A 
HETATM    8  C2  UNK     1      28.725  -6.833  36.632  1.00  0.00     0.011 A 
HETATM    9  C3  UNK     1      29.630  -8.144  34.649  1.00  0.00     0.075 A 
HETATM   10  C4  UNK     1      30.503  -5.900  35.344  1.00  0.00     0.262 A 
HETATM   11  C5  UNK     1      29.529  -6.033  37.448  1.00  0.00     0.046 A 
HETATM   12  C6  UNK     1      29.042  -8.357  33.468  1.00  0.00     0.157 A 
HETATM   13  C7  UNK     1      28.222  -7.173  33.163  1.00  0.00     0.277 A 
HETATM   14  C8  UNK     1      30.521  -9.180  35.183  1.00  0.00     0.197 A 
HETATM   15  C9  UNK     1      27.615  -7.482  37.146  1.00  0.00     0.013 A 
HETATM   16  C10 UNK     1      29.253  -5.858  38.793  1.00  0.00     0.030 A 
HETATM   17  C11 UNK     1      30.661 -10.386  34.334  1.00  0.00     0.049 A 
HETATM   18  C12 UNK     1      31.577  -4.607  37.236  1.00  0.00     0.159 C 
HETATM   19  C13 UNK     1      29.970 -10.458  33.114  1.00  0.00     0.090 A 
HETATM   20  C14 UNK     1      27.324  -7.316  38.502  1.00  0.00     0.001 A 
HETATM   21  C15 UNK     1      28.136  -6.511  39.318  1.00  0.00     0.002 A 
HETATM   22  C16 UNK     1      31.475 -11.445  34.742  1.00  0.00     0.018 A 
HETATM   23  C17 UNK     1      30.094 -11.588  32.307  1.00  0.00     0.038 A 
HETATM   24  C18 UNK     1      31.595 -12.573  33.930  1.00  0.00     0.001 A 
HETATM   25  C19 UNK     1      30.908 -12.644  32.717  1.00  0.00     0.003 A 
HETATM   26  H1  UNK     1      27.931  -5.399  34.300  1.00  0.00     0.164 HD
ENDROOT
TORSDOF 0
ENDMDL
