MODEL 1
REMARK VINA RESULT:      -9.0      0.000      0.000
REMARK  1 active torsions:
REMARK  status: ('A' for Active; 'I' for Inactive)
REMARK    1  A    between atoms: C1_6  and  C4_9 
ROOT
HETATM    1  N1  UNK     1      19.873  -2.579  35.145  1.00  0.00    -0.261 N 
HETATM    2  N2  UNK     1      20.551  -3.069  34.084  1.00  0.00    -0.300 N 
HETATM    3  N3  UNK     1      19.307  -2.128  37.512  1.00  0.00    -0.256 NA
HETATM    4  C1  UNK     1      20.101  -2.903  36.532  1.00  0.00     0.269 C 
HETATM    5  C2  UNK     1      19.131  -1.477  34.760  1.00  0.00     0.068 A 
HETATM    6  C3  UNK     1      18.445  -0.712  35.616  1.00  0.00     0.021 A 
HETATM    7  C5  UNK     1      18.582  -1.153  37.060  1.00  0.00     0.066 A 
HETATM    8  C6  UNK     1      19.315  -1.375  33.311  1.00  0.00     0.058 A 
HETATM    9  C7  UNK     1      20.173  -2.359  32.952  1.00  0.00     0.024 A 
HETATM   10  C9  UNK     1      17.642   0.443  35.289  1.00  0.00     0.016 A 
HETATM   11  C11 UNK     1      17.785  -0.346  38.036  1.00  0.00     0.032 A 
HETATM   12  C13 UNK     1      20.657  -2.716  31.598  1.00  0.00     0.070 C 
HETATM   13  C15 UNK     1      16.985   1.109  36.247  1.00  0.00     0.001 A 
HETATM   14  C16 UNK     1      17.054   0.699  37.628  1.00  0.00     0.002 A 
HETATM   15  H2  UNK     1      20.918  -4.010  34.029  1.00  0.00     0.187 HD
ENDROOT
BRANCH   4  16
HETATM   16  C4  UNK     1      19.806  -4.355  36.746  1.00  0.00     0.061 A 
HETATM   17  C10 UNK     1      18.625  -4.925  36.474  1.00  0.00     0.157 A 
HETATM   18  O1  UNK     1      18.291  -6.245  36.646  1.00  0.00    -0.321 OA
HETATM   19  C14 UNK     1      19.255  -7.084  37.147  1.00  0.00     0.089 A 
HETATM   20  C12 UNK     1      20.537  -6.645  37.479  1.00  0.00     0.049 A 
HETATM   21  C18 UNK     1      18.909  -8.425  37.318  1.00  0.00     0.038 A 
HETATM   22  C17 UNK     1      21.479  -7.544  37.985  1.00  0.00     0.018 A 
HETATM   23  C8  UNK     1      20.880  -5.223  37.290  1.00  0.00     0.197 A 
HETATM   24  C19 UNK     1      21.130  -8.885  38.156  1.00  0.00     0.001 A 
HETATM   25  C20 UNK     1      19.848  -9.324  37.823  1.00  0.00     0.003 A 
HETATM   26  O2  UNK     1      21.990  -4.790  37.567  1.00  0.00    -0.287 OA
ENDBRANCH   4  16
TORSDOF 1
ENDMDL
MODEL 2
REMARK VINA RESULT:      -8.9      4.557      8.800
REMARK  1 active torsions:
REMARK  status: ('A' for Active; 'I' for Inactive)
REMARK    1  A    between atoms: C1_6  and  C4_9 
ROOT
HETATM    1  N1  UNK     1      18.873  -0.017  32.676  1.00  0.00    -0.261 N 
HETATM    2  N2  UNK     1      19.066   0.201  31.356  1.00  0.00    -0.300 N 
HETATM    3  N3  UNK     1      17.806   0.120  34.904  1.00  0.00    -0.256 NA
HETATM    4  C1  UNK     1      17.903   0.635  33.519  1.00  0.00     0.269 C 
HETATM    5  C2  UNK     1      19.517  -1.181  33.058  1.00  0.00     0.068 A 
HETATM    6  C3  UNK     1      19.413  -1.715  34.280  1.00  0.00     0.021 A 
HETATM    7  C5  UNK     1      18.495  -0.936  35.202  1.00  0.00     0.066 A 
HETATM    8  C6  UNK     1      20.239  -1.632  31.867  1.00  0.00     0.058 A 
HETATM    9  C7  UNK     1      19.940  -0.763  30.872  1.00  0.00     0.024 A 
HETATM   10  C9  UNK     1      20.060  -2.916  34.754  1.00  0.00     0.016 A 
HETATM   11  C11 UNK     1      18.398  -1.482  36.591  1.00  0.00     0.032 A 
HETATM   12  C13 UNK     1      20.442  -0.746  29.478  1.00  0.00     0.070 C 
HETATM   13  C15 UNK     1      19.886  -3.329  36.016  1.00  0.00     0.001 A 
HETATM   14  C16 UNK     1      19.056  -2.596  36.939  1.00  0.00     0.002 A 
HETATM   15  H2  UNK     1      18.958   1.101  30.908  1.00  0.00     0.187 HD
ENDROOT
BRANCH   4  16
HETATM   16  C4  UNK     1      18.225   2.095  33.593  1.00  0.00     0.061 A 
HETATM   17  C10 UNK     1      18.742   2.693  34.674  1.00  0.00     0.157 A 
HETATM   18  O1  UNK     1      19.061   4.021  34.806  1.00  0.00    -0.321 OA
HETATM   19  C14 UNK     1      18.833   4.838  33.726  1.00  0.00     0.089 A 
HETATM   20  C12 UNK     1      18.300   4.369  32.526  1.00  0.00     0.049 A 
HETATM   21  C18 UNK     1      19.160   6.187  33.867  1.00  0.00     0.038 A 
HETATM   22  C17 UNK     1      18.090   5.246  31.459  1.00  0.00     0.018 A 
HETATM   23  C8  UNK     1      17.962   2.939  32.400  1.00  0.00     0.197 A 
HETATM   24  C19 UNK     1      18.417   6.596  31.602  1.00  0.00     0.001 A 
HETATM   25  C20 UNK     1      18.951   7.066  32.803  1.00  0.00     0.003 A 
HETATM   26  O2  UNK     1      17.492   2.480  31.369  1.00  0.00    -0.287 OA
ENDBRANCH   4  16
TORSDOF 1
ENDMDL
MODEL 3
REMARK VINA RESULT:      -8.8     27.941     30.320
REMARK  1 active torsions:
REMARK  status: ('A' for Active; 'I' for Inactive)
REMARK    1  A    between atoms: C1_6  and  C4_9 
ROOT
HETATM    1  N1  UNK     1       6.245   3.817  10.315  1.00  0.00    -0.261 N 
HETATM    2  N2  UNK     1       6.117   2.875   9.355  1.00  0.00    -0.300 N 
HETATM    3  N3  UNK     1       6.590   6.050  11.324  1.00  0.00    -0.256 NA
HETATM    4  C1  UNK     1       6.659   5.185  10.125  1.00  0.00     0.269 C 
HETATM    5  C2  UNK     1       5.622   3.392  11.475  1.00  0.00     0.068 A 
HETATM    6  C3  UNK     1       5.484   4.157  12.563  1.00  0.00     0.021 A 
HETATM    7  C5  UNK     1       6.053   5.552  12.394  1.00  0.00     0.066 A 
HETATM    8  C6  UNK     1       5.174   2.026  11.195  1.00  0.00     0.058 A 
HETATM    9  C7  UNK     1       5.501   1.760   9.908  1.00  0.00     0.024 A 
HETATM   10  C9  UNK     1       4.858   3.781  13.809  1.00  0.00     0.016 A 
HETATM   11  C11 UNK     1       5.958   6.416  13.612  1.00  0.00     0.032 A 
HETATM   12  C13 UNK     1       5.306   0.506   9.144  1.00  0.00     0.070 C 
HETATM   13  C15 UNK     1       4.808   4.643  14.833  1.00  0.00     0.001 A 
HETATM   14  C16 UNK     1       5.374   5.966  14.729  1.00  0.00     0.002 A 
HETATM   15  H2  UNK     1       6.714   2.810   8.541  1.00  0.00     0.187 HD
ENDROOT
BRANCH   4  16
HETATM   16  C4  UNK     1       8.070   5.200   9.628  1.00  0.00     0.061 A 
HETATM   17  C10 UNK     1       9.085   4.574  10.238  1.00  0.00     0.157 A 
HETATM   18  O1  UNK     1      10.396   4.547   9.834  1.00  0.00    -0.321 OA
HETATM   19  C14 UNK     1      10.722   5.228   8.688  1.00  0.00     0.089 A 
HETATM   20  C12 UNK     1       9.780   5.931   7.936  1.00  0.00     0.049 A 
HETATM   21  C18 UNK     1      12.057   5.197   8.283  1.00  0.00     0.038 A 
HETATM   22  C17 UNK     1      10.168   6.606   6.776  1.00  0.00     0.018 A 
HETATM   23  C8  UNK     1       8.374   5.950   8.383  1.00  0.00     0.197 A 
HETATM   24  C19 UNK     1      11.504   6.574   6.374  1.00  0.00     0.001 A 
HETATM   25  C20 UNK     1      12.447   5.870   7.125  1.00  0.00     0.003 A 
HETATM   26  O2  UNK     1       7.512   6.553   7.758  1.00  0.00    -0.287 OA
ENDBRANCH   4  16
TORSDOF 1
ENDMDL
MODEL 4
REMARK VINA RESULT:      -8.2     10.972     13.716
REMARK  1 active torsions:
REMARK  status: ('A' for Active; 'I' for Inactive)
REMARK    1  A    between atoms: C1_6  and  C4_9 
ROOT
HETATM    1  N1  UNK     1      32.286  -9.474  35.774  1.00  0.00    -0.261 N 
HETATM    2  N2  UNK     1      31.750 -10.598  35.248  1.00  0.00    -0.300 N 
HETATM    3  N3  UNK     1      32.974  -7.834  37.494  1.00  0.00    -0.256 NA
HETATM    4  C1  UNK     1      32.184  -9.036  37.144  1.00  0.00     0.269 C 
HETATM    5  C2  UNK     1      33.219  -8.947  34.900  1.00  0.00     0.068 A 
HETATM    6  C3  UNK     1      33.996  -7.898  35.194  1.00  0.00     0.021 A 
HETATM    7  C5  UNK     1      33.776  -7.358  36.593  1.00  0.00     0.066 A 
HETATM    8  C6  UNK     1      33.148  -9.789  33.704  1.00  0.00     0.058 A 
HETATM    9  C7  UNK     1      32.245 -10.764  33.962  1.00  0.00     0.024 A 
HETATM   10  C9  UNK     1      34.981  -7.287  34.333  1.00  0.00     0.016 A 
HETATM   11  C11 UNK     1      34.596  -6.154  36.933  1.00  0.00     0.032 A 
HETATM   12  C13 UNK     1      31.775 -11.849  33.069  1.00  0.00     0.070 C 
HETATM   13  C15 UNK     1      35.679  -6.221  34.747  1.00  0.00     0.001 A 
HETATM   14  C16 UNK     1      35.471  -5.650  36.055  1.00  0.00     0.002 A 
HETATM   15  H2  UNK     1      30.866 -10.995  35.539  1.00  0.00     0.187 HD
ENDROOT
BRANCH   4  16
HETATM   16  C4  UNK     1      30.748  -8.750  37.457  1.00  0.00     0.061 A 
HETATM   17  C10 UNK     1      30.050  -7.745  36.913  1.00  0.00     0.157 A 
HETATM   18  O1  UNK     1      28.736  -7.432  37.155  1.00  0.00    -0.321 OA
HETATM   19  C14 UNK     1      28.050  -8.218  38.046  1.00  0.00     0.089 A 
HETATM   20  C12 UNK     1      28.634  -9.305  38.697  1.00  0.00     0.049 A 
HETATM   21  C18 UNK     1      26.714  -7.894  38.287  1.00  0.00     0.038 A 
HETATM   22  C17 UNK     1      27.886 -10.072  39.595  1.00  0.00     0.018 A 
HETATM   23  C8  UNK     1      30.047  -9.629  38.427  1.00  0.00     0.197 A 
HETATM   24  C19 UNK     1      26.551  -9.745  39.835  1.00  0.00     0.001 A 
HETATM   25  C20 UNK     1      25.966  -8.658  39.183  1.00  0.00     0.003 A 
HETATM   26  O2  UNK     1      30.604 -10.570  38.974  1.00  0.00    -0.287 OA
ENDBRANCH   4  16
TORSDOF 1
ENDMDL
MODEL 5
REMARK VINA RESULT:      -8.2      7.707     12.048
REMARK  1 active torsions:
REMARK  status: ('A' for Active; 'I' for Inactive)
REMARK    1  A    between atoms: C1_6  and  C4_9 
ROOT
HETATM    1  N1  UNK     1      18.489   3.988  33.302  1.00  0.00    -0.261 N 
HETATM    2  N2  UNK     1      18.521   3.901  34.650  1.00  0.00    -0.300 N 
HETATM    3  N3  UNK     1      18.877   4.915  31.041  1.00  0.00    -0.256 NA
HETATM    4  C1  UNK     1      18.884   5.123  32.506  1.00  0.00     0.269 C 
HETATM    5  C2  UNK     1      18.325   2.728  32.754  1.00  0.00     0.068 A 
HETATM    6  C3  UNK     1      18.368   2.482  31.440  1.00  0.00     0.021 A 
HETATM    7  C5  UNK     1      18.646   3.716  30.605  1.00  0.00     0.066 A 
HETATM    8  C6  UNK     1      18.142   1.831  33.897  1.00  0.00     0.058 A 
HETATM    9  C7  UNK     1      18.263   2.586  35.014  1.00  0.00     0.024 A 
HETATM   10  C9  UNK     1      18.196   1.201  30.796  1.00  0.00     0.016 A 
HETATM   11  C11 UNK     1      18.651   3.481  29.128  1.00  0.00     0.032 A 
HETATM   12  C13 UNK     1      18.124   2.172  36.430  1.00  0.00     0.070 C 
HETATM   13  C15 UNK     1      18.241   1.098  29.462  1.00  0.00     0.001 A 
HETATM   14  C16 UNK     1      18.461   2.254  28.627  1.00  0.00     0.002 A 
HETATM   15  H2  UNK     1      18.339   4.676  35.273  1.00  0.00     0.187 HD
ENDROOT
BRANCH   4  16
HETATM   16  C4  UNK     1      17.973   6.271  32.812  1.00  0.00     0.061 A 
HETATM   17  C10 UNK     1      16.639   6.214  32.709  1.00  0.00     0.157 A 
HETATM   18  O1  UNK     1      15.750   7.225  32.975  1.00  0.00    -0.321 OA
HETATM   19  C14 UNK     1      16.263   8.428  33.391  1.00  0.00     0.089 A 
HETATM   20  C12 UNK     1      17.631   8.649  33.550  1.00  0.00     0.049 A 
HETATM   21  C18 UNK     1      15.354   9.452  33.660  1.00  0.00     0.038 A 
HETATM   22  C17 UNK     1      18.098   9.895  33.978  1.00  0.00     0.018 A 
HETATM   23  C8  UNK     1      18.574   7.552  33.260  1.00  0.00     0.197 A 
HETATM   24  C19 UNK     1      17.186  10.917  34.246  1.00  0.00     0.001 A 
HETATM   25  C20 UNK     1      15.817  10.697  34.087  1.00  0.00     0.003 A 
HETATM   26  O2  UNK     1      19.782   7.697  33.383  1.00  0.00    -0.287 OA
ENDBRANCH   4  16
TORSDOF 1
ENDMDL
MODEL 6
REMARK VINA RESULT:      -8.2     10.426     12.164
REMARK  1 active torsions:
REMARK  status: ('A' for Active; 'I' for Inactive)
REMARK    1  A    between atoms: C1_6  and  C4_9 
ROOT
HETATM    1  N1  UNK     1      30.498  -7.298  35.311  1.00  0.00    -0.261 N 
HETATM    2  N2  UNK     1      31.456  -6.598  34.664  1.00  0.00    -0.300 N 
HETATM    3  N3  UNK     1      29.105  -9.234  35.971  1.00  0.00    -0.256 NA
HETATM    4  C1  UNK     1      30.086  -8.650  35.028  1.00  0.00     0.269 C 
HETATM    5  C2  UNK     1      30.171  -6.662  36.496  1.00  0.00     0.068 A 
HETATM    6  C3  UNK     1      29.335  -7.177  37.404  1.00  0.00     0.021 A 
HETATM    7  C5  UNK     1      28.799  -8.543  37.024  1.00  0.00     0.066 A 
HETATM    8  C6  UNK     1      30.941  -5.417  36.491  1.00  0.00     0.058 A 
HETATM    9  C7  UNK     1      31.694  -5.423  35.365  1.00  0.00     0.024 A 
HETATM   10  C9  UNK     1      28.940  -6.571  38.654  1.00  0.00     0.016 A 
HETATM   11  C11 UNK     1      27.822  -9.122  37.998  1.00  0.00     0.032 A 
HETATM   12  C13 UNK     1      32.618  -4.379  34.865  1.00  0.00     0.070 C 
HETATM   13  C15 UNK     1      28.072  -7.188  39.465  1.00  0.00     0.001 A 
HETATM   14  C16 UNK     1      27.505  -8.470  39.123  1.00  0.00     0.002 A 
HETATM   15  H2  UNK     1      31.649  -6.681  33.675  1.00  0.00     0.187 HD
ENDROOT
BRANCH   4  16
HETATM   16  C4  UNK     1      29.491  -8.700  33.656  1.00  0.00     0.061 A 
HETATM   17  C10 UNK     1      28.430  -7.977  33.275  1.00  0.00     0.157 A 
HETATM   18  O1  UNK     1      27.839  -7.975  32.036  1.00  0.00    -0.321 OA
HETATM   19  C14 UNK     1      28.377  -8.793  31.074  1.00  0.00     0.089 A 
HETATM   20  C12 UNK     1      29.484  -9.608  31.312  1.00  0.00     0.049 A 
HETATM   21  C18 UNK     1      27.771  -8.785  29.817  1.00  0.00     0.038 A 
HETATM   22  C17 UNK     1      29.990 -10.421  30.295  1.00  0.00     0.018 A 
HETATM   23  C8  UNK     1      30.108  -9.600  32.649  1.00  0.00     0.197 A 
HETATM   24  C19 UNK     1      29.382 -10.412  29.038  1.00  0.00     0.001 A 
HETATM   25  C20 UNK     1      28.275  -9.596  28.800  1.00  0.00     0.003 A 
HETATM   26  O2  UNK     1      31.079 -10.297  32.906  1.00  0.00    -0.287 OA
ENDBRANCH   4  16
TORSDOF 1
ENDMDL
MODEL 7
REMARK VINA RESULT:      -8.2      7.310     10.167
REMARK  1 active torsions:
REMARK  status: ('A' for Active; 'I' for Inactive)
REMARK    1  A    between atoms: C1_6  and  C4_9 
ROOT
HETATM    1  N1  UNK     1      17.179   6.558  32.455  1.00  0.00    -0.261 N 
HETATM    2  N2  UNK     1      15.954   6.223  31.993  1.00  0.00    -0.300 N 
HETATM    3  N3  UNK     1      19.644   6.557  32.666  1.00  0.00    -0.256 NA
HETATM    4  C1  UNK     1      18.425   5.913  32.128  1.00  0.00     0.269 C 
HETATM    5  C2  UNK     1      17.131   7.809  33.046  1.00  0.00     0.068 A 
HETATM    6  C3  UNK     1      18.213   8.455  33.495  1.00  0.00     0.021 A 
HETATM    7  C5  UNK     1      19.506   7.697  33.268  1.00  0.00     0.066 A 
HETATM    8  C6  UNK     1      15.720   8.198  33.014  1.00  0.00     0.058 A 
HETATM    9  C7  UNK     1      15.052   7.207  32.376  1.00  0.00     0.024 A 
HETATM   10  C9  UNK     1      18.241   9.753  34.128  1.00  0.00     0.016 A 
HETATM   11  C11 UNK     1      20.727   8.373  33.804  1.00  0.00     0.032 A 
HETATM   12  C13 UNK     1      13.599   7.090  32.115  1.00  0.00     0.070 C 
HETATM   13  C15 UNK     1      19.397  10.278  34.553  1.00  0.00     0.001 A 
HETATM   14  C16 UNK     1      20.645   9.571  34.396  1.00  0.00     0.002 A 
HETATM   15  H2  UNK     1      15.662   5.275  31.795  1.00  0.00     0.187 HD
ENDROOT
BRANCH   4  16
HETATM   16  C4  UNK     1      18.390   4.503  32.631  1.00  0.00     0.061 A 
HETATM   17  C10 UNK     1      18.106   4.169  33.897  1.00  0.00     0.157 A 
HETATM   18  O1  UNK     1      18.055   2.901  34.420  1.00  0.00    -0.321 OA
HETATM   19  C14 UNK     1      18.320   1.854  33.574  1.00  0.00     0.089 A 
HETATM   20  C12 UNK     1      18.631   2.035  32.226  1.00  0.00     0.049 A 
HETATM   21  C18 UNK     1      18.266   0.568  34.112  1.00  0.00     0.038 A 
HETATM   22  C17 UNK     1      18.892   0.931  31.410  1.00  0.00     0.018 A 
HETATM   23  C8  UNK     1      18.683   3.403  31.678  1.00  0.00     0.197 A 
HETATM   24  C19 UNK     1      18.838  -0.355  31.951  1.00  0.00     0.001 A 
HETATM   25  C20 UNK     1      18.525  -0.536  33.299  1.00  0.00     0.003 A 
HETATM   26  O2  UNK     1      18.952   3.613  30.504  1.00  0.00    -0.287 OA
ENDBRANCH   4  16
TORSDOF 1
ENDMDL
MODEL 8
REMARK VINA RESULT:      -8.1     10.028     12.043
REMARK  1 active torsions:
REMARK  status: ('A' for Active; 'I' for Inactive)
REMARK    1  A    between atoms: C1_6  and  C4_9 
ROOT
HETATM    1  N1  UNK     1      31.124  -6.787  35.120  1.00  0.00    -0.261 N 
HETATM    2  N2  UNK     1      32.257  -6.888  34.391  1.00  0.00    -0.300 N 
HETATM    3  N3  UNK     1      29.002  -7.475  36.191  1.00  0.00    -0.256 NA
HETATM    4  C1  UNK     1      30.077  -7.774  35.219  1.00  0.00     0.269 C 
HETATM    5  C2  UNK     1      31.236  -5.742  36.019  1.00  0.00     0.068 A 
HETATM    6  C3  UNK     1      30.318  -5.468  36.952  1.00  0.00     0.021 A 
HETATM    7  C5  UNK     1      29.150  -6.435  36.951  1.00  0.00     0.066 A 
HETATM    8  C6  UNK     1      32.521  -5.108  35.716  1.00  0.00     0.058 A 
HETATM    9  C7  UNK     1      33.093  -5.831  34.725  1.00  0.00     0.024 A 
HETATM   10  C9  UNK     1      30.360  -4.393  37.915  1.00  0.00     0.016 A 
HETATM   11  C11 UNK     1      28.083  -6.125  37.951  1.00  0.00     0.032 A 
HETATM   12  C13 UNK     1      34.378  -5.590  34.027  1.00  0.00     0.070 C 
HETATM   13  C15 UNK     1      29.357  -4.218  38.785  1.00  0.00     0.001 A 
HETATM   14  C16 UNK     1      28.207  -5.089  38.790  1.00  0.00     0.002 A 
HETATM   15  H2  UNK     1      32.317  -7.358  33.497  1.00  0.00     0.187 HD
ENDROOT
BRANCH   4  16
HETATM   16  C4  UNK     1      29.446  -7.948  33.873  1.00  0.00     0.061 A 
HETATM   17  C10 UNK     1      28.375  -7.261  33.455  1.00  0.00     0.157 A 
HETATM   18  O1  UNK     1      27.751  -7.371  32.238  1.00  0.00    -0.321 OA
HETATM   19  C14 UNK     1      28.263  -8.276  31.341  1.00  0.00     0.089 A 
HETATM   20  C12 UNK     1      29.376  -9.068  31.624  1.00  0.00     0.049 A 
HETATM   21  C18 UNK     1      27.624  -8.383  30.105  1.00  0.00     0.038 A 
HETATM   22  C17 UNK     1      29.856  -9.972  30.673  1.00  0.00     0.018 A 
HETATM   23  C8  UNK     1      30.036  -8.938  32.937  1.00  0.00     0.197 A 
HETATM   24  C19 UNK     1      29.214 -10.078  29.437  1.00  0.00     0.001 A 
HETATM   25  C20 UNK     1      28.101  -9.285  29.154  1.00  0.00     0.003 A 
HETATM   26  O2  UNK     1      31.013  -9.611  33.231  1.00  0.00    -0.287 OA
ENDBRANCH   4  16
TORSDOF 1
ENDMDL
MODEL 9
REMARK VINA RESULT:      -8.1     10.464     13.073
REMARK  1 active torsions:
REMARK  status: ('A' for Active; 'I' for Inactive)
REMARK    1  A    between atoms: C1_6  and  C4_9 
ROOT
HETATM    1  N1  UNK     1      30.329  -6.115  35.416  1.00  0.00    -0.261 N 
HETATM    2  N2  UNK     1      29.023  -6.160  35.760  1.00  0.00    -0.300 N 
HETATM    3  N3  UNK     1      32.343  -5.620  34.065  1.00  0.00    -0.256 NA
HETATM    4  C1  UNK     1      30.867  -5.704  34.143  1.00  0.00     0.269 C 
HETATM    5  C2  UNK     1      31.117  -6.216  36.549  1.00  0.00     0.068 A 
HETATM    6  C3  UNK     1      32.448  -6.090  36.536  1.00  0.00     0.021 A 
HETATM    7  C5  UNK     1      33.013  -5.795  35.161  1.00  0.00     0.066 A 
HETATM    8  C6  UNK     1      30.181  -6.442  37.652  1.00  0.00     0.058 A 
HETATM    9  C7  UNK     1      28.934  -6.406  37.124  1.00  0.00     0.024 A 
HETATM   10  C9  UNK     1      33.335  -6.192  37.672  1.00  0.00     0.016 A 
HETATM   11  C11 UNK     1      34.505  -5.698  35.107  1.00  0.00     0.032 A 
HETATM   12  C13 UNK     1      27.635  -6.617  37.804  1.00  0.00     0.070 C 
HETATM   13  C15 UNK     1      34.659  -6.066  37.515  1.00  0.00     0.001 A 
HETATM   14  C16 UNK     1      35.242  -5.827  36.217  1.00  0.00     0.002 A 
HETATM   15  H2  UNK     1      28.276  -6.397  35.122  1.00  0.00     0.187 HD
ENDROOT
BRANCH   4  16
HETATM   16  C4  UNK     1      30.404  -6.660  33.088  1.00  0.00     0.061 A 
HETATM   17  C10 UNK     1      31.108  -7.726  32.685  1.00  0.00     0.157 A 
HETATM   18  O1  UNK     1      30.741  -8.639  31.728  1.00  0.00    -0.321 OA
HETATM   19  C14 UNK     1      29.530  -8.457  31.108  1.00  0.00     0.089 A 
HETATM   20  C12 UNK     1      28.679  -7.395  31.415  1.00  0.00     0.049 A 
HETATM   21  C18 UNK     1      29.164  -9.389  30.136  1.00  0.00     0.038 A 
HETATM   22  C17 UNK     1      27.456  -7.259  30.752  1.00  0.00     0.018 A 
HETATM   23  C8  UNK     1      29.087  -6.422  32.446  1.00  0.00     0.197 A 
HETATM   24  C19 UNK     1      27.092  -8.193  29.780  1.00  0.00     0.001 A 
HETATM   25  C20 UNK     1      27.944  -9.255  29.473  1.00  0.00     0.003 A 
HETATM   26  O2  UNK     1      28.376  -5.475  32.749  1.00  0.00    -0.287 OA
ENDBRANCH   4  16
TORSDOF 1
ENDMDL
MODEL 10
REMARK VINA RESULT:      -8.1     10.184     12.292
REMARK  1 active torsions:
REMARK  status: ('A' for Active; 'I' for Inactive)
REMARK    1  A    between atoms: C1_6  and  C4_9 
ROOT
HETATM    1  N1  UNK     1      28.736  -7.720  35.672  1.00  0.00    -0.261 N 
HETATM    2  N2  UNK     1      27.707  -8.572  35.873  1.00  0.00    -0.300 N 
HETATM    3  N3  UNK     1      30.102  -5.970  34.579  1.00  0.00    -0.256 NA
HETATM    4  C1  UNK     1      28.972  -6.923  34.494  1.00  0.00     0.269 C 
HETATM    5  C2  UNK     1      29.376  -7.466  36.872  1.00  0.00     0.068 A 
HETATM    6  C3  UNK     1      30.363  -6.573  37.009  1.00  0.00     0.021 A 
HETATM    7  C5  UNK     1      30.695  -5.841  35.724  1.00  0.00     0.066 A 
HETATM    8  C6  UNK     1      28.718  -8.333  37.852  1.00  0.00     0.058 A 
HETATM    9  C7  UNK     1      27.724  -8.982  37.199  1.00  0.00     0.024 A 
HETATM   10  C9  UNK     1      31.082  -6.262  38.222  1.00  0.00     0.016 A 
HETATM   11  C11 UNK     1      31.828  -4.871  35.835  1.00  0.00     0.032 A 
HETATM   12  C13 UNK     1      26.786 -10.002  37.723  1.00  0.00     0.070 C 
HETATM   13  C15 UNK     1      32.069  -5.357  38.215  1.00  0.00     0.001 A 
HETATM   14  C16 UNK     1      32.446  -4.668  37.005  1.00  0.00     0.002 A 
HETATM   15  H2  UNK     1      27.281  -9.130  35.144  1.00  0.00     0.187 HD
ENDROOT
BRANCH   4  16
HETATM   16  C4  UNK     1      29.224  -7.833  33.333  1.00  0.00     0.061 A 
HETATM   17  C10 UNK     1      30.217  -8.732  33.290  1.00  0.00     0.157 A 
HETATM   18  O1  UNK     1      30.500  -9.594  32.261  1.00  0.00    -0.321 OA
HETATM   19  C14 UNK     1      29.693  -9.546  31.152  1.00  0.00     0.089 A 
HETATM   20  C12 UNK     1      28.616  -8.667  31.042  1.00  0.00     0.049 A 
HETATM   21  C18 UNK     1      29.987 -10.426  30.109  1.00  0.00     0.038 A 
HETATM   22  C17 UNK     1      27.827  -8.662  29.889  1.00  0.00     0.018 A 
HETATM   23  C8  UNK     1      28.324  -7.745  32.156  1.00  0.00     0.197 A 
HETATM   24  C19 UNK     1      28.123  -9.543  28.847  1.00  0.00     0.001 A 
HETATM   25  C20 UNK     1      29.200 -10.423  28.957  1.00  0.00     0.003 A 
HETATM   26  O2  UNK     1      27.392  -6.956  32.107  1.00  0.00    -0.287 OA
ENDBRANCH   4  16
TORSDOF 1
ENDMDL
