MODEL 1
REMARK VINA RESULT:      -9.8      0.000      0.000
REMARK  3 active torsions:
REMARK  status: ('A' for Active; 'I' for Inactive)
REMARK    1  A    between atoms: C16_21  and  O3_3 
REMARK       I    between atoms: C10_15  and  N1_5 
REMARK    2  A    between atoms: C8_13  and  N1_5 
REMARK    3  A    between atoms: C10_15  and  C11_16 
ROOT
HETATM    1  O1  UNK     1      19.530  -1.232  34.642  1.00  0.00    -0.271 OA
HETATM    2  O4  UNK     1      20.677  -3.155  34.189  1.00  0.00    -0.259 OA
HETATM    3  C11 UNK     1      19.696  -2.986  36.338  1.00  0.00     0.108 A 
HETATM    4  C12 UNK     1      18.482  -0.945  36.816  1.00  0.00     0.002 A 
HETATM    5  C13 UNK     1      18.974  -2.259  37.200  1.00  0.00     0.037 A 
HETATM    6  C14 UNK     1      18.772  -0.462  35.545  1.00  0.00     0.123 A 
HETATM    7  C15 UNK     1      20.017  -2.491  34.980  1.00  0.00     0.304 A 
HETATM    8  C16 UNK     1      18.329   0.788  35.115  1.00  0.00     0.102 A 
HETATM    9  C17 UNK     1      17.726  -0.152  37.683  1.00  0.00     0.014 A 
HETATM   10  C18 UNK     1      17.575   1.573  35.986  1.00  0.00     0.040 A 
HETATM   11  C19 UNK     1      17.274   1.104  37.268  1.00  0.00     0.004 A 
ENDROOT
BRANCH   3  12
HETATM   12  C10 UNK     1      20.152  -4.307  36.820  1.00  0.00     0.262 C 
HETATM   13  O2  UNK     1      21.002  -4.364  37.701  1.00  0.00    -0.267 OA
HETATM   14  N1  UNK     1      19.513  -5.362  36.165  1.00  0.00    -0.323 N 
HETATM   15  H10 UNK     1      18.841  -5.133  35.437  1.00  0.00     0.169 HD
BRANCH  14  16
HETATM   16  C8  UNK     1      19.697  -6.731  36.365  1.00  0.00     0.035 A 
HETATM   17  C6  UNK     1      20.718  -7.399  35.685  1.00  0.00     0.037 A 
HETATM   18  C4  UNK     1      20.872  -8.758  35.903  1.00  0.00    -0.050 A 
HETATM   19  C2  UNK     1      21.906  -9.673  35.326  1.00  0.00     0.039 C 
HETATM   20  C5  UNK     1      20.037  -9.446  36.790  1.00  0.00    -0.052 A 
HETATM   21  C1  UNK     1      21.284 -11.046  35.620  1.00  0.00     0.009 C 
HETATM   22  C3  UNK     1      20.434 -10.885  36.889  1.00  0.00     0.039 C 
HETATM   23  C7  UNK     1      19.029  -8.790  37.478  1.00  0.00     0.010 A 
HETATM   24  C9  UNK     1      18.859  -7.422  37.255  1.00  0.00     0.030 A 
ENDBRANCH  14  16
ENDBRANCH   3  12
BRANCH   8  25
HETATM   25  O3  UNK     1      18.618   1.248  33.870  1.00  0.00    -0.353 OA
HETATM   26  C20 UNK     1      18.200   2.576  33.553  1.00  0.00     0.210 C 
ENDBRANCH   8  25
TORSDOF 3
ENDMDL
MODEL 2
REMARK VINA RESULT:      -9.8      0.504      1.429
REMARK  3 active torsions:
REMARK  status: ('A' for Active; 'I' for Inactive)
REMARK    1  A    between atoms: C16_21  and  O3_3 
REMARK       I    between atoms: C10_15  and  N1_5 
REMARK    2  A    between atoms: C8_13  and  N1_5 
REMARK    3  A    between atoms: C10_15  and  C11_16 
ROOT
HETATM    1  O1  UNK     1      19.371  -1.099  34.603  1.00  0.00    -0.271 OA
HETATM    2  O4  UNK     1      20.553  -2.953  33.982  1.00  0.00    -0.259 OA
HETATM    3  C11 UNK     1      19.727  -2.915  36.202  1.00  0.00     0.108 A 
HETATM    4  C12 UNK     1      18.475  -0.947  36.858  1.00  0.00     0.002 A 
HETATM    5  C13 UNK     1      19.043  -2.255  37.145  1.00  0.00     0.037 A 
HETATM    6  C14 UNK     1      18.652  -0.399  35.591  1.00  0.00     0.123 A 
HETATM    7  C15 UNK     1      19.928  -2.351  34.849  1.00  0.00     0.304 A 
HETATM    8  C16 UNK     1      18.132   0.849  35.252  1.00  0.00     0.102 A 
HETATM    9  C17 UNK     1      17.757  -0.222  37.812  1.00  0.00     0.014 A 
HETATM   10  C18 UNK     1      17.416   1.564  36.209  1.00  0.00     0.040 A 
HETATM   11  C19 UNK     1      17.228   1.031  37.486  1.00  0.00     0.004 A 
ENDROOT
BRANCH   3  12
HETATM   12  C10 UNK     1      20.266  -4.235  36.590  1.00  0.00     0.262 C 
HETATM   13  O2  UNK     1      21.212  -4.292  37.367  1.00  0.00    -0.267 OA
HETATM   14  N1  UNK     1      19.582  -5.290  35.982  1.00  0.00    -0.323 N 
HETATM   15  H10 UNK     1      18.826  -5.059  35.341  1.00  0.00     0.169 HD
BRANCH  14  16
HETATM   16  C8  UNK     1      19.821  -6.658  36.119  1.00  0.00     0.035 A 
HETATM   17  C6  UNK     1      19.226  -7.363  37.168  1.00  0.00     0.037 A 
HETATM   18  C4  UNK     1      19.486  -8.718  37.279  1.00  0.00    -0.050 A 
HETATM   19  C2  UNK     1      18.941  -9.683  38.285  1.00  0.00     0.039 C 
HETATM   20  C5  UNK     1      20.313  -9.372  36.358  1.00  0.00    -0.052 A 
HETATM   21  C1  UNK     1      19.908 -10.864  38.119  1.00  0.00     0.009 C 
HETATM   22  C3  UNK     1      20.397 -10.835  36.662  1.00  0.00     0.039 C 
HETATM   23  C7  UNK     1      20.897  -8.685  35.308  1.00  0.00     0.010 A 
HETATM   24  C9  UNK     1      20.651  -7.315  35.196  1.00  0.00     0.030 A 
ENDBRANCH  14  16
ENDBRANCH   3  12
BRANCH   8  25
HETATM   25  O3  UNK     1      18.312   1.372  34.010  1.00  0.00    -0.353 OA
HETATM   26  C20 UNK     1      18.196   2.789  33.879  1.00  0.00     0.210 C 
ENDBRANCH   8  25
TORSDOF 3
ENDMDL
MODEL 3
REMARK VINA RESULT:      -9.7      2.773      4.070
REMARK  3 active torsions:
REMARK  status: ('A' for Active; 'I' for Inactive)
REMARK    1  A    between atoms: C16_21  and  O3_3 
REMARK       I    between atoms: C10_15  and  N1_5 
REMARK    2  A    between atoms: C8_13  and  N1_5 
REMARK    3  A    between atoms: C10_15  and  C11_16 
ROOT
HETATM    1  O1  UNK     1      18.905  -0.196  33.233  1.00  0.00    -0.271 OA
HETATM    2  O4  UNK     1      18.524  -0.398  35.477  1.00  0.00    -0.259 OA
HETATM    3  C11 UNK     1      19.805  -2.111  34.459  1.00  0.00     0.108 A 
HETATM    4  C12 UNK     1      20.205  -1.895  32.079  1.00  0.00     0.002 A 
HETATM    5  C13 UNK     1      20.357  -2.601  33.342  1.00  0.00     0.037 A 
HETATM    6  C14 UNK     1      19.481  -0.707  32.055  1.00  0.00     0.123 A 
HETATM    7  C15 UNK     1      19.031  -0.850  34.456  1.00  0.00     0.304 A 
HETATM    8  C16 UNK     1      19.300   0.018  30.878  1.00  0.00     0.102 A 
HETATM    9  C17 UNK     1      20.763  -2.370  30.890  1.00  0.00     0.014 A 
HETATM   10  C18 UNK     1      19.860  -0.462  29.697  1.00  0.00     0.040 A 
HETATM   11  C19 UNK     1      20.590  -1.654  29.702  1.00  0.00     0.004 A 
ENDROOT
BRANCH   3  12
HETATM   12  C10 UNK     1      20.014  -2.901  35.691  1.00  0.00     0.262 C 
HETATM   13  O2  UNK     1      20.493  -2.356  36.679  1.00  0.00    -0.267 OA
HETATM   14  N1  UNK     1      19.613  -4.231  35.546  1.00  0.00    -0.323 N 
HETATM   15  H10 UNK     1      19.251  -4.522  34.641  1.00  0.00     0.169 HD
BRANCH  14  16
HETATM   16  C8  UNK     1      19.667  -5.250  36.498  1.00  0.00     0.035 A 
HETATM   17  C6  UNK     1      20.818  -5.415  37.272  1.00  0.00     0.037 A 
HETATM   18  C4  UNK     1      20.841  -6.438  38.204  1.00  0.00    -0.050 A 
HETATM   19  C2  UNK     1      21.933  -6.785  39.166  1.00  0.00     0.039 C 
HETATM   20  C5  UNK     1      19.736  -7.280  38.379  1.00  0.00    -0.052 A 
HETATM   21  C1  UNK     1      21.518  -8.202  39.588  1.00  0.00     0.009 C 
HETATM   22  C3  UNK     1      19.988  -8.268  39.474  1.00  0.00     0.039 C 
HETATM   23  C7  UNK     1      18.586  -7.117  37.625  1.00  0.00     0.010 A 
HETATM   24  C9  UNK     1      18.559  -6.095  36.673  1.00  0.00     0.030 A 
ENDBRANCH  14  16
ENDBRANCH   3  12
BRANCH   8  25
HETATM   25  O3  UNK     1      18.591   1.178  30.868  1.00  0.00    -0.353 OA
HETATM   26  C20 UNK     1      18.447   1.841  29.612  1.00  0.00     0.210 C 
ENDBRANCH   8  25
TORSDOF 3
ENDMDL
MODEL 4
REMARK VINA RESULT:      -9.6      8.197     10.583
REMARK  3 active torsions:
REMARK  status: ('A' for Active; 'I' for Inactive)
REMARK    1  A    between atoms: C16_21  and  O3_3 
REMARK       I    between atoms: C10_15  and  N1_5 
REMARK    2  A    between atoms: C8_13  and  N1_5 
REMARK    3  A    between atoms: C10_15  and  C11_16 
ROOT
HETATM    1  O1  UNK     1      16.786   7.816  32.831  1.00  0.00    -0.271 OA
HETATM    2  O4  UNK     1      15.776   5.960  31.961  1.00  0.00    -0.259 OA
HETATM    3  C11 UNK     1      18.029   5.719  32.651  1.00  0.00     0.108 A 
HETATM    4  C12 UNK     1      19.097   7.689  33.571  1.00  0.00     0.002 A 
HETATM    5  C13 UNK     1      19.119   6.288  33.181  1.00  0.00     0.037 A 
HETATM    6  C14 UNK     1      17.929   8.421  33.387  1.00  0.00     0.123 A 
HETATM    7  C15 UNK     1      16.776   6.479  32.446  1.00  0.00     0.304 A 
HETATM    8  C16 UNK     1      17.842   9.766  33.742  1.00  0.00     0.102 A 
HETATM    9  C17 UNK     1      20.211   8.324  34.126  1.00  0.00     0.014 A 
HETATM   10  C18 UNK     1      18.957  10.392  34.295  1.00  0.00     0.040 A 
HETATM   11  C19 UNK     1      20.139   9.673  34.488  1.00  0.00     0.004 A 
ENDROOT
BRANCH   3  12
HETATM   12  C10 UNK     1      18.151   4.291  32.286  1.00  0.00     0.262 C 
HETATM   13  O2  UNK     1      17.972   3.435  33.143  1.00  0.00    -0.267 OA
HETATM   14  N1  UNK     1      18.471   4.112  30.938  1.00  0.00    -0.323 N 
HETATM   15  H10 UNK     1      18.606   4.943  30.367  1.00  0.00     0.169 HD
BRANCH  14  16
HETATM   16  C8  UNK     1      18.662   2.910  30.256  1.00  0.00     0.035 A 
HETATM   17  C6  UNK     1      19.554   1.961  30.760  1.00  0.00     0.037 A 
HETATM   18  C4  UNK     1      19.724   0.780  30.058  1.00  0.00    -0.050 A 
HETATM   19  C2  UNK     1      20.585  -0.390  30.415  1.00  0.00     0.039 C 
HETATM   20  C5  UNK     1      19.012   0.533  28.878  1.00  0.00    -0.052 A 
HETATM   21  C1  UNK     1      20.641  -1.137  29.074  1.00  0.00     0.009 C 
HETATM   22  C3  UNK     1      19.330  -0.824  28.337  1.00  0.00     0.039 C 
HETATM   23  C7  UNK     1      18.115   1.463  28.377  1.00  0.00     0.010 A 
HETATM   24  C9  UNK     1      17.948   2.662  29.072  1.00  0.00     0.030 A 
ENDBRANCH  14  16
ENDBRANCH   3  12
BRANCH   8  25
HETATM   25  O3  UNK     1      16.694  10.470  33.557  1.00  0.00    -0.353 OA
HETATM   26  C20 UNK     1      16.382  11.472  34.525  1.00  0.00     0.210 C 
ENDBRANCH   8  25
TORSDOF 3
ENDMDL
MODEL 5
REMARK VINA RESULT:      -9.5      8.263     10.582
REMARK  3 active torsions:
REMARK  status: ('A' for Active; 'I' for Inactive)
REMARK    1  A    between atoms: C16_21  and  O3_3 
REMARK       I    between atoms: C10_15  and  N1_5 
REMARK    2  A    between atoms: C8_13  and  N1_5 
REMARK    3  A    between atoms: C10_15  and  C11_16 
ROOT
HETATM    1  O1  UNK     1      18.687   8.055  33.045  1.00  0.00    -0.271 OA
HETATM    2  O4  UNK     1      20.131   6.426  32.351  1.00  0.00    -0.259 OA
HETATM    3  C11 UNK     1      17.880   5.774  32.694  1.00  0.00     0.108 A 
HETATM    4  C12 UNK     1      16.352   7.503  33.432  1.00  0.00     0.002 A 
HETATM    5  C13 UNK     1      16.639   6.129  33.049  1.00  0.00     0.037 A 
HETATM    6  C14 UNK     1      17.385   8.435  33.421  1.00  0.00     0.123 A 
HETATM    7  C15 UNK     1      18.994   6.749  32.676  1.00  0.00     0.304 A 
HETATM    8  C16 UNK     1      17.176   9.766  33.776  1.00  0.00     0.102 A 
HETATM    9  C17 UNK     1      15.073   7.918  33.811  1.00  0.00     0.014 A 
HETATM   10  C18 UNK     1      15.896  10.172  34.151  1.00  0.00     0.040 A 
HETATM   11  C19 UNK     1      14.847   9.250  34.169  1.00  0.00     0.004 A 
ENDROOT
BRANCH   3  12
HETATM   12  C10 UNK     1      18.072   4.356  32.323  1.00  0.00     0.262 C 
HETATM   13  O2  UNK     1      17.977   3.491  33.186  1.00  0.00    -0.267 OA
HETATM   14  N1  UNK     1      18.352   4.194  30.964  1.00  0.00    -0.323 N 
HETATM   15  H10 UNK     1      18.415   5.031  30.389  1.00  0.00     0.169 HD
BRANCH  14  16
HETATM   16  C8  UNK     1      18.588   3.005  30.274  1.00  0.00     0.035 A 
HETATM   17  C6  UNK     1      19.498   2.076  30.785  1.00  0.00     0.037 A 
HETATM   18  C4  UNK     1      19.713   0.907  30.074  1.00  0.00    -0.050 A 
HETATM   19  C2  UNK     1      20.600  -0.242  30.435  1.00  0.00     0.039 C 
HETATM   20  C5  UNK     1      19.028   0.653  28.880  1.00  0.00    -0.052 A 
HETATM   21  C1  UNK     1      20.700  -0.974  29.089  1.00  0.00     0.009 C 
HETATM   22  C3  UNK     1      19.394  -0.690  28.332  1.00  0.00     0.039 C 
HETATM   23  C7  UNK     1      18.114   1.561  28.372  1.00  0.00     0.010 A 
HETATM   24  C9  UNK     1      17.901   2.749  29.076  1.00  0.00     0.030 A 
ENDBRANCH  14  16
ENDBRANCH   3  12
BRANCH   8  25
HETATM   25  O3  UNK     1      18.193  10.668  33.760  1.00  0.00    -0.353 OA
HETATM   26  C20 UNK     1      17.916  11.971  34.272  1.00  0.00     0.210 C 
ENDBRANCH   8  25
TORSDOF 3
ENDMDL
MODEL 6
REMARK VINA RESULT:      -9.5      2.745      4.337
REMARK  3 active torsions:
REMARK  status: ('A' for Active; 'I' for Inactive)
REMARK    1  A    between atoms: C16_21  and  O3_3 
REMARK       I    between atoms: C10_15  and  N1_5 
REMARK    2  A    between atoms: C8_13  and  N1_5 
REMARK    3  A    between atoms: C10_15  and  C11_16 
ROOT
HETATM    1  O1  UNK     1      18.585   0.294  32.819  1.00  0.00    -0.271 OA
HETATM    2  O4  UNK     1      18.014   0.175  35.027  1.00  0.00    -0.259 OA
HETATM    3  C11 UNK     1      19.359  -1.582  34.183  1.00  0.00     0.108 A 
HETATM    4  C12 UNK     1      19.961  -1.455  31.840  1.00  0.00     0.002 A 
HETATM    5  C13 UNK     1      19.998  -2.116  33.135  1.00  0.00     0.037 A 
HETATM    6  C14 UNK     1      19.254  -0.263  31.712  1.00  0.00     0.123 A 
HETATM    7  C15 UNK     1      18.601  -0.316  34.069  1.00  0.00     0.304 A 
HETATM    8  C16 UNK     1      19.181   0.420  30.500  1.00  0.00     0.102 A 
HETATM    9  C17 UNK     1      20.612  -1.976  30.719  1.00  0.00     0.014 A 
HETATM   10  C18 UNK     1      19.834  -0.107  29.387  1.00  0.00     0.040 A 
HETATM   11  C19 UNK     1      20.548  -1.302  29.496  1.00  0.00     0.004 A 
ENDROOT
BRANCH   3  12
HETATM   12  C10 UNK     1      19.454  -2.329  35.455  1.00  0.00     0.262 C 
HETATM   13  O2  UNK     1      19.211  -1.752  36.509  1.00  0.00    -0.267 OA
HETATM   14  N1  UNK     1      19.831  -3.660  35.265  1.00  0.00    -0.323 N 
HETATM   15  H10 UNK     1      20.016  -3.970  34.314  1.00  0.00     0.169 HD
BRANCH  14  16
HETATM   16  C8  UNK     1      20.017  -4.645  36.236  1.00  0.00     0.035 A 
HETATM   17  C6  UNK     1      19.314  -5.848  36.146  1.00  0.00     0.037 A 
HETATM   18  C4  UNK     1      19.518  -6.803  37.128  1.00  0.00    -0.050 A 
HETATM   19  C2  UNK     1      18.916  -8.169  37.225  1.00  0.00     0.039 C 
HETATM   20  C5  UNK     1      20.414  -6.577  38.179  1.00  0.00    -0.052 A 
HETATM   21  C1  UNK     1      19.210  -8.520  38.691  1.00  0.00     0.009 C 
HETATM   22  C3  UNK     1      20.495  -7.771  39.077  1.00  0.00     0.039 C 
HETATM   23  C7  UNK     1      21.125  -5.392  38.271  1.00  0.00     0.010 A 
HETATM   24  C9  UNK     1      20.915  -4.418  37.292  1.00  0.00     0.030 A 
ENDBRANCH  14  16
ENDBRANCH   3  12
BRANCH   8  25
HETATM   25  O3  UNK     1      18.488   1.584  30.388  1.00  0.00    -0.353 OA
HETATM   26  C20 UNK     1      18.103   1.989  29.075  1.00  0.00     0.210 C 
ENDBRANCH   8  25
TORSDOF 3
ENDMDL
MODEL 7
REMARK VINA RESULT:      -9.2      2.023      8.631
REMARK  3 active torsions:
REMARK  status: ('A' for Active; 'I' for Inactive)
REMARK    1  A    between atoms: C16_21  and  O3_3 
REMARK       I    between atoms: C10_15  and  N1_5 
REMARK    2  A    between atoms: C8_13  and  N1_5 
REMARK    3  A    between atoms: C10_15  and  C11_16 
ROOT
HETATM    1  O1  UNK     1      20.244  -7.758  35.775  1.00  0.00    -0.271 OA
HETATM    2  O4  UNK     1      20.354  -5.928  34.412  1.00  0.00    -0.259 OA
HETATM    3  C11 UNK     1      20.194  -5.511  36.738  1.00  0.00     0.108 A 
HETATM    4  C12 UNK     1      20.075  -7.454  38.181  1.00  0.00     0.002 A 
HETATM    5  C13 UNK     1      20.103  -6.014  37.976  1.00  0.00     0.037 A 
HETATM    6  C14 UNK     1      20.146  -8.293  37.074  1.00  0.00     0.123 A 
HETATM    7  C15 UNK     1      20.270  -6.386  35.547  1.00  0.00     0.304 A 
HETATM    8  C16 UNK     1      20.126  -9.681  37.203  1.00  0.00     0.102 A 
HETATM    9  C17 UNK     1      19.979  -8.022  39.454  1.00  0.00     0.014 A 
HETATM   10  C18 UNK     1      20.031 -10.239  38.476  1.00  0.00     0.040 A 
HETATM   11  C19 UNK     1      19.958  -9.412  39.599  1.00  0.00     0.004 A 
ENDROOT
BRANCH   3  12
HETATM   12  C10 UNK     1      20.214  -4.037  36.632  1.00  0.00     0.262 C 
HETATM   13  O2  UNK     1      21.284  -3.462  36.469  1.00  0.00    -0.267 OA
HETATM   14  N1  UNK     1      18.939  -3.478  36.741  1.00  0.00    -0.323 N 
HETATM   15  H10 UNK     1      18.155  -4.108  36.896  1.00  0.00     0.169 HD
BRANCH  14  16
HETATM   16  C8  UNK     1      18.589  -2.128  36.687  1.00  0.00     0.035 A 
HETATM   17  C6  UNK     1      18.686  -1.434  35.478  1.00  0.00     0.037 A 
HETATM   18  C4  UNK     1      18.335  -0.095  35.459  1.00  0.00    -0.050 A 
HETATM   19  C2  UNK     1      18.320   0.838  34.290  1.00  0.00     0.039 C 
HETATM   20  C5  UNK     1      17.881   0.548  36.617  1.00  0.00    -0.052 A 
HETATM   21  C1  UNK     1      18.251   2.200  34.997  1.00  0.00     0.009 C 
HETATM   22  C3  UNK     1      17.519   1.971  36.329  1.00  0.00     0.039 C 
HETATM   23  C7  UNK     1      17.769  -0.134  37.817  1.00  0.00     0.010 A 
HETATM   24  C9  UNK     1      18.133  -1.482  37.848  1.00  0.00     0.030 A 
ENDBRANCH  14  16
ENDBRANCH   3  12
BRANCH   8  25
HETATM   25  O3  UNK     1      20.197 -10.490  36.113  1.00  0.00    -0.353 OA
HETATM   26  C20 UNK     1      21.482 -11.006  35.768  1.00  0.00     0.210 C 
ENDBRANCH   8  25
TORSDOF 3
ENDMDL
MODEL 8
REMARK VINA RESULT:      -9.1      5.609     12.346
REMARK  3 active torsions:
REMARK  status: ('A' for Active; 'I' for Inactive)
REMARK    1  A    between atoms: C16_21  and  O3_3 
REMARK       I    between atoms: C10_15  and  N1_5 
REMARK    2  A    between atoms: C8_13  and  N1_5 
REMARK    3  A    between atoms: C10_15  and  C11_16 
ROOT
HETATM    1  O1  UNK     1      18.724   0.614  32.688  1.00  0.00    -0.271 OA
HETATM    2  O4  UNK     1      17.889   2.464  33.736  1.00  0.00    -0.259 OA
HETATM    3  C11 UNK     1      18.612   2.747  31.498  1.00  0.00     0.108 A 
HETATM    4  C12 UNK     1      19.499   0.783  30.390  1.00  0.00     0.002 A 
HETATM    5  C13 UNK     1      19.140   2.193  30.400  1.00  0.00     0.037 A 
HETATM    6  C14 UNK     1      19.281   0.026  31.537  1.00  0.00     0.123 A 
HETATM    7  C15 UNK     1      18.373   1.960  32.728  1.00  0.00     0.304 A 
HETATM    8  C16 UNK     1      19.601  -1.330  31.592  1.00  0.00     0.102 A 
HETATM    9  C17 UNK     1      20.053   0.164  29.268  1.00  0.00     0.014 A 
HETATM   10  C18 UNK     1      20.153  -1.940  30.468  1.00  0.00     0.040 A 
HETATM   11  C19 UNK     1      20.379  -1.195  29.308  1.00  0.00     0.004 A 
ENDROOT
BRANCH   3  12
HETATM   12  C10 UNK     1      18.283   4.185  31.410  1.00  0.00     0.262 C 
HETATM   13  O2  UNK     1      18.288   4.736  30.315  1.00  0.00    -0.267 OA
HETATM   14  N1  UNK     1      17.996   4.744  32.658  1.00  0.00    -0.323 N 
HETATM   15  H10 UNK     1      18.059   4.140  33.474  1.00  0.00     0.169 HD
BRANCH  14  16
HETATM   16  C8  UNK     1      17.649   6.064  32.945  1.00  0.00     0.035 A 
HETATM   17  C6  UNK     1      16.321   6.477  32.808  1.00  0.00     0.037 A 
HETATM   18  C4  UNK     1      16.010   7.795  33.098  1.00  0.00    -0.050 A 
HETATM   19  C2  UNK     1      14.667   8.454  33.063  1.00  0.00     0.039 C 
HETATM   20  C5  UNK     1      16.995   8.691  33.529  1.00  0.00    -0.052 A 
HETATM   21  C1  UNK     1      15.065   9.938  33.073  1.00  0.00     0.009 C 
HETATM   22  C3  UNK     1      16.402  10.032  33.823  1.00  0.00     0.039 C 
HETATM   23  C7  UNK     1      18.311   8.288  33.680  1.00  0.00     0.010 A 
HETATM   24  C9  UNK     1      18.636   6.964  33.378  1.00  0.00     0.030 A 
ENDBRANCH  14  16
ENDBRANCH   3  12
BRANCH   8  25
HETATM   25  O3  UNK     1      19.383  -2.059  32.718  1.00  0.00    -0.353 OA
HETATM   26  C20 UNK     1      20.531  -2.455  33.469  1.00  0.00     0.210 C 
ENDBRANCH   8  25
TORSDOF 3
ENDMDL
MODEL 9
REMARK VINA RESULT:      -8.6     18.499     20.399
REMARK  3 active torsions:
REMARK  status: ('A' for Active; 'I' for Inactive)
REMARK    1  A    between atoms: C16_21  and  O3_3 
REMARK       I    between atoms: C10_15  and  N1_5 
REMARK    2  A    between atoms: C8_13  and  N1_5 
REMARK    3  A    between atoms: C10_15  and  C11_16 
ROOT
HETATM    1  O1  UNK     1      19.362   1.762  17.168  1.00  0.00    -0.271 OA
HETATM    2  O4  UNK     1      19.160   0.980  15.031  1.00  0.00    -0.259 OA
HETATM    3  C11 UNK     1      18.968  -0.618  16.770  1.00  0.00     0.108 A 
HETATM    4  C12 UNK     1      19.186   0.215  19.034  1.00  0.00     0.002 A 
HETATM    5  C13 UNK     1      18.976  -0.867  18.085  1.00  0.00     0.037 A 
HETATM    6  C14 UNK     1      19.374   1.506  18.553  1.00  0.00     0.123 A 
HETATM    7  C15 UNK     1      19.167   0.748  16.236  1.00  0.00     0.304 A 
HETATM    8  C16 UNK     1      19.577   2.586  19.409  1.00  0.00     0.102 A 
HETATM    9  C17 UNK     1      19.203   0.000  20.415  1.00  0.00     0.014 A 
HETATM   10  C18 UNK     1      19.593   2.364  20.785  1.00  0.00     0.040 A 
HETATM   11  C19 UNK     1      19.406   1.074  21.287  1.00  0.00     0.004 A 
ENDROOT
BRANCH   3  12
HETATM   12  C10 UNK     1      18.749  -1.782  15.886  1.00  0.00     0.262 C 
HETATM   13  O2  UNK     1      17.664  -2.351  15.900  1.00  0.00    -0.267 OA
HETATM   14  N1  UNK     1      19.875  -2.087  15.117  1.00  0.00    -0.323 N 
HETATM   15  H10 UNK     1      20.708  -1.517  15.248  1.00  0.00     0.169 HD
BRANCH  14  16
HETATM   16  C8  UNK     1      20.022  -3.114  14.184  1.00  0.00     0.035 A 
HETATM   17  C6  UNK     1      20.302  -4.411  14.620  1.00  0.00     0.037 A 
HETATM   18  C4  UNK     1      20.447  -5.407  13.668  1.00  0.00    -0.050 A 
HETATM   19  C2  UNK     1      20.707  -6.863  13.890  1.00  0.00     0.039 C 
HETATM   20  C5  UNK     1      20.304  -5.127  12.304  1.00  0.00    -0.052 A 
HETATM   21  C1  UNK     1      21.158  -7.300  12.488  1.00  0.00     0.009 C 
HETATM   22  C3  UNK     1      20.456  -6.371  11.487  1.00  0.00     0.039 C 
HETATM   23  C7  UNK     1      20.015  -3.846  11.863  1.00  0.00     0.010 A 
HETATM   24  C9  UNK     1      19.880  -2.834  12.815  1.00  0.00     0.030 A 
ENDBRANCH  14  16
ENDBRANCH   3  12
BRANCH   8  25
HETATM   25  O3  UNK     1      19.759   3.844  18.926  1.00  0.00    -0.353 OA
HETATM   26  C20 UNK     1      21.092   4.223  18.584  1.00  0.00     0.210 C 
ENDBRANCH   8  25
TORSDOF 3
ENDMDL
MODEL 10
REMARK VINA RESULT:      -8.6      2.112      8.779
REMARK  3 active torsions:
REMARK  status: ('A' for Active; 'I' for Inactive)
REMARK    1  A    between atoms: C16_21  and  O3_3 
REMARK       I    between atoms: C10_15  and  N1_5 
REMARK    2  A    between atoms: C8_13  and  N1_5 
REMARK    3  A    between atoms: C10_15  and  C11_16 
ROOT
HETATM    1  O1  UNK     1      20.699  -7.702  35.500  1.00  0.00    -0.271 OA
HETATM    2  O4  UNK     1      20.393  -5.580  34.713  1.00  0.00    -0.259 OA
HETATM    3  C11 UNK     1      19.018  -6.249  36.522  1.00  0.00     0.108 A 
HETATM    4  C12 UNK     1      19.343  -8.501  37.353  1.00  0.00     0.002 A 
HETATM    5  C13 UNK     1      18.675  -7.210  37.389  1.00  0.00     0.037 A 
HETATM    6  C14 UNK     1      20.341  -8.717  36.408  1.00  0.00     0.123 A 
HETATM    7  C15 UNK     1      20.076  -6.458  35.508  1.00  0.00     0.304 A 
HETATM    8  C16 UNK     1      21.020  -9.931  36.323  1.00  0.00     0.102 A 
HETATM    9  C17 UNK     1      19.016  -9.532  38.237  1.00  0.00     0.014 A 
HETATM   10  C18 UNK     1      20.689 -10.954  37.209  1.00  0.00     0.040 A 
HETATM   11  C19 UNK     1      19.689 -10.756  38.164  1.00  0.00     0.004 A 
ENDROOT
BRANCH   3  12
HETATM   12  C10 UNK     1      18.282  -4.973  36.636  1.00  0.00     0.262 C 
HETATM   13  O2  UNK     1      17.063  -4.992  36.761  1.00  0.00    -0.267 OA
HETATM   14  N1  UNK     1      19.128  -3.863  36.582  1.00  0.00    -0.323 N 
HETATM   15  H10 UNK     1      20.123  -4.030  36.452  1.00  0.00     0.169 HD
BRANCH  14  16
HETATM   16  C8  UNK     1      18.777  -2.514  36.658  1.00  0.00     0.035 A 
HETATM   17  C6  UNK     1      18.807  -1.725  35.506  1.00  0.00     0.037 A 
HETATM   18  C4  UNK     1      18.457  -0.389  35.615  1.00  0.00    -0.050 A 
HETATM   19  C2  UNK     1      18.376   0.635  34.528  1.00  0.00     0.039 C 
HETATM   20  C5  UNK     1      18.070   0.157  36.845  1.00  0.00    -0.052 A 
HETATM   21  C1  UNK     1      18.350   1.935  35.346  1.00  0.00     0.009 C 
HETATM   22  C3  UNK     1      17.695   1.597  36.694  1.00  0.00     0.039 C 
HETATM   23  C7  UNK     1      18.025  -0.621  37.990  1.00  0.00     0.010 A 
HETATM   24  C9  UNK     1      18.389  -1.966  37.891  1.00  0.00     0.030 A 
ENDBRANCH  14  16
ENDBRANCH   3  12
BRANCH   8  25
HETATM   25  O3  UNK     1      21.994 -10.130  35.395  1.00  0.00    -0.353 OA
HETATM   26  C20 UNK     1      22.983 -11.115  35.691  1.00  0.00     0.210 C 
ENDBRANCH   8  25
TORSDOF 3
ENDMDL
