MODEL 1
REMARK VINA RESULT:      -8.8      0.000      0.000
REMARK  4 active torsions:
REMARK  status: ('A' for Active; 'I' for Inactive)
REMARK    1  A    between atoms: C7_16  and  O2_3 
REMARK    2  A    between atoms: C4_13  and  N1_8 
REMARK       I    between atoms: C6_15  and  N1_8 
REMARK    3  A    between atoms: C12_21  and  N2_9 
REMARK    4  A    between atoms: C2_11  and  C6_15 
ROOT
HETATM    1  O3  UNK     1      17.567   3.237  32.857  1.00  0.00    -0.267 OA
HETATM    2  N1  UNK     1      18.833   4.703  31.518  1.00  0.00    -0.320 N 
HETATM    3  C6  UNK     1      18.313   3.477  31.910  1.00  0.00     0.262 C 
HETATM    4  H2  UNK     1      19.422   4.739  30.690  1.00  0.00     0.169 HD
ENDROOT
BRANCH   3   5
HETATM    5  C2  UNK     1      18.756   2.383  31.036  1.00  0.00     0.108 A 
HETATM    6  C10 UNK     1      18.719   2.493  29.561  1.00  0.00     0.304 A 
HETATM    7  O1  UNK     1      19.164   1.388  28.840  1.00  0.00    -0.274 OA
HETATM    8  O4  UNK     1      18.318   3.505  28.996  1.00  0.00    -0.259 OA
HETATM    9  C3  UNK     1      19.629   0.221  29.479  1.00  0.00     0.089 A 
HETATM   10  C1  UNK     1      19.655   0.140  30.868  1.00  0.00     0.000 A 
HETATM   11  C11 UNK     1      20.055  -0.832  28.673  1.00  0.00     0.039 A 
HETATM   12  C5  UNK     1      19.195   1.278  31.649  1.00  0.00     0.037 A 
HETATM   13  C8  UNK     1      20.122  -1.034  31.466  1.00  0.00     0.033 A 
HETATM   14  C15 UNK     1      20.552  -2.100  30.670  1.00  0.00     0.011 A 
HETATM   15 Br1  UNK     1      21.183  -3.687  31.482  1.00  0.00    -0.051 Br
HETATM   16  C16 UNK     1      20.519  -1.999  29.277  1.00  0.00     0.022 A 
ENDBRANCH   3   5
BRANCH   2  17
HETATM   17  C4  UNK     1      18.619   5.965  32.124  1.00  0.00     0.071 A 
HETATM   18  C9  UNK     1      17.429   6.629  31.875  1.00  0.00     0.068 A 
HETATM   19  C12 UNK     1      17.204   7.873  32.464  1.00  0.00     0.105 A 
HETATM   20  C14 UNK     1      18.171   8.435  33.296  1.00  0.00     0.039 A 
HETATM   21  C13 UNK     1      19.365   7.754  33.538  1.00  0.00     0.041 A 
HETATM   22  C7  UNK     1      19.590   6.510  32.947  1.00  0.00     0.095 A 
BRANCH  19  23
HETATM   23  N2  UNK     1      15.989   8.566  32.220  1.00  0.00    -0.116 N 
HETATM   24  O5  UNK     1      15.292   8.934  33.195  1.00  0.00    -0.532 OA
HETATM   25  O6  UNK     1      15.646   8.793  31.034  1.00  0.00    -0.532 OA
ENDBRANCH  19  23
BRANCH  22  26
HETATM   26  O2  UNK     1      20.763   5.862  33.197  1.00  0.00    -0.354 OA
HETATM   27  C17 UNK     1      21.878   6.203  32.375  1.00  0.00     0.210 C 
ENDBRANCH  22  26
ENDBRANCH   2  17
TORSDOF 4
ENDMDL
MODEL 2
REMARK VINA RESULT:      -8.8      5.276      8.406
REMARK  4 active torsions:
REMARK  status: ('A' for Active; 'I' for Inactive)
REMARK    1  A    between atoms: C7_16  and  O2_3 
REMARK    2  A    between atoms: C4_13  and  N1_8 
REMARK       I    between atoms: C6_15  and  N1_8 
REMARK    3  A    between atoms: C12_21  and  N2_9 
REMARK    4  A    between atoms: C2_11  and  C6_15 
ROOT
HETATM    1  O3  UNK     1      17.896  -0.927  32.694  1.00  0.00    -0.267 OA
HETATM    2  N1  UNK     1      18.914   0.255  34.459  1.00  0.00    -0.320 N 
HETATM    3  C6  UNK     1      18.421   0.077  33.173  1.00  0.00     0.262 C 
HETATM    4  H2  UNK     1      19.301   1.161  34.710  1.00  0.00     0.169 HD
ENDROOT
BRANCH   3   5
HETATM    5  C2  UNK     1      18.585   1.279  32.346  1.00  0.00     0.108 A 
HETATM    6  C10 UNK     1      19.141   1.219  30.976  1.00  0.00     0.304 A 
HETATM    7  O1  UNK     1      19.249   2.426  30.291  1.00  0.00    -0.274 OA
HETATM    8  O4  UNK     1      19.491   0.161  30.463  1.00  0.00    -0.259 OA
HETATM    9  C3  UNK     1      18.848   3.647  30.870  1.00  0.00     0.089 A 
HETATM   10  C1  UNK     1      18.328   3.680  32.160  1.00  0.00     0.000 A 
HETATM   11  C11 UNK     1      18.993   4.804  30.106  1.00  0.00     0.039 A 
HETATM   12  C5  UNK     1      18.204   2.435  32.901  1.00  0.00     0.037 A 
HETATM   13  C8  UNK     1      17.943   4.910  32.700  1.00  0.00     0.033 A 
HETATM   14  C15 UNK     1      18.082   6.079  31.947  1.00  0.00     0.011 A 
HETATM   15 Br1  UNK     1      17.560   7.741  32.681  1.00  0.00    -0.051 Br
HETATM   16  C16 UNK     1      18.607   6.026  30.652  1.00  0.00     0.022 A 
ENDBRANCH   3   5
BRANCH   2  17
HETATM   17  C4  UNK     1      18.923  -0.685  35.518  1.00  0.00     0.071 A 
HETATM   18  C9  UNK     1      19.652  -1.853  35.364  1.00  0.00     0.068 A 
HETATM   19  C12 UNK     1      19.670  -2.788  36.399  1.00  0.00     0.105 A 
HETATM   20  C14 UNK     1      18.960  -2.543  37.573  1.00  0.00     0.039 A 
HETATM   21  C13 UNK     1      18.230  -1.362  37.713  1.00  0.00     0.041 A 
HETATM   22  C7  UNK     1      18.212  -0.427  36.678  1.00  0.00     0.095 A 
BRANCH  19  23
HETATM   23  N2  UNK     1      20.413  -3.991  36.258  1.00  0.00    -0.116 N 
HETATM   24  O5  UNK     1      21.243  -4.299  37.145  1.00  0.00    -0.532 OA
HETATM   25  O6  UNK     1      20.217  -4.711  35.249  1.00  0.00    -0.532 OA
ENDBRANCH  19  23
BRANCH  22  26
HETATM   26  O2  UNK     1      17.493   0.721  36.835  1.00  0.00    -0.354 OA
HETATM   27  C17 UNK     1      17.483   1.305  38.137  1.00  0.00     0.210 C 
ENDBRANCH  22  26
ENDBRANCH   2  17
TORSDOF 4
ENDMDL
MODEL 3
REMARK VINA RESULT:      -8.5      7.700     11.540
REMARK  4 active torsions:
REMARK  status: ('A' for Active; 'I' for Inactive)
REMARK    1  A    between atoms: C7_16  and  O2_3 
REMARK    2  A    between atoms: C4_13  and  N1_8 
REMARK       I    between atoms: C6_15  and  N1_8 
REMARK    3  A    between atoms: C12_21  and  N2_9 
REMARK    4  A    between atoms: C2_11  and  C6_15 
ROOT
HETATM    1  O3  UNK     1      20.546  -3.045  37.509  1.00  0.00    -0.267 OA
HETATM    2  N1  UNK     1      19.520  -4.650  36.123  1.00  0.00    -0.320 N 
HETATM    3  C6  UNK     1      19.944  -3.380  36.490  1.00  0.00     0.262 C 
HETATM    4  H2  UNK     1      19.051  -4.766  35.229  1.00  0.00     0.169 HD
ENDROOT
BRANCH   3   5
HETATM    5  C2  UNK     1      19.592  -2.368  35.486  1.00  0.00     0.108 A 
HETATM    6  C10 UNK     1      18.737  -1.204  35.811  1.00  0.00     0.304 A 
HETATM    7  O1  UNK     1      18.473  -0.313  34.775  1.00  0.00    -0.274 OA
HETATM    8  O4  UNK     1      18.282  -1.028  36.936  1.00  0.00    -0.259 OA
HETATM    9  C3  UNK     1      18.992  -0.506  33.479  1.00  0.00     0.089 A 
HETATM   10  C1  UNK     1      19.793  -1.607  33.195  1.00  0.00     0.000 A 
HETATM   11  C11 UNK     1      18.673   0.440  32.506  1.00  0.00     0.039 A 
HETATM   12  C5  UNK     1      20.087  -2.556  34.258  1.00  0.00     0.037 A 
HETATM   13  C8  UNK     1      20.289  -1.764  31.898  1.00  0.00     0.033 A 
HETATM   14  C15 UNK     1      19.977  -0.824  30.912  1.00  0.00     0.011 A 
HETATM   15 Br1  UNK     1      20.649  -1.040  29.158  1.00  0.00    -0.051 Br
HETATM   16  C16 UNK     1      19.170   0.276  31.216  1.00  0.00     0.022 A 
ENDBRANCH   3   5
BRANCH   2  17
HETATM   17  C4  UNK     1      19.687  -5.858  36.845  1.00  0.00     0.071 A 
HETATM   18  C9  UNK     1      20.969  -6.256  37.186  1.00  0.00     0.068 A 
HETATM   19  C12 UNK     1      21.149  -7.443  37.896  1.00  0.00     0.105 A 
HETATM   20  C14 UNK     1      20.045  -8.215  38.255  1.00  0.00     0.039 A 
HETATM   21  C13 UNK     1      18.760  -7.800  37.904  1.00  0.00     0.041 A 
HETATM   22  C7  UNK     1      18.580  -6.613  37.194  1.00  0.00     0.095 A 
BRANCH  19  23
HETATM   23  N2  UNK     1      22.457  -7.866  38.255  1.00  0.00    -0.116 N 
HETATM   24  O5  UNK     1      22.751  -7.968  39.469  1.00  0.00    -0.532 OA
HETATM   25  O6  UNK     1      23.282  -8.126  37.346  1.00  0.00    -0.532 OA
ENDBRANCH  19  23
BRANCH  22  26
HETATM   26  O2  UNK     1      17.316  -6.226  36.860  1.00  0.00    -0.354 OA
HETATM   27  C17 UNK     1      16.695  -6.911  35.775  1.00  0.00     0.210 C 
ENDBRANCH  22  26
ENDBRANCH   2  17
TORSDOF 4
ENDMDL
MODEL 4
REMARK VINA RESULT:      -8.3      8.003     10.387
REMARK  4 active torsions:
REMARK  status: ('A' for Active; 'I' for Inactive)
REMARK    1  A    between atoms: C7_16  and  O2_3 
REMARK    2  A    between atoms: C4_13  and  N1_8 
REMARK       I    between atoms: C6_15  and  N1_8 
REMARK    3  A    between atoms: C12_21  and  N2_9 
REMARK    4  A    between atoms: C2_11  and  C6_15 
ROOT
HETATM    1  O3  UNK     1      20.947  -4.287  37.847  1.00  0.00    -0.267 OA
HETATM    2  N1  UNK     1      19.307  -4.163  36.161  1.00  0.00    -0.320 N 
HETATM    3  C6  UNK     1      20.154  -4.799  37.059  1.00  0.00     0.262 C 
HETATM    4  H2  UNK     1      18.688  -4.733  35.589  1.00  0.00     0.169 HD
ENDROOT
BRANCH   3   5
HETATM    5  C2  UNK     1      20.028  -6.261  36.998  1.00  0.00     0.108 A 
HETATM    6  C10 UNK     1      18.738  -6.948  37.234  1.00  0.00     0.304 A 
HETATM    7  O1  UNK     1      18.745  -8.337  37.150  1.00  0.00    -0.274 OA
HETATM    8  O4  UNK     1      17.710  -6.329  37.490  1.00  0.00    -0.259 OA
HETATM    9  C3  UNK     1      19.920  -9.058  36.856  1.00  0.00     0.089 A 
HETATM   10  C1  UNK     1      21.121  -8.392  36.638  1.00  0.00     0.000 A 
HETATM   11  C11 UNK     1      19.828 -10.447  36.793  1.00  0.00     0.039 A 
HETATM   12  C5  UNK     1      21.146  -6.940  36.719  1.00  0.00     0.037 A 
HETATM   13  C8  UNK     1      22.265  -9.141  36.349  1.00  0.00     0.033 A 
HETATM   14  C15 UNK     1      22.189 -10.535  36.283  1.00  0.00     0.011 A 
HETATM   15 Br1  UNK     1      23.738 -11.546  35.892  1.00  0.00    -0.051 Br
HETATM   16  C16 UNK     1      20.972 -11.187  36.504  1.00  0.00     0.022 A 
ENDBRANCH   3   5
BRANCH   2  17
HETATM   17  C4  UNK     1      19.162  -2.770  35.949  1.00  0.00     0.071 A 
HETATM   18  C9  UNK     1      18.391  -2.039  36.837  1.00  0.00     0.068 A 
HETATM   19  C12 UNK     1      18.239  -0.667  36.640  1.00  0.00     0.105 A 
HETATM   20  C14 UNK     1      18.862  -0.044  35.559  1.00  0.00     0.039 A 
HETATM   21  C13 UNK     1      19.636  -0.794  34.674  1.00  0.00     0.041 A 
HETATM   22  C7  UNK     1      19.787  -2.167  34.870  1.00  0.00     0.095 A 
BRANCH  19  23
HETATM   23  N2  UNK     1      17.452   0.099  37.542  1.00  0.00    -0.116 N 
HETATM   24  O5  UNK     1      16.260   0.351  37.246  1.00  0.00    -0.532 OA
HETATM   25  O6  UNK     1      17.972   0.501  38.611  1.00  0.00    -0.532 OA
ENDBRANCH  19  23
BRANCH  22  26
HETATM   26  O2  UNK     1      20.548  -2.881  33.993  1.00  0.00    -0.354 OA
HETATM   27  C17 UNK     1      20.607  -2.404  32.650  1.00  0.00     0.210 C 
ENDBRANCH  22  26
ENDBRANCH   2  17
TORSDOF 4
ENDMDL
MODEL 5
REMARK VINA RESULT:      -8.2      8.386     12.477
REMARK  4 active torsions:
REMARK  status: ('A' for Active; 'I' for Inactive)
REMARK    1  A    between atoms: C7_16  and  O2_3 
REMARK    2  A    between atoms: C4_13  and  N1_8 
REMARK       I    between atoms: C6_15  and  N1_8 
REMARK    3  A    between atoms: C12_21  and  N2_9 
REMARK    4  A    between atoms: C2_11  and  C6_15 
ROOT
HETATM    1  O3  UNK     1      21.246  -4.344  37.110  1.00  0.00    -0.267 OA
HETATM    2  N1  UNK     1      19.619  -5.435  35.804  1.00  0.00    -0.320 N 
HETATM    3  C6  UNK     1      20.318  -4.345  36.304  1.00  0.00     0.262 C 
HETATM    4  H2  UNK     1      18.886  -5.270  35.118  1.00  0.00     0.169 HD
ENDROOT
BRANCH   3   5
HETATM    5  C2  UNK     1      19.829  -3.074  35.754  1.00  0.00     0.108 A 
HETATM    6  C10 UNK     1      20.162  -2.634  34.380  1.00  0.00     0.304 A 
HETATM    7  O1  UNK     1      19.640  -1.410  33.972  1.00  0.00    -0.274 OA
HETATM    8  O4  UNK     1      20.861  -3.311  33.633  1.00  0.00    -0.259 OA
HETATM    9  C3  UNK     1      18.835  -0.625  34.822  1.00  0.00     0.089 A 
HETATM   10  C1  UNK     1      18.536  -1.058  36.110  1.00  0.00     0.000 A 
HETATM   11  C11 UNK     1      18.358   0.586  34.324  1.00  0.00     0.039 A 
HETATM   12  C5  UNK     1      19.066  -2.333  36.565  1.00  0.00     0.037 A 
HETATM   13  C8  UNK     1      17.735  -0.252  36.923  1.00  0.00     0.033 A 
HETATM   14  C15 UNK     1      17.249   0.966  36.438  1.00  0.00     0.011 A 
HETATM   15 Br1  UNK     1      16.166   2.055  37.541  1.00  0.00    -0.051 Br
HETATM   16  C16 UNK     1      17.560   1.384  35.141  1.00  0.00     0.022 A 
ENDBRANCH   3   5
BRANCH   2  17
HETATM   17  C4  UNK     1      19.818  -6.804  36.111  1.00  0.00     0.071 A 
HETATM   18  C9  UNK     1      21.115  -7.285  36.190  1.00  0.00     0.068 A 
HETATM   19  C12 UNK     1      21.326  -8.630  36.491  1.00  0.00     0.105 A 
HETATM   20  C14 UNK     1      20.239  -9.475  36.711  1.00  0.00     0.039 A 
HETATM   21  C13 UNK     1      18.939  -8.975  36.628  1.00  0.00     0.041 A 
HETATM   22  C7  UNK     1      18.728  -7.630  36.326  1.00  0.00     0.095 A 
BRANCH  19  23
HETATM   23  N2  UNK     1      22.649  -9.140  36.577  1.00  0.00    -0.116 N 
HETATM   24  O5  UNK     1      23.518  -8.476  37.191  1.00  0.00    -0.532 OA
HETATM   25  O6  UNK     1      22.912 -10.242  36.037  1.00  0.00    -0.532 OA
ENDBRANCH  19  23
BRANCH  22  26
HETATM   26  O2  UNK     1      17.450  -7.162  36.250  1.00  0.00    -0.354 OA
HETATM   27  C17 UNK     1      16.707  -7.495  35.078  1.00  0.00     0.210 C 
ENDBRANCH  22  26
ENDBRANCH   2  17
TORSDOF 4
ENDMDL
MODEL 6
REMARK VINA RESULT:      -8.2     14.259     17.181
REMARK  4 active torsions:
REMARK  status: ('A' for Active; 'I' for Inactive)
REMARK    1  A    between atoms: C7_16  and  O2_3 
REMARK    2  A    between atoms: C4_13  and  N1_8 
REMARK       I    between atoms: C6_15  and  N1_8 
REMARK    3  A    between atoms: C12_21  and  N2_9 
REMARK    4  A    between atoms: C2_11  and  C6_15 
ROOT
HETATM    1  O3  UNK     1      25.555  -8.602  39.560  1.00  0.00    -0.267 OA
HETATM    2  N1  UNK     1      25.741  -8.630  37.212  1.00  0.00    -0.320 N 
HETATM    3  C6  UNK     1      26.059  -8.227  38.502  1.00  0.00     0.262 C 
HETATM    4  H2  UNK     1      26.270  -8.240  36.437  1.00  0.00     0.169 HD
ENDROOT
BRANCH   3   5
HETATM    5  C2  UNK     1      27.137  -7.231  38.521  1.00  0.00     0.108 A 
HETATM    6  C10 UNK     1      26.872  -5.792  38.743  1.00  0.00     0.304 A 
HETATM    7  O1  UNK     1      27.977  -4.945  38.738  1.00  0.00    -0.274 OA
HETATM    8  O4  UNK     1      25.738  -5.361  38.924  1.00  0.00    -0.259 OA
HETATM    9  C3  UNK     1      29.284  -5.429  38.532  1.00  0.00     0.089 A 
HETATM   10  C1  UNK     1      29.510  -6.786  38.325  1.00  0.00     0.000 A 
HETATM   11  C11 UNK     1      30.327  -4.504  38.545  1.00  0.00     0.039 A 
HETATM   12  C5  UNK     1      28.376  -7.697  38.325  1.00  0.00     0.037 A 
HETATM   13  C8  UNK     1      30.820  -7.229  38.124  1.00  0.00     0.033 A 
HETATM   14  C15 UNK     1      31.877  -6.313  38.133  1.00  0.00     0.011 A 
HETATM   15 Br1  UNK     1      33.648  -6.915  37.861  1.00  0.00    -0.051 Br
HETATM   16  C16 UNK     1      31.630  -4.954  38.343  1.00  0.00     0.022 A 
ENDBRANCH   3   5
BRANCH   2  17
HETATM   17  C4  UNK     1      24.757  -9.571  36.819  1.00  0.00     0.071 A 
HETATM   18  C9  UNK     1      25.151 -10.872  36.553  1.00  0.00     0.068 A 
HETATM   19  C12 UNK     1      24.195 -11.809  36.165  1.00  0.00     0.105 A 
HETATM   20  C14 UNK     1      22.857 -11.433  36.048  1.00  0.00     0.039 A 
HETATM   21  C13 UNK     1      22.476 -10.119  36.319  1.00  0.00     0.041 A 
HETATM   22  C7  UNK     1      23.433  -9.181  36.708  1.00  0.00     0.095 A 
BRANCH  19  23
HETATM   23  N2  UNK     1      24.581 -13.148  35.890  1.00  0.00    -0.116 N 
HETATM   24  O5  UNK     1      24.425 -13.600  34.731  1.00  0.00    -0.532 OA
HETATM   25  O6  UNK     1      25.068 -13.842  36.815  1.00  0.00    -0.532 OA
ENDBRANCH  19  23
BRANCH  22  26
HETATM   26  O2  UNK     1      23.040  -7.902  36.968  1.00  0.00    -0.354 OA
HETATM   27  C17 UNK     1      21.661  -7.699  37.275  1.00  0.00     0.210 C 
ENDBRANCH  22  26
ENDBRANCH   2  17
TORSDOF 4
ENDMDL
MODEL 7
REMARK VINA RESULT:      -8.2      3.981      8.729
REMARK  4 active torsions:
REMARK  status: ('A' for Active; 'I' for Inactive)
REMARK    1  A    between atoms: C7_16  and  O2_3 
REMARK    2  A    between atoms: C4_13  and  N1_8 
REMARK       I    between atoms: C6_15  and  N1_8 
REMARK    3  A    between atoms: C12_21  and  N2_9 
REMARK    4  A    between atoms: C2_11  and  C6_15 
ROOT
HETATM    1  O3  UNK     1      19.100   6.097  31.281  1.00  0.00    -0.267 OA
HETATM    2  N1  UNK     1      17.494   4.691  32.277  1.00  0.00    -0.320 N 
HETATM    3  C6  UNK     1      18.063   5.905  31.914  1.00  0.00     0.262 C 
HETATM    4  H2  UNK     1      16.612   4.701  32.784  1.00  0.00     0.169 HD
ENDROOT
BRANCH   3   5
HETATM    5  C2  UNK     1      17.271   7.049  32.380  1.00  0.00     0.108 A 
HETATM    6  C10 UNK     1      15.794   7.072  32.288  1.00  0.00     0.304 A 
HETATM    7  O1  UNK     1      15.155   8.214  32.762  1.00  0.00    -0.274 OA
HETATM    8  O4  UNK     1      15.159   6.133  31.818  1.00  0.00    -0.259 OA
HETATM    9  C3  UNK     1      15.874   9.297  33.304  1.00  0.00     0.089 A 
HETATM   10  C1  UNK     1      17.263   9.255  33.381  1.00  0.00     0.000 A 
HETATM   11  C11 UNK     1      15.147  10.397  33.754  1.00  0.00     0.039 A 
HETATM   12  C5  UNK     1      17.959   8.075  32.893  1.00  0.00     0.037 A 
HETATM   13  C8  UNK     1      17.941  10.349  33.925  1.00  0.00     0.033 A 
HETATM   14  C15 UNK     1      17.225  11.460  34.380  1.00  0.00     0.011 A 
HETATM   15 Br1  UNK     1      18.147  12.938  35.115  1.00  0.00    -0.051 Br
HETATM   16  C16 UNK     1      15.830  11.484  34.295  1.00  0.00     0.022 A 
ENDBRANCH   3   5
BRANCH   2  17
HETATM   17  C4  UNK     1      17.981   3.391  31.997  1.00  0.00     0.071 A 
HETATM   18  C9  UNK     1      18.161   3.019  30.675  1.00  0.00     0.068 A 
HETATM   19  C12 UNK     1      18.640   1.741  30.385  1.00  0.00     0.105 A 
HETATM   20  C14 UNK     1      18.932   0.854  31.420  1.00  0.00     0.039 A 
HETATM   21  C13 UNK     1      18.745   1.244  32.746  1.00  0.00     0.041 A 
HETATM   22  C7  UNK     1      18.266   2.522  33.037  1.00  0.00     0.095 A 
BRANCH  19  23
HETATM   23  N2  UNK     1      18.832   1.344  29.035  1.00  0.00    -0.116 N 
HETATM   24  O5  UNK     1      19.626   0.406  28.784  1.00  0.00    -0.532 OA
HETATM   25  O6  UNK     1      18.201   1.941  28.130  1.00  0.00    -0.532 OA
ENDBRANCH  19  23
BRANCH  22  26
HETATM   26  O2  UNK     1      18.090   2.882  34.339  1.00  0.00    -0.354 OA
HETATM   27  C17 UNK     1      18.674   2.037  35.329  1.00  0.00     0.210 C 
ENDBRANCH  22  26
ENDBRANCH   2  17
TORSDOF 4
ENDMDL
MODEL 8
REMARK VINA RESULT:      -8.1      4.053      8.751
REMARK  4 active torsions:
REMARK  status: ('A' for Active; 'I' for Inactive)
REMARK    1  A    between atoms: C7_16  and  O2_3 
REMARK    2  A    between atoms: C4_13  and  N1_8 
REMARK       I    between atoms: C6_15  and  N1_8 
REMARK    3  A    between atoms: C12_21  and  N2_9 
REMARK    4  A    between atoms: C2_11  and  C6_15 
ROOT
HETATM    1  O3  UNK     1      19.225   6.250  30.913  1.00  0.00    -0.267 OA
HETATM    2  N1  UNK     1      17.980   5.003  32.476  1.00  0.00    -0.320 N 
HETATM    3  C6  UNK     1      18.484   6.157  31.890  1.00  0.00     0.262 C 
HETATM    4  H2  UNK     1      17.355   5.096  33.272  1.00  0.00     0.169 HD
ENDROOT
BRANCH   3   5
HETATM    5  C2  UNK     1      18.030   7.371  32.579  1.00  0.00     0.108 A 
HETATM    6  C10 UNK     1      18.887   8.089  33.549  1.00  0.00     0.304 A 
HETATM    7  O1  UNK     1      18.345   9.228  34.138  1.00  0.00    -0.274 OA
HETATM    8  O4  UNK     1      20.019   7.706  33.824  1.00  0.00    -0.259 OA
HETATM    9  C3  UNK     1      17.046   9.679  33.829  1.00  0.00     0.089 A 
HETATM   10  C1  UNK     1      16.258   8.988  32.914  1.00  0.00     0.000 A 
HETATM   11  C11 UNK     1      16.591  10.830  34.470  1.00  0.00     0.039 A 
HETATM   12  C5  UNK     1      16.796   7.794  32.282  1.00  0.00     0.037 A 
HETATM   13  C8  UNK     1      14.975   9.465  32.634  1.00  0.00     0.033 A 
HETATM   14  C15 UNK     1      14.504  10.618  33.269  1.00  0.00     0.011 A 
HETATM   15 Br1  UNK     1      12.767  11.260  32.887  1.00  0.00    -0.051 Br
HETATM   16  C16 UNK     1      15.310  11.299  34.185  1.00  0.00     0.022 A 
ENDBRANCH   3   5
BRANCH   2  17
HETATM   17  C4  UNK     1      18.207   3.663  32.078  1.00  0.00     0.071 A 
HETATM   18  C9  UNK     1      18.270   3.372  30.725  1.00  0.00     0.068 A 
HETATM   19  C12 UNK     1      18.492   2.057  30.319  1.00  0.00     0.105 A 
HETATM   20  C14 UNK     1      18.649   1.050  31.270  1.00  0.00     0.039 A 
HETATM   21  C13 UNK     1      18.583   1.358  32.629  1.00  0.00     0.041 A 
HETATM   22  C7  UNK     1      18.360   2.674  33.036  1.00  0.00     0.095 A 
BRANCH  19  23
HETATM   23  N2  UNK     1      18.561   1.742  28.935  1.00  0.00    -0.116 N 
HETATM   24  O5  UNK     1      19.276   0.780  28.566  1.00  0.00    -0.532 OA
HETATM   25  O6  UNK     1      17.905   2.435  28.121  1.00  0.00    -0.532 OA
ENDBRANCH  19  23
BRANCH  22  26
HETATM   26  O2  UNK     1      18.299   2.954  34.369  1.00  0.00    -0.354 OA
HETATM   27  C17 UNK     1      18.653   1.904  35.267  1.00  0.00     0.210 C 
ENDBRANCH  22  26
ENDBRANCH   2  17
TORSDOF 4
ENDMDL
MODEL 9
REMARK VINA RESULT:      -8.1     23.224     25.164
REMARK  4 active torsions:
REMARK  status: ('A' for Active; 'I' for Inactive)
REMARK    1  A    between atoms: C7_16  and  O2_3 
REMARK    2  A    between atoms: C4_13  and  N1_8 
REMARK       I    between atoms: C6_15  and  N1_8 
REMARK    3  A    between atoms: C12_21  and  N2_9 
REMARK    4  A    between atoms: C2_11  and  C6_15 
ROOT
HETATM    1  O3  UNK     1      13.412   9.764   9.794  1.00  0.00    -0.267 OA
HETATM    2  N1  UNK     1      14.211   7.970   8.495  1.00  0.00    -0.320 N 
HETATM    3  C6  UNK     1      14.270   9.216   9.105  1.00  0.00     0.262 C 
HETATM    4  H2  UNK     1      15.021   7.646   7.972  1.00  0.00     0.169 HD
ENDROOT
BRANCH   3   5
HETATM    5  C2  UNK     1      15.544   9.898   8.847  1.00  0.00     0.108 A 
HETATM    6  C10 UNK     1      16.829   9.386   9.372  1.00  0.00     0.304 A 
HETATM    7  O1  UNK     1      17.969  10.122   9.062  1.00  0.00    -0.274 OA
HETATM    8  O4  UNK     1      16.893   8.365  10.048  1.00  0.00    -0.259 OA
HETATM    9  C3  UNK     1      17.908  11.296   8.285  1.00  0.00     0.089 A 
HETATM   10  C1  UNK     1      16.688  11.760   7.802  1.00  0.00     0.000 A 
HETATM   11  C11 UNK     1      19.103  11.964   8.026  1.00  0.00     0.039 A 
HETATM   12  C5  UNK     1      15.479  11.013   8.110  1.00  0.00     0.037 A 
HETATM   13  C8  UNK     1      16.667  12.928   7.036  1.00  0.00     0.033 A 
HETATM   14  C15 UNK     1      17.858  13.610   6.767  1.00  0.00     0.011 A 
HETATM   15 Br1  UNK     1      17.826  15.191   5.731  1.00  0.00    -0.051 Br
HETATM   16  C16 UNK     1      19.073  13.128   7.261  1.00  0.00     0.022 A 
ENDBRANCH   3   5
BRANCH   2  17
HETATM   17  C4  UNK     1      13.142   7.041   8.529  1.00  0.00     0.071 A 
HETATM   18  C9  UNK     1      12.151   7.132   7.566  1.00  0.00     0.068 A 
HETATM   19  C12 UNK     1      11.092   6.225   7.587  1.00  0.00     0.105 A 
HETATM   20  C14 UNK     1      11.038   5.238   8.571  1.00  0.00     0.039 A 
HETATM   21  C13 UNK     1      12.044   5.160   9.535  1.00  0.00     0.041 A 
HETATM   22  C7  UNK     1      13.103   6.068   9.513  1.00  0.00     0.095 A 
BRANCH  19  23
HETATM   23  N2  UNK     1      10.068   6.304   6.606  1.00  0.00    -0.116 N 
HETATM   24  O5  UNK     1       8.990   5.693   6.801  1.00  0.00    -0.532 OA
HETATM   25  O6  UNK     1      10.269   6.984   5.571  1.00  0.00    -0.532 OA
ENDBRANCH  19  23
BRANCH  22  26
HETATM   26  O2  UNK     1      14.075   5.973  10.464  1.00  0.00    -0.354 OA
HETATM   27  C17 UNK     1      15.124   5.035  10.226  1.00  0.00     0.210 C 
ENDBRANCH  22  26
ENDBRANCH   2  17
TORSDOF 4
ENDMDL
MODEL 10
REMARK VINA RESULT:      -8.0      3.121      4.506
REMARK  4 active torsions:
REMARK  status: ('A' for Active; 'I' for Inactive)
REMARK    1  A    between atoms: C7_16  and  O2_3 
REMARK    2  A    between atoms: C4_13  and  N1_8 
REMARK       I    between atoms: C6_15  and  N1_8 
REMARK    3  A    between atoms: C12_21  and  N2_9 
REMARK    4  A    between atoms: C2_11  and  C6_15 
ROOT
HETATM    1  O3  UNK     1      19.078   6.013  31.986  1.00  0.00    -0.267 OA
HETATM    2  N1  UNK     1      17.320   6.111  33.551  1.00  0.00    -0.320 N 
HETATM    3  C6  UNK     1      18.280   5.490  32.762  1.00  0.00     0.262 C 
HETATM    4  H2  UNK     1      16.748   5.535  34.163  1.00  0.00     0.169 HD
ENDROOT
BRANCH   3   5
HETATM    5  C2  UNK     1      18.277   4.032  32.933  1.00  0.00     0.108 A 
HETATM    6  C10 UNK     1      18.353   3.107  31.780  1.00  0.00     0.304 A 
HETATM    7  O1  UNK     1      18.342   1.745  32.068  1.00  0.00    -0.274 OA
HETATM    8  O4  UNK     1      18.424   3.514  30.625  1.00  0.00    -0.259 OA
HETATM    9  C3  UNK     1      18.262   1.266  33.392  1.00  0.00     0.089 A 
HETATM   10  C1  UNK     1      18.191   2.154  34.460  1.00  0.00     0.000 A 
HETATM   11  C11 UNK     1      18.257  -0.114  33.581  1.00  0.00     0.039 A 
HETATM   12  C5  UNK     1      18.200   3.583  34.191  1.00  0.00     0.037 A 
HETATM   13  C8  UNK     1      18.112   1.642  35.758  1.00  0.00     0.033 A 
HETATM   14  C15 UNK     1      18.106   0.259  35.965  1.00  0.00     0.011 A 
HETATM   15 Br1  UNK     1      18.000  -0.431  37.722  1.00  0.00    -0.051 Br
HETATM   16  C16 UNK     1      18.179  -0.617  34.878  1.00  0.00     0.022 A 
ENDBRANCH   3   5
BRANCH   2  17
HETATM   17  C4  UNK     1      17.041   7.497  33.642  1.00  0.00     0.071 A 
HETATM   18  C9  UNK     1      18.101   8.382  33.752  1.00  0.00     0.068 A 
HETATM   19  C12 UNK     1      17.843   9.749  33.843  1.00  0.00     0.105 A 
HETATM   20  C14 UNK     1      16.528  10.213  33.820  1.00  0.00     0.039 A 
HETATM   21  C13 UNK     1      15.471   9.309  33.709  1.00  0.00     0.041 A 
HETATM   22  C7  UNK     1      15.730   7.941  33.619  1.00  0.00     0.095 A 
BRANCH  19  23
HETATM   23  N2  UNK     1      18.918  10.670  33.955  1.00  0.00    -0.116 N 
HETATM   24  O5  UNK     1      19.987  10.295  34.492  1.00  0.00    -0.532 OA
HETATM   25  O6  UNK     1      18.768  11.835  33.513  1.00  0.00    -0.532 OA
ENDBRANCH  19  23
BRANCH  22  26
HETATM   26  O2  UNK     1      14.683   7.075  33.510  1.00  0.00    -0.354 OA
HETATM   27  C17 UNK     1      13.819   7.242  32.388  1.00  0.00     0.210 C 
ENDBRANCH  22  26
ENDBRANCH   2  17
TORSDOF 4
ENDMDL
