MODEL 1
REMARK VINA RESULT:      -7.2      0.000      0.000
REMARK  3 active torsions:
REMARK  status: ('A' for Active; 'I' for Inactive)
REMARK    1  A    between atoms: C11_16  and  O2_3 
REMARK    2  A    between atoms: C5_10  and  O2_3 
REMARK    3  A    between atoms: C11_16  and  C12_17 
ROOT
HETATM    1  I1  UNK     1      18.124   1.837  34.639  1.00  0.00    -0.039 I 
HETATM    2  O1  UNK     1      19.373  -0.455  32.850  1.00  0.00    -0.273 OA
HETATM    3  O3  UNK     1      20.195  -2.571  33.122  1.00  0.00    -0.260 OA
HETATM    4  C1  UNK     1      19.354   0.543  30.620  1.00  0.00     0.005 A 
HETATM    5  C2  UNK     1      19.083   0.621  31.986  1.00  0.00     0.109 A 
HETATM    6  C3  UNK     1      19.953  -0.691  30.091  1.00  0.00    -0.043 A 
HETATM    7  C4  UNK     1      19.035   1.654  29.830  1.00  0.00     0.017 A 
HETATM    8  C5  UNK     1      18.206   2.848  31.769  1.00  0.00     0.088 A 
HETATM    9  C6  UNK     1      18.515   1.755  32.570  1.00  0.00     0.074 A 
HETATM   10  C7  UNK     1      18.466   2.799  30.400  1.00  0.00     0.039 A 
HETATM   11  C8  UNK     1      20.218  -1.697  30.935  1.00  0.00     0.090 A 
HETATM   12  C9  UNK     1      20.256  -0.806  28.626  1.00  0.00     0.049 C 
HETATM   13  C10 UNK     1      19.938  -1.630  32.380  1.00  0.00     0.288 A 
ENDROOT
BRANCH   8  14
HETATM   14  O2  UNK     1      17.651   3.987  32.273  1.00  0.00    -0.343 OA
BRANCH  14  15
HETATM   15  C11 UNK     1      18.058   5.221  31.684  1.00  0.00     0.253 C 
BRANCH  15  16
HETATM   16  C12 UNK     1      19.330   5.728  32.331  1.00  0.00     0.146 C 
HETATM   17  O4  UNK     1      20.312   6.069  31.674  1.00  0.00    -0.296 OA
HETATM   18  C13 UNK     1      19.331   5.795  33.835  1.00  0.00     0.093 C 
ENDBRANCH  15  16
ENDBRANCH  14  15
ENDBRANCH   8  14
TORSDOF 3
ENDMDL
MODEL 2
REMARK VINA RESULT:      -6.9      3.804      8.486
REMARK  3 active torsions:
REMARK  status: ('A' for Active; 'I' for Inactive)
REMARK    1  A    between atoms: C11_16  and  O2_3 
REMARK    2  A    between atoms: C5_10  and  O2_3 
REMARK    3  A    between atoms: C11_16  and  C12_17 
ROOT
HETATM    1  I1  UNK     1      14.945   7.310  32.328  1.00  0.00    -0.039 I 
HETATM    2  O1  UNK     1      16.773   9.638  33.446  1.00  0.00    -0.273 OA
HETATM    3  O3  UNK     1      16.578  11.855  33.967  1.00  0.00    -0.260 OA
HETATM    4  C1  UNK     1      18.925   8.523  33.751  1.00  0.00     0.005 A 
HETATM    5  C2  UNK     1      17.583   8.487  33.370  1.00  0.00     0.109 A 
HETATM    6  C3  UNK     1      19.485   9.791  34.237  1.00  0.00    -0.043 A 
HETATM    7  C4  UNK     1      19.662   7.335  33.648  1.00  0.00     0.017 A 
HETATM    8  C5  UNK     1      17.721   6.155  32.803  1.00  0.00     0.088 A 
HETATM    9  C6  UNK     1      16.973   7.323  32.898  1.00  0.00     0.074 A 
HETATM   10  C7  UNK     1      19.065   6.161  33.176  1.00  0.00     0.039 A 
HETATM   11  C8  UNK     1      18.692  10.870  34.298  1.00  0.00     0.090 A 
HETATM   12  C9  UNK     1      20.924   9.862  34.655  1.00  0.00     0.049 C 
HETATM   13  C10 UNK     1      17.274  10.848  33.898  1.00  0.00     0.288 A 
ENDROOT
BRANCH   8  14
HETATM   14  O2  UNK     1      17.189   4.985  32.349  1.00  0.00    -0.343 OA
BRANCH  14  15
HETATM   15  C11 UNK     1      18.045   3.844  32.344  1.00  0.00     0.253 C 
BRANCH  15  16
HETATM   16  C12 UNK     1      18.195   3.295  30.940  1.00  0.00     0.146 C 
HETATM   17  O4  UNK     1      17.700   2.223  30.595  1.00  0.00    -0.296 OA
HETATM   18  C13 UNK     1      18.988   4.137  29.977  1.00  0.00     0.093 C 
ENDBRANCH  15  16
ENDBRANCH  14  15
ENDBRANCH   8  14
TORSDOF 3
ENDMDL
MODEL 3
REMARK VINA RESULT:      -6.8      2.533      3.867
REMARK  3 active torsions:
REMARK  status: ('A' for Active; 'I' for Inactive)
REMARK    1  A    between atoms: C11_16  and  O2_3 
REMARK    2  A    between atoms: C5_10  and  O2_3 
REMARK    3  A    between atoms: C11_16  and  C12_17 
ROOT
HETATM    1  I1  UNK     1      18.369   2.767  29.662  1.00  0.00    -0.039 I 
HETATM    2  O1  UNK     1      18.490   0.784  32.124  1.00  0.00    -0.273 OA
HETATM    3  O3  UNK     1      18.659  -1.467  32.492  1.00  0.00    -0.260 OA
HETATM    4  C1  UNK     1      18.340   2.299  34.034  1.00  0.00     0.005 A 
HETATM    5  C2  UNK     1      18.379   2.084  32.656  1.00  0.00     0.109 A 
HETATM    6  C3  UNK     1      18.417   1.137  34.930  1.00  0.00    -0.043 A 
HETATM    7  C4  UNK     1      18.230   3.622  34.483  1.00  0.00     0.017 A 
HETATM    8  C5  UNK     1      18.203   4.438  32.201  1.00  0.00     0.088 A 
HETATM    9  C6  UNK     1      18.311   3.132  31.736  1.00  0.00     0.074 A 
HETATM   10  C7  UNK     1      18.161   4.683  33.573  1.00  0.00     0.039 A 
HETATM   11  C8  UNK     1      18.522  -0.088  34.397  1.00  0.00     0.090 A 
HETATM   12  C9  UNK     1      18.379   1.335  36.417  1.00  0.00     0.049 C 
HETATM   13  C10 UNK     1      18.563  -0.331  32.944  1.00  0.00     0.288 A 
ENDROOT
BRANCH   8  14
HETATM   14  O2  UNK     1      18.131   5.507  31.359  1.00  0.00    -0.343 OA
BRANCH  14  15
HETATM   15  C11 UNK     1      18.045   6.799  31.958  1.00  0.00     0.253 C 
BRANCH  15  16
HETATM   16  C12 UNK     1      16.722   7.455  31.624  1.00  0.00     0.146 C 
HETATM   17  O4  UNK     1      16.573   8.174  30.637  1.00  0.00    -0.296 OA
HETATM   18  C13 UNK     1      15.584   7.181  32.571  1.00  0.00     0.093 C 
ENDBRANCH  15  16
ENDBRANCH  14  15
ENDBRANCH   8  14
TORSDOF 3
ENDMDL
MODEL 4
REMARK VINA RESULT:      -6.8      2.604      5.887
REMARK  3 active torsions:
REMARK  status: ('A' for Active; 'I' for Inactive)
REMARK    1  A    between atoms: C11_16  and  O2_3 
REMARK    2  A    between atoms: C5_10  and  O2_3 
REMARK    3  A    between atoms: C11_16  and  C12_17 
ROOT
HETATM    1  I1  UNK     1      17.689   0.652  34.772  1.00  0.00    -0.039 I 
HETATM    2  O1  UNK     1      18.447   1.260  31.760  1.00  0.00    -0.273 OA
HETATM    3  O3  UNK     1      18.031   2.869  30.191  1.00  0.00    -0.260 OA
HETATM    4  C1  UNK     1      19.857  -0.646  31.173  1.00  0.00     0.005 A 
HETATM    5  C2  UNK     1      19.077   0.046  32.100  1.00  0.00     0.109 A 
HETATM    6  C3  UNK     1      20.013  -0.083  29.825  1.00  0.00    -0.043 A 
HETATM    7  C4  UNK     1      20.451  -1.845  31.589  1.00  0.00     0.017 A 
HETATM    8  C5  UNK     1      19.476  -1.611  33.796  1.00  0.00     0.088 A 
HETATM    9  C6  UNK     1      18.878  -0.419  33.402  1.00  0.00     0.074 A 
HETATM   10  C7  UNK     1      20.261  -2.324  32.890  1.00  0.00     0.039 A 
HETATM   11  C8  UNK     1      19.403   1.073  29.529  1.00  0.00     0.090 A 
HETATM   12  C9  UNK     1      20.846  -0.803  28.805  1.00  0.00     0.049 C 
HETATM   13  C10 UNK     1      18.575   1.814  30.497  1.00  0.00     0.288 A 
ENDROOT
BRANCH   8  14
HETATM   14  O2  UNK     1      19.322  -2.123  35.050  1.00  0.00    -0.343 OA
BRANCH  14  15
HETATM   15  C11 UNK     1      20.510  -2.488  35.750  1.00  0.00     0.253 C 
BRANCH  15  16
HETATM   16  C12 UNK     1      20.177  -3.008  37.132  1.00  0.00     0.146 C 
HETATM   17  O4  UNK     1      19.486  -2.373  37.927  1.00  0.00    -0.296 OA
HETATM   18  C13 UNK     1      20.740  -4.359  37.488  1.00  0.00     0.093 C 
ENDBRANCH  15  16
ENDBRANCH  14  15
ENDBRANCH   8  14
TORSDOF 3
ENDMDL
MODEL 5
REMARK VINA RESULT:      -6.7      2.332      5.933
REMARK  3 active torsions:
REMARK  status: ('A' for Active; 'I' for Inactive)
REMARK    1  A    between atoms: C11_16  and  O2_3 
REMARK    2  A    between atoms: C5_10  and  O2_3 
REMARK    3  A    between atoms: C11_16  and  C12_17 
ROOT
HETATM    1  I1  UNK     1      17.565   1.151  35.727  1.00  0.00    -0.039 I 
HETATM    2  O1  UNK     1      18.029   2.243  32.793  1.00  0.00    -0.273 OA
HETATM    3  O3  UNK     1      17.666   4.168  31.615  1.00  0.00    -0.260 OA
HETATM    4  C1  UNK     1      19.058   0.332  31.673  1.00  0.00     0.005 A 
HETATM    5  C2  UNK     1      18.509   0.918  32.813  1.00  0.00     0.109 A 
HETATM    6  C3  UNK     1      19.129   1.126  30.438  1.00  0.00    -0.043 A 
HETATM    7  C4  UNK     1      19.514  -0.989  31.775  1.00  0.00     0.017 A 
HETATM    8  C5  UNK     1      18.863  -1.077  34.108  1.00  0.00     0.088 A 
HETATM    9  C6  UNK     1      18.405   0.233  34.026  1.00  0.00     0.074 A 
HETATM   10  C7  UNK     1      19.416  -1.688  32.984  1.00  0.00     0.039 A 
HETATM   11  C8  UNK     1      18.665   2.383  30.448  1.00  0.00     0.090 A 
HETATM   12  C9  UNK     1      19.714   0.525  29.194  1.00  0.00     0.049 C 
HETATM   13  C10 UNK     1      18.081   3.015  31.644  1.00  0.00     0.288 A 
ENDROOT
BRANCH   8  14
HETATM   14  O2  UNK     1      18.791  -1.802  35.260  1.00  0.00    -0.343 OA
BRANCH  14  15
HETATM   15  C11 UNK     1      20.014  -2.036  35.956  1.00  0.00     0.253 C 
BRANCH  15  16
HETATM   16  C12 UNK     1      20.251  -3.520  36.135  1.00  0.00     0.146 C 
HETATM   17  O4  UNK     1      20.252  -4.307  35.190  1.00  0.00    -0.296 OA
HETATM   18  C13 UNK     1      20.491  -3.991  37.545  1.00  0.00     0.093 C 
ENDBRANCH  15  16
ENDBRANCH  14  15
ENDBRANCH   8  14
TORSDOF 3
ENDMDL
MODEL 6
REMARK VINA RESULT:      -6.7      4.531      8.258
REMARK  3 active torsions:
REMARK  status: ('A' for Active; 'I' for Inactive)
REMARK    1  A    between atoms: C11_16  and  O2_3 
REMARK    2  A    between atoms: C5_10  and  O2_3 
REMARK    3  A    between atoms: C11_16  and  C12_17 
ROOT
HETATM    1  I1  UNK     1      20.559  -2.439  33.061  1.00  0.00    -0.039 I 
HETATM    2  O1  UNK     1      18.802   0.042  33.937  1.00  0.00    -0.273 OA
HETATM    3  O3  UNK     1      17.967   1.954  33.000  1.00  0.00    -0.260 OA
HETATM    4  C1  UNK     1      18.339  -0.438  36.286  1.00  0.00     0.005 A 
HETATM    5  C2  UNK     1      18.931  -0.784  35.071  1.00  0.00     0.109 A 
HETATM    6  C3  UNK     1      17.572   0.812  36.365  1.00  0.00    -0.043 A 
HETATM    7  C4  UNK     1      18.513  -1.313  37.367  1.00  0.00     0.017 A 
HETATM    8  C5  UNK     1      19.837  -2.810  35.995  1.00  0.00     0.088 A 
HETATM    9  C6  UNK     1      19.676  -1.954  34.911  1.00  0.00     0.074 A 
HETATM   10  C7  UNK     1      19.257  -2.490  37.222  1.00  0.00     0.039 A 
HETATM   11  C8  UNK     1      17.465   1.578  35.271  1.00  0.00     0.090 A 
HETATM   12  C9  UNK     1      16.922   1.212  37.657  1.00  0.00     0.049 C 
HETATM   13  C10 UNK     1      18.085   1.228  33.981  1.00  0.00     0.288 A 
ENDROOT
BRANCH   8  14
HETATM   14  O2  UNK     1      20.553  -3.967  35.909  1.00  0.00    -0.343 OA
BRANCH  14  15
HETATM   15  C11 UNK     1      20.033  -5.102  36.598  1.00  0.00     0.253 C 
BRANCH  15  16
HETATM   16  C12 UNK     1      20.968  -5.525  37.712  1.00  0.00     0.146 C 
HETATM   17  O4  UNK     1      22.160  -5.222  37.723  1.00  0.00    -0.296 OA
HETATM   18  C13 UNK     1      20.357  -6.342  38.819  1.00  0.00     0.093 C 
ENDBRANCH  15  16
ENDBRANCH  14  15
ENDBRANCH   8  14
TORSDOF 3
ENDMDL
MODEL 7
REMARK VINA RESULT:      -6.6      3.210      5.025
REMARK  3 active torsions:
REMARK  status: ('A' for Active; 'I' for Inactive)
REMARK    1  A    between atoms: C11_16  and  O2_3 
REMARK    2  A    between atoms: C5_10  and  O2_3 
REMARK    3  A    between atoms: C11_16  and  C12_17 
ROOT
HETATM    1  I1  UNK     1      19.805  -1.778  31.957  1.00  0.00    -0.039 I 
HETATM    2  O1  UNK     1      18.852  -1.596  34.969  1.00  0.00    -0.273 OA
HETATM    3  O3  UNK     1      18.761  -2.947  36.811  1.00  0.00    -0.260 OA
HETATM    4  C1  UNK     1      18.025   0.697  35.126  1.00  0.00     0.005 A 
HETATM    5  C2  UNK     1      18.597  -0.338  34.386  1.00  0.00     0.109 A 
HETATM    6  C3  UNK     1      17.689   0.453  36.535  1.00  0.00    -0.043 A 
HETATM    7  C4  UNK     1      17.806   1.918  34.474  1.00  0.00     0.017 A 
HETATM    8  C5  UNK     1      18.721   1.029  32.413  1.00  0.00     0.088 A 
HETATM    9  C6  UNK     1      18.947  -0.189  33.042  1.00  0.00     0.074 A 
HETATM   10  C7  UNK     1      18.150   2.082  33.128  1.00  0.00     0.039 A 
HETATM   11  C8  UNK     1      17.942  -0.753  37.063  1.00  0.00     0.090 A 
HETATM   12  C9  UNK     1      17.073   1.546  37.358  1.00  0.00     0.049 C 
HETATM   13  C10 UNK     1      18.544  -1.856  36.295  1.00  0.00     0.288 A 
ENDROOT
BRANCH   8  14
HETATM   14  O2  UNK     1      19.037   1.243  31.104  1.00  0.00    -0.343 OA
BRANCH  14  15
HETATM   15  C11 UNK     1      18.168   2.093  30.359  1.00  0.00     0.253 C 
BRANCH  15  16
HETATM   16  C12 UNK     1      18.241   1.769  28.882  1.00  0.00     0.146 C 
HETATM   17  O4  UNK     1      17.793   2.522  28.018  1.00  0.00    -0.296 OA
HETATM   18  C13 UNK     1      18.896   0.463  28.518  1.00  0.00     0.093 C 
ENDBRANCH  15  16
ENDBRANCH  14  15
ENDBRANCH   8  14
TORSDOF 3
ENDMDL
MODEL 8
REMARK VINA RESULT:      -6.6      3.242      5.177
REMARK  3 active torsions:
REMARK  status: ('A' for Active; 'I' for Inactive)
REMARK    1  A    between atoms: C11_16  and  O2_3 
REMARK    2  A    between atoms: C5_10  and  O2_3 
REMARK    3  A    between atoms: C11_16  and  C12_17 
ROOT
HETATM    1  I1  UNK     1      20.688  -2.664  31.718  1.00  0.00    -0.039 I 
HETATM    2  O1  UNK     1      20.253  -3.005  34.833  1.00  0.00    -0.273 OA
HETATM    3  O3  UNK     1      20.926  -4.415  36.503  1.00  0.00    -0.260 OA
HETATM    4  C1  UNK     1      18.755  -1.151  35.366  1.00  0.00     0.005 A 
HETATM    5  C2  UNK     1      19.503  -1.879  34.440  1.00  0.00     0.109 A 
HETATM    6  C3  UNK     1      18.762  -1.582  36.771  1.00  0.00    -0.043 A 
HETATM    7  C4  UNK     1      18.038  -0.043  34.896  1.00  0.00     0.017 A 
HETATM    8  C5  UNK     1      18.832  -0.434  32.640  1.00  0.00     0.088 A 
HETATM    9  C6  UNK     1      19.550  -1.537  33.087  1.00  0.00     0.074 A 
HETATM   10  C7  UNK     1      18.076   0.312  33.543  1.00  0.00     0.039 A 
HETATM   11  C8  UNK     1      19.484  -2.656  37.117  1.00  0.00     0.090 A 
HETATM   12  C9  UNK     1      17.969  -0.820  37.791  1.00  0.00     0.049 C 
HETATM   13  C10 UNK     1      20.278  -3.436  36.150  1.00  0.00     0.288 A 
ENDROOT
BRANCH   8  14
HETATM   14  O2  UNK     1      18.833  -0.045  31.333  1.00  0.00    -0.343 OA
BRANCH  14  15
HETATM   15  C11 UNK     1      19.203   1.305  31.059  1.00  0.00     0.253 C 
BRANCH  15  16
HETATM   16  C12 UNK     1      18.111   2.010  30.283  1.00  0.00     0.146 C 
HETATM   17  O4  UNK     1      17.251   2.698  30.831  1.00  0.00    -0.296 OA
HETATM   18  C13 UNK     1      18.132   1.827  28.789  1.00  0.00     0.093 C 
ENDBRANCH  15  16
ENDBRANCH  14  15
ENDBRANCH   8  14
TORSDOF 3
ENDMDL
MODEL 9
REMARK VINA RESULT:      -6.5      3.278      5.293
REMARK  3 active torsions:
REMARK  status: ('A' for Active; 'I' for Inactive)
REMARK    1  A    between atoms: C11_16  and  O2_3 
REMARK    2  A    between atoms: C5_10  and  O2_3 
REMARK    3  A    between atoms: C11_16  and  C12_17 
ROOT
HETATM    1  I1  UNK     1      18.499  -0.915  32.997  1.00  0.00    -0.039 I 
HETATM    2  O1  UNK     1      18.588   1.332  30.771  1.00  0.00    -0.273 OA
HETATM    3  O3  UNK     1      18.732   1.468  28.493  1.00  0.00    -0.260 OA
HETATM    4  C1  UNK     1      18.460   3.387  32.085  1.00  0.00     0.005 A 
HETATM    5  C2  UNK     1      18.495   1.994  32.012  1.00  0.00     0.109 A 
HETATM    6  C3  UNK     1      18.523   4.159  30.837  1.00  0.00    -0.043 A 
HETATM    7  C4  UNK     1      18.365   3.968  33.356  1.00  0.00     0.017 A 
HETATM    8  C5  UNK     1      18.345   1.782  34.401  1.00  0.00     0.088 A 
HETATM    9  C6  UNK     1      18.439   1.186  33.149  1.00  0.00     0.074 A 
HETATM   10  C7  UNK     1      18.309   3.172  34.505  1.00  0.00     0.039 A 
HETATM   11  C8  UNK     1      18.611   3.504  29.672  1.00  0.00     0.090 A 
HETATM   12  C9  UNK     1      18.487   5.659  30.882  1.00  0.00     0.049 C 
HETATM   13  C10 UNK     1      18.650   2.033  29.577  1.00  0.00     0.288 A 
ENDROOT
BRANCH   8  14
HETATM   14  O2  UNK     1      18.289   1.053  35.552  1.00  0.00    -0.343 OA
BRANCH  14  15
HETATM   15  C11 UNK     1      17.554   1.614  36.638  1.00  0.00     0.253 C 
BRANCH  15  16
HETATM   16  C12 UNK     1      17.716   0.771  37.885  1.00  0.00     0.146 C 
HETATM   17  O4  UNK     1      17.891   1.266  38.998  1.00  0.00    -0.296 OA
HETATM   18  C13 UNK     1      17.652  -0.721  37.694  1.00  0.00     0.093 C 
ENDBRANCH  15  16
ENDBRANCH  14  15
ENDBRANCH   8  14
TORSDOF 3
ENDMDL
MODEL 10
REMARK VINA RESULT:      -6.5      5.204      7.130
REMARK  3 active torsions:
REMARK  status: ('A' for Active; 'I' for Inactive)
REMARK    1  A    between atoms: C11_16  and  O2_3 
REMARK    2  A    between atoms: C5_10  and  O2_3 
REMARK    3  A    between atoms: C11_16  and  C12_17 
ROOT
HETATM    1  I1  UNK     1      15.184   7.442  32.191  1.00  0.00    -0.039 I 
HETATM    2  O1  UNK     1      17.911   6.250  31.115  1.00  0.00    -0.273 OA
HETATM    3  O3  UNK     1      18.654   5.054  29.314  1.00  0.00    -0.260 OA
HETATM    4  C1  UNK     1      19.500   6.912  32.849  1.00  0.00     0.005 A 
HETATM    5  C2  UNK     1      18.202   6.891  32.336  1.00  0.00     0.109 A 
HETATM    6  C3  UNK     1      20.567   6.248  32.088  1.00  0.00    -0.043 A 
HETATM    7  C4  UNK     1      19.707   7.571  34.068  1.00  0.00     0.017 A 
HETATM    8  C5  UNK     1      17.357   8.147  34.204  1.00  0.00     0.088 A 
HETATM    9  C6  UNK     1      17.131   7.498  32.995  1.00  0.00     0.074 A 
HETATM   10  C7  UNK     1      18.643   8.183  34.740  1.00  0.00     0.039 A 
HETATM   11  C8  UNK     1      20.262   5.646  30.931  1.00  0.00     0.090 A 
HETATM   12  C9  UNK     1      21.973   6.252  32.612  1.00  0.00     0.049 C 
HETATM   13  C10 UNK     1      18.897   5.615  30.377  1.00  0.00     0.288 A 
ENDROOT
BRANCH   8  14
HETATM   14  O2  UNK     1      16.357   8.759  34.900  1.00  0.00    -0.343 OA
BRANCH  14  15
HETATM   15  C11 UNK     1      16.092  10.125  34.587  1.00  0.00     0.253 C 
BRANCH  15  16
HETATM   16  C12 UNK     1      14.772  10.563  35.186  1.00  0.00     0.146 C 
HETATM   17  O4  UNK     1      14.571  10.579  36.399  1.00  0.00    -0.296 OA
HETATM   18  C13 UNK     1      13.706  10.985  34.210  1.00  0.00     0.093 C 
ENDBRANCH  15  16
ENDBRANCH  14  15
ENDBRANCH   8  14
TORSDOF 3
ENDMDL
