MODEL 1
REMARK VINA RESULT:      -7.2      0.000      0.000
REMARK  4 active torsions:
REMARK  status: ('A' for Active; 'I' for Inactive)
REMARK    1  A    between atoms: C7_11  and  O2_2 
REMARK    2  A    between atoms: C12_16  and  O3_3 
REMARK    3  A    between atoms: C1_5  and  C2_6 
REMARK    4  A    between atoms: C2_6  and  C4_8 
ROOT
HETATM    1  O1  UNK     1      18.832  -9.468  38.337  1.00  0.00    -0.275 OA
HETATM    2  O4  UNK     1      19.129 -11.547  39.238  1.00  0.00    -0.260 OA
HETATM    3  C1  UNK     1      20.706 -10.174  36.339  1.00  0.00    -0.036 A 
HETATM    4  C3  UNK     1      20.079  -8.845  36.331  1.00  0.00     0.038 A 
HETATM    5  C5  UNK     1      19.160  -8.534  37.333  1.00  0.00     0.095 A 
HETATM    6  C6  UNK     1      20.377 -11.041  37.305  1.00  0.00     0.090 A 
HETATM    7  C7  UNK     1      20.350  -7.862  35.368  1.00  0.00     0.082 A 
HETATM    8  C8  UNK     1      18.518  -7.295  37.398  1.00  0.00     0.075 A 
HETATM    9  C10 UNK     1      19.715  -6.617  35.421  1.00  0.00     0.074 A 
HETATM   10  C11 UNK     1      19.408 -10.727  38.370  1.00  0.00     0.288 A 
HETATM   11  C12 UNK     1      18.800  -6.334  36.434  1.00  0.00     0.071 A 
ENDROOT
BRANCH   3  12
HETATM   12  C2  UNK     1      21.707 -10.594  35.299  1.00  0.00     0.039 C 
BRANCH  12  13
HETATM   13  C4  UNK     1      23.121 -10.622  35.864  1.00  0.00     0.000 C 
HETATM   14  C9  UNK     1      23.746 -11.999  35.703  1.00  0.00     0.005 C 
ENDBRANCH  12  13
ENDBRANCH   3  12
BRANCH   7  15
HETATM   15  O2  UNK     1      21.227  -8.043  34.340  1.00  0.00    -0.360 OA
HETATM   16  H11 UNK     1      22.049  -8.444  34.671  1.00  0.00     0.217 HD
ENDBRANCH   7  15
BRANCH  11  17
HETATM   17  O3  UNK     1      18.186  -5.120  36.479  1.00  0.00    -0.361 OA
HETATM   18  H12 UNK     1      18.785  -4.449  36.109  1.00  0.00     0.217 HD
ENDBRANCH  11  17
TORSDOF 4
ENDMDL
MODEL 2
REMARK VINA RESULT:      -6.8     16.599     17.585
REMARK  4 active torsions:
REMARK  status: ('A' for Active; 'I' for Inactive)
REMARK    1  A    between atoms: C7_11  and  O2_2 
REMARK    2  A    between atoms: C12_16  and  O3_3 
REMARK    3  A    between atoms: C1_5  and  C2_6 
REMARK    4  A    between atoms: C2_6  and  C4_8 
ROOT
HETATM    1  O1  UNK     1      17.493   6.397  31.166  1.00  0.00    -0.275 OA
HETATM    2  O4  UNK     1      19.627   5.983  30.461  1.00  0.00    -0.260 OA
HETATM    3  C1  UNK     1      18.586   7.357  33.593  1.00  0.00    -0.036 A 
HETATM    4  C3  UNK     1      17.131   7.351  33.386  1.00  0.00     0.038 A 
HETATM    5  C5  UNK     1      16.630   6.869  32.176  1.00  0.00     0.095 A 
HETATM    6  C6  UNK     1      19.382   6.902  32.616  1.00  0.00     0.090 A 
HETATM    7  C7  UNK     1      16.207   7.804  34.338  1.00  0.00     0.082 A 
HETATM    8  C8  UNK     1      15.262   6.830  31.898  1.00  0.00     0.075 A 
HETATM    9  C10 UNK     1      14.834   7.770  34.074  1.00  0.00     0.074 A 
HETATM   10  C11 UNK     1      18.868   6.391  31.333  1.00  0.00     0.288 A 
HETATM   11  C12 UNK     1      14.362   7.284  32.856  1.00  0.00     0.071 A 
ENDROOT
BRANCH   3  12
HETATM   12  C2  UNK     1      19.212   7.857  34.864  1.00  0.00     0.039 C 
BRANCH  12  13
HETATM   13  C4  UNK     1      20.135   9.041  34.604  1.00  0.00     0.000 C 
HETATM   14  C9  UNK     1      19.339  10.279  34.220  1.00  0.00     0.005 C 
ENDBRANCH  12  13
ENDBRANCH   3  12
BRANCH   7  15
HETATM   15  O2  UNK     1      16.569   8.296  35.557  1.00  0.00    -0.360 OA
HETATM   16  H11 UNK     1      16.810   9.235  35.479  1.00  0.00     0.217 HD
ENDBRANCH   7  15
BRANCH  11  17
HETATM   17  O3  UNK     1      13.024   7.253  32.606  1.00  0.00    -0.361 OA
HETATM   18  H12 UNK     1      12.664   8.151  32.704  1.00  0.00     0.217 HD
ENDBRANCH  11  17
TORSDOF 4
ENDMDL
MODEL 3
REMARK VINA RESULT:      -6.8      9.301     12.129
REMARK  4 active torsions:
REMARK  status: ('A' for Active; 'I' for Inactive)
REMARK    1  A    between atoms: C7_11  and  O2_2 
REMARK    2  A    between atoms: C12_16  and  O3_3 
REMARK    3  A    between atoms: C1_5  and  C2_6 
REMARK    4  A    between atoms: C2_6  and  C4_8 
ROOT
HETATM    1  O1  UNK     1      18.861  -0.095  33.354  1.00  0.00    -0.275 OA
HETATM    2  O4  UNK     1      17.927   1.340  34.868  1.00  0.00    -0.260 OA
HETATM    3  C1  UNK     1      18.662   1.966  31.426  1.00  0.00    -0.036 A 
HETATM    4  C3  UNK     1      19.230   0.661  31.060  1.00  0.00     0.038 A 
HETATM    5  C5  UNK     1      19.310  -0.330  32.039  1.00  0.00     0.095 A 
HETATM    6  C6  UNK     1      18.242   2.162  32.683  1.00  0.00     0.090 A 
HETATM    7  C7  UNK     1      19.700   0.349  29.777  1.00  0.00     0.082 A 
HETATM    8  C8  UNK     1      19.837  -1.597  31.776  1.00  0.00     0.075 A 
HETATM    9  C10 UNK     1      20.229  -0.916  29.499  1.00  0.00     0.074 A 
HETATM   10  C11 UNK     1      18.321   1.125  33.727  1.00  0.00     0.288 A 
HETATM   11  C12 UNK     1      20.298  -1.887  30.496  1.00  0.00     0.071 A 
ENDROOT
BRANCH   3  12
HETATM   12  C2  UNK     1      18.536   3.091  30.437  1.00  0.00     0.039 C 
BRANCH  12  13
HETATM   13  C4  UNK     1      18.710   4.447  31.108  1.00  0.00     0.000 C 
HETATM   14  C9  UNK     1      19.490   5.401  30.217  1.00  0.00     0.005 C 
ENDBRANCH  12  13
ENDBRANCH   3  12
BRANCH   7  15
HETATM   15  O2  UNK     1      19.676   1.229  28.736  1.00  0.00    -0.360 OA
HETATM   16  H11 UNK     1      18.995   0.965  28.094  1.00  0.00     0.217 HD
ENDBRANCH   7  15
BRANCH  11  17
HETATM   17  O3  UNK     1      20.814  -3.116  30.218  1.00  0.00    -0.361 OA
HETATM   18  H12 UNK     1      21.732  -3.152  30.539  1.00  0.00     0.217 HD
ENDBRANCH  11  17
TORSDOF 4
ENDMDL
MODEL 4
REMARK VINA RESULT:      -6.6      3.052      4.516
REMARK  4 active torsions:
REMARK  status: ('A' for Active; 'I' for Inactive)
REMARK    1  A    between atoms: C7_11  and  O2_2 
REMARK    2  A    between atoms: C12_16  and  O3_3 
REMARK    3  A    between atoms: C1_5  and  C2_6 
REMARK    4  A    between atoms: C2_6  and  C4_8 
ROOT
HETATM    1  O1  UNK     1      19.827  -5.896  37.425  1.00  0.00    -0.275 OA
HETATM    2  O4  UNK     1      17.710  -6.194  36.618  1.00  0.00    -0.260 OA
HETATM    3  C1  UNK     1      19.660  -8.489  38.543  1.00  0.00    -0.036 A 
HETATM    4  C3  UNK     1      20.877  -7.685  38.716  1.00  0.00     0.038 A 
HETATM    5  C5  UNK     1      20.921  -6.410  38.149  1.00  0.00     0.095 A 
HETATM    6  C6  UNK     1      18.635  -7.975  37.850  1.00  0.00     0.090 A 
HETATM    7  C7  UNK     1      22.007  -8.124  39.419  1.00  0.00     0.082 A 
HETATM    8  C8  UNK     1      22.040  -5.582  38.265  1.00  0.00     0.075 A 
HETATM    9  C10 UNK     1      23.134  -7.304  39.544  1.00  0.00     0.074 A 
HETATM   10  C11 UNK     1      18.667  -6.632  37.247  1.00  0.00     0.288 A 
HETATM   11  C12 UNK     1      23.151  -6.035  38.967  1.00  0.00     0.071 A 
ENDROOT
BRANCH   3  12
HETATM   12  C2  UNK     1      19.525  -9.871  39.119  1.00  0.00     0.039 C 
BRANCH  12  13
HETATM   13  C4  UNK     1      19.498 -10.931  38.025  1.00  0.00     0.000 C 
HETATM   14  C9  UNK     1      20.796 -10.931  37.233  1.00  0.00     0.005 C 
ENDBRANCH  12  13
ENDBRANCH   3  12
BRANCH   7  15
HETATM   15  O2  UNK     1      22.088  -9.346  40.018  1.00  0.00    -0.360 OA
HETATM   16  H11 UNK     1      21.804 -10.040  39.399  1.00  0.00     0.217 HD
ENDBRANCH   7  15
BRANCH  11  17
HETATM   17  O3  UNK     1      24.251  -5.243  39.093  1.00  0.00    -0.361 OA
HETATM   18  H12 UNK     1      24.330  -4.958  40.019  1.00  0.00     0.217 HD
ENDBRANCH  11  17
TORSDOF 4
ENDMDL
MODEL 5
REMARK VINA RESULT:      -6.6     11.946     14.253
REMARK  4 active torsions:
REMARK  status: ('A' for Active; 'I' for Inactive)
REMARK    1  A    between atoms: C7_11  and  O2_2 
REMARK    2  A    between atoms: C12_16  and  O3_3 
REMARK    3  A    between atoms: C1_5  and  C2_6 
REMARK    4  A    between atoms: C2_6  and  C4_8 
ROOT
HETATM    1  O1  UNK     1      18.029   3.413  33.644  1.00  0.00    -0.275 OA
HETATM    2  O4  UNK     1      17.875   1.139  33.821  1.00  0.00    -0.260 OA
HETATM    3  C1  UNK     1      18.475   3.068  30.872  1.00  0.00    -0.036 A 
HETATM    4  C3  UNK     1      18.451   4.416  31.456  1.00  0.00     0.038 A 
HETATM    5  C5  UNK     1      18.228   4.545  32.828  1.00  0.00     0.095 A 
HETATM    6  C6  UNK     1      18.284   2.010  31.671  1.00  0.00     0.090 A 
HETATM    7  C7  UNK     1      18.638   5.590  30.714  1.00  0.00     0.082 A 
HETATM    8  C8  UNK     1      18.188   5.788  33.463  1.00  0.00     0.075 A 
HETATM    9  C10 UNK     1      18.602   6.842  31.337  1.00  0.00     0.074 A 
HETATM   10  C11 UNK     1      18.048   2.130  33.120  1.00  0.00     0.288 A 
HETATM   11  C12 UNK     1      18.377   6.941  32.709  1.00  0.00     0.071 A 
ENDROOT
BRANCH   3  12
HETATM   12  C2  UNK     1      18.708   2.835  29.405  1.00  0.00     0.039 C 
BRANCH  12  13
HETATM   13  C4  UNK     1      17.963   1.602  28.910  1.00  0.00     0.000 C 
HETATM   14  C9  UNK     1      18.934   0.498  28.521  1.00  0.00     0.005 C 
ENDBRANCH  12  13
ENDBRANCH   3  12
BRANCH   7  15
HETATM   15  O2  UNK     1      18.864   5.598  29.369  1.00  0.00    -0.360 OA
HETATM   16  H11 UNK     1      19.531   6.270  29.148  1.00  0.00     0.217 HD
ENDBRANCH   7  15
BRANCH  11  17
HETATM   17  O3  UNK     1      18.343   8.163  33.309  1.00  0.00    -0.361 OA
HETATM   18  H12 UNK     1      19.241   8.535  33.318  1.00  0.00     0.217 HD
ENDBRANCH  11  17
TORSDOF 4
ENDMDL
MODEL 6
REMARK VINA RESULT:      -6.5      9.475     11.677
REMARK  4 active torsions:
REMARK  status: ('A' for Active; 'I' for Inactive)
REMARK    1  A    between atoms: C7_11  and  O2_2 
REMARK    2  A    between atoms: C12_16  and  O3_3 
REMARK    3  A    between atoms: C1_5  and  C2_6 
REMARK    4  A    between atoms: C2_6  and  C4_8 
ROOT
HETATM    1  O1  UNK     1      31.129  -4.848  38.907  1.00  0.00    -0.275 OA
HETATM    2  O4  UNK     1      29.440  -3.578  39.777  1.00  0.00    -0.260 OA
HETATM    3  C1  UNK     1      29.245  -6.925  38.538  1.00  0.00    -0.036 A 
HETATM    4  C3  UNK     1      30.648  -7.118  38.145  1.00  0.00     0.038 A 
HETATM    5  C5  UNK     1      31.547  -6.070  38.343  1.00  0.00     0.095 A 
HETATM    6  C6  UNK     1      28.876  -5.753  39.072  1.00  0.00     0.090 A 
HETATM    7  C7  UNK     1      31.142  -8.301  37.577  1.00  0.00     0.082 A 
HETATM    8  C8  UNK     1      32.896  -6.170  37.997  1.00  0.00     0.075 A 
HETATM    9  C10 UNK     1      32.491  -8.416  37.227  1.00  0.00     0.074 A 
HETATM   10  C11 UNK     1      29.814  -4.638  39.287  1.00  0.00     0.288 A 
HETATM   11  C12 UNK     1      33.367  -7.352  37.436  1.00  0.00     0.071 A 
ENDROOT
BRANCH   3  12
HETATM   12  C2  UNK     1      28.209  -8.000  38.361  1.00  0.00     0.039 C 
BRANCH  12  13
HETATM   13  C4  UNK     1      27.618  -8.431  39.697  1.00  0.00     0.000 C 
HETATM   14  C9  UNK     1      27.780  -9.928  39.907  1.00  0.00     0.005 C 
ENDBRANCH  12  13
ENDBRANCH   3  12
BRANCH   7  15
HETATM   15  O2  UNK     1      30.366  -9.396  37.334  1.00  0.00    -0.360 OA
HETATM   16  H11 UNK     1      30.615 -10.120  37.934  1.00  0.00     0.217 HD
ENDBRANCH   7  15
BRANCH  11  17
HETATM   17  O3  UNK     1      34.679  -7.471  37.092  1.00  0.00    -0.361 OA
HETATM   18  H12 UNK     1      34.737  -7.754  36.163  1.00  0.00     0.217 HD
ENDBRANCH  11  17
TORSDOF 4
ENDMDL
MODEL 7
REMARK VINA RESULT:      -6.5      8.875     12.304
REMARK  4 active torsions:
REMARK  status: ('A' for Active; 'I' for Inactive)
REMARK    1  A    between atoms: C7_11  and  O2_2 
REMARK    2  A    between atoms: C12_16  and  O3_3 
REMARK    3  A    between atoms: C1_5  and  C2_6 
REMARK    4  A    between atoms: C2_6  and  C4_8 
ROOT
HETATM    1  O1  UNK     1      19.574  -0.690  30.564  1.00  0.00    -0.275 OA
HETATM    2  O4  UNK     1      20.049  -0.154  28.394  1.00  0.00    -0.260 OA
HETATM    3  C1  UNK     1      18.786   1.999  30.952  1.00  0.00    -0.036 A 
HETATM    4  C3  UNK     1      18.716   1.039  32.062  1.00  0.00     0.038 A 
HETATM    5  C5  UNK     1      19.114  -0.278  31.831  1.00  0.00     0.095 A 
HETATM    6  C6  UNK     1      19.228   1.581  29.758  1.00  0.00     0.090 A 
HETATM    7  C7  UNK     1      18.269   1.368  33.349  1.00  0.00     0.082 A 
HETATM    8  C8  UNK     1      19.078  -1.254  32.830  1.00  0.00     0.075 A 
HETATM    9  C10 UNK     1      18.228   0.401  34.360  1.00  0.00     0.074 A 
HETATM   10  C11 UNK     1      19.651   0.194  29.500  1.00  0.00     0.288 A 
HETATM   11  C12 UNK     1      18.632  -0.908  34.101  1.00  0.00     0.071 A 
ENDROOT
BRANCH   3  12
HETATM   12  C2  UNK     1      18.378   3.437  31.110  1.00  0.00     0.039 C 
BRANCH  12  13
HETATM   13  C4  UNK     1      19.011   4.318  30.041  1.00  0.00     0.000 C 
HETATM   14  C9  UNK     1      19.767   5.479  30.668  1.00  0.00     0.005 C 
ENDBRANCH  12  13
ENDBRANCH   3  12
BRANCH   7  15
HETATM   15  O2  UNK     1      17.854   2.618  33.701  1.00  0.00    -0.360 OA
HETATM   16  H11 UNK     1      18.530   3.273  33.457  1.00  0.00     0.217 HD
ENDBRANCH   7  15
BRANCH  11  17
HETATM   17  O3  UNK     1      18.589  -1.843  35.089  1.00  0.00    -0.361 OA
HETATM   18  H12 UNK     1      17.660  -2.029  35.308  1.00  0.00     0.217 HD
ENDBRANCH  11  17
TORSDOF 4
ENDMDL
MODEL 8
REMARK VINA RESULT:      -6.5     15.628     17.625
REMARK  4 active torsions:
REMARK  status: ('A' for Active; 'I' for Inactive)
REMARK    1  A    between atoms: C7_11  and  O2_2 
REMARK    2  A    between atoms: C12_16  and  O3_3 
REMARK    3  A    between atoms: C1_5  and  C2_6 
REMARK    4  A    between atoms: C2_6  and  C4_8 
ROOT
HETATM    1  O1  UNK     1      18.175   9.675  34.052  1.00  0.00    -0.275 OA
HETATM    2  O4  UNK     1      20.347  10.037  34.666  1.00  0.00    -0.260 OA
HETATM    3  C1  UNK     1      18.958   7.107  33.161  1.00  0.00    -0.036 A 
HETATM    4  C3  UNK     1      17.559   7.539  33.040  1.00  0.00     0.038 A 
HETATM    5  C5  UNK     1      17.212   8.813  33.491  1.00  0.00     0.095 A 
HETATM    6  C6  UNK     1      19.853   7.947  33.698  1.00  0.00     0.090 A 
HETATM    7  C7  UNK     1      16.542   6.741  32.496  1.00  0.00     0.082 A 
HETATM    8  C8  UNK     1      15.905   9.300  33.414  1.00  0.00     0.075 A 
HETATM    9  C10 UNK     1      15.229   7.217  32.412  1.00  0.00     0.074 A 
HETATM   10  C11 UNK     1      19.501   9.295  34.178  1.00  0.00     0.288 A 
HETATM   11  C12 UNK     1      14.911   8.495  32.870  1.00  0.00     0.071 A 
ENDROOT
BRANCH   3  12
HETATM   12  C2  UNK     1      19.421   5.752  32.702  1.00  0.00     0.039 C 
BRANCH  12  13
HETATM   13  C4  UNK     1      20.414   5.862  31.553  1.00  0.00     0.000 C 
HETATM   14  C9  UNK     1      19.695   5.915  30.214  1.00  0.00     0.005 C 
ENDBRANCH  12  13
ENDBRANCH   3  12
BRANCH   7  15
HETATM   15  O2  UNK     1      16.753   5.481  32.021  1.00  0.00    -0.360 OA
HETATM   16  H11 UNK     1      17.170   4.932  32.707  1.00  0.00     0.217 HD
ENDBRANCH   7  15
BRANCH  11  17
HETATM   17  O3  UNK     1      13.631   8.951  32.785  1.00  0.00    -0.361 OA
HETATM   18  H12 UNK     1      13.308   8.816  31.878  1.00  0.00     0.217 HD
ENDBRANCH  11  17
TORSDOF 4
ENDMDL
MODEL 9
REMARK VINA RESULT:      -6.4      1.755      5.272
REMARK  4 active torsions:
REMARK  status: ('A' for Active; 'I' for Inactive)
REMARK    1  A    between atoms: C7_11  and  O2_2 
REMARK    2  A    between atoms: C12_16  and  O3_3 
REMARK    3  A    between atoms: C1_5  and  C2_6 
REMARK    4  A    between atoms: C2_6  and  C4_8 
ROOT
HETATM    1  O1  UNK     1      20.846  -8.720  34.598  1.00  0.00    -0.275 OA
HETATM    2  O4  UNK     1      21.210  -7.384  32.780  1.00  0.00    -0.260 OA
HETATM    3  C1  UNK     1      19.692  -6.482  35.887  1.00  0.00    -0.036 A 
HETATM    4  C3  UNK     1      19.774  -7.775  36.580  1.00  0.00     0.038 A 
HETATM    5  C5  UNK     1      20.350  -8.855  35.911  1.00  0.00     0.095 A 
HETATM    6  C6  UNK     1      20.172  -6.381  34.640  1.00  0.00     0.090 A 
HETATM    7  C7  UNK     1      19.303  -7.992  37.882  1.00  0.00     0.082 A 
HETATM    8  C8  UNK     1      20.466 -10.118  36.496  1.00  0.00     0.075 A 
HETATM    9  C10 UNK     1      19.413  -9.252  38.481  1.00  0.00     0.074 A 
HETATM   10  C11 UNK     1      20.783  -7.513  33.921  1.00  0.00     0.288 A 
HETATM   11  C12 UNK     1      19.994 -10.313  37.789  1.00  0.00     0.071 A 
ENDROOT
BRANCH   3  12
HETATM   12  C2  UNK     1      19.087  -5.265  36.531  1.00  0.00     0.039 C 
BRANCH  12  13
HETATM   13  C4  UNK     1      20.133  -4.185  36.776  1.00  0.00     0.000 C 
HETATM   14  C9  UNK     1      21.200  -4.668  37.745  1.00  0.00     0.005 C 
ENDBRANCH  12  13
ENDBRANCH   3  12
BRANCH   7  15
HETATM   15  O2  UNK     1      18.721  -7.019  38.640  1.00  0.00    -0.360 OA
HETATM   16  H11 UNK     1      18.034  -6.563  38.125  1.00  0.00     0.217 HD
ENDBRANCH   7  15
BRANCH  11  17
HETATM   17  O3  UNK     1      20.098 -11.536  38.378  1.00  0.00    -0.361 OA
HETATM   18  H12 UNK     1      21.038 -11.741  38.516  1.00  0.00     0.217 HD
ENDBRANCH  11  17
TORSDOF 4
ENDMDL
MODEL 10
REMARK VINA RESULT:      -6.4      6.404      8.814
REMARK  4 active torsions:
REMARK  status: ('A' for Active; 'I' for Inactive)
REMARK    1  A    between atoms: C7_11  and  O2_2 
REMARK    2  A    between atoms: C12_16  and  O3_3 
REMARK    3  A    between atoms: C1_5  and  C2_6 
REMARK    4  A    between atoms: C2_6  and  C4_8 
ROOT
HETATM    1  O1  UNK     1      20.686  -3.191  35.434  1.00  0.00    -0.275 OA
HETATM    2  O4  UNK     1      20.767  -3.840  37.624  1.00  0.00    -0.260 OA
HETATM    3  C1  UNK     1      18.492  -1.537  36.108  1.00  0.00    -0.036 A 
HETATM    4  C3  UNK     1      18.988  -1.584  34.726  1.00  0.00     0.038 A 
HETATM    5  C5  UNK     1      20.072  -2.411  34.433  1.00  0.00     0.095 A 
HETATM    6  C6  UNK     1      19.094  -2.289  37.040  1.00  0.00     0.090 A 
HETATM    7  C7  UNK     1      18.435  -0.839  33.675  1.00  0.00     0.082 A 
HETATM    8  C8  UNK     1      20.606  -2.513  33.147  1.00  0.00     0.075 A 
HETATM    9  C10 UNK     1      18.958  -0.932  32.381  1.00  0.00     0.074 A 
HETATM   10  C11 UNK     1      20.239  -3.168  36.746  1.00  0.00     0.288 A 
HETATM   11  C12 UNK     1      20.043  -1.767  32.117  1.00  0.00     0.071 A 
ENDROOT
BRANCH   3  12
HETATM   12  C2  UNK     1      17.330  -0.674  36.514  1.00  0.00     0.039 C 
BRANCH  12  13
HETATM   13  C4  UNK     1      17.720   0.311  37.608  1.00  0.00     0.000 C 
HETATM   14  C9  UNK     1      17.963   1.697  37.033  1.00  0.00     0.005 C 
ENDBRANCH  12  13
ENDBRANCH   3  12
BRANCH   7  15
HETATM   15  O2  UNK     1      17.374   0.004  33.831  1.00  0.00    -0.360 OA
HETATM   16  H11 UNK     1      16.596  -0.493  34.135  1.00  0.00     0.217 HD
ENDBRANCH   7  15
BRANCH  11  17
HETATM   17  O3  UNK     1      20.548  -1.852  30.856  1.00  0.00    -0.361 OA
HETATM   18  H12 UNK     1      21.508  -1.992  30.909  1.00  0.00     0.217 HD
ENDBRANCH  11  17
TORSDOF 4
ENDMDL
