MODEL 1
REMARK VINA RESULT:      -7.1      0.000      0.000
REMARK  3 active torsions:
REMARK  status: ('A' for Active; 'I' for Inactive)
REMARK    1  A    between atoms: C10_15  and  O2_3 
REMARK    2  A    between atoms: C11_16  and  O2_3 
REMARK    3  A    between atoms: C10_15  and  C4_9 
ROOT
HETATM    1 Cl1  UNK     1      18.819   2.117  21.063  1.00  0.00    -0.084 Cl
HETATM    2  O1  UNK     1      19.251   0.944  15.298  1.00  0.00    -0.274 OA
HETATM    3  O3  UNK     1      19.239  -0.551  13.572  1.00  0.00    -0.259 OA
HETATM    4  C1  UNK     1      18.925   0.154  17.575  1.00  0.00     0.001 A 
HETATM    5  C2  UNK     1      19.144   1.197  16.680  1.00  0.00     0.089 A 
HETATM    6  C3  UNK     1      18.808  -1.201  17.060  1.00  0.00     0.038 A 
HETATM    7  C4  UNK     1      18.910  -1.435  15.746  1.00  0.00     0.115 A 
HETATM    8  C5  UNK     1      18.824   0.444  18.938  1.00  0.00     0.038 A 
HETATM    9  C6  UNK     1      19.264   2.517  17.109  1.00  0.00     0.040 A 
HETATM   10  C7  UNK     1      19.144  -0.341  14.776  1.00  0.00     0.304 A 
HETATM   11  C8  UNK     1      18.943   1.764  19.382  1.00  0.00     0.035 A 
HETATM   12  C9  UNK     1      19.162   2.799  18.469  1.00  0.00     0.026 A 
ENDROOT
BRANCH   7  13
HETATM   13  C10 UNK     1      18.779  -2.835  15.324  1.00  0.00     0.299 C 
HETATM   14  O4  UNK     1      17.833  -3.258  14.683  1.00  0.00    -0.259 OA
BRANCH  13  15
HETATM   15  O2  UNK     1      19.863  -3.522  15.765  1.00  0.00    -0.318 OA
BRANCH  15  16
HETATM   16  C11 UNK     1      21.014  -3.457  14.916  1.00  0.00     0.174 C 
HETATM   17  C12 UNK     1      22.261  -3.560  15.767  1.00  0.00     0.034 C 
ENDBRANCH  15  16
ENDBRANCH  13  15
ENDBRANCH   7  13
TORSDOF 3
ENDMDL
MODEL 2
REMARK VINA RESULT:      -7.0     12.821     15.024
REMARK  3 active torsions:
REMARK  status: ('A' for Active; 'I' for Inactive)
REMARK    1  A    between atoms: C10_15  and  O2_3 
REMARK    2  A    between atoms: C11_16  and  O2_3 
REMARK    3  A    between atoms: C10_15  and  C4_9 
ROOT
HETATM    1 Cl1  UNK     1      21.218  -3.213  32.221  1.00  0.00    -0.084 Cl
HETATM    2  O1  UNK     1      18.989   0.875  28.599  1.00  0.00    -0.274 OA
HETATM    3  O3  UNK     1      18.112   2.956  28.258  1.00  0.00    -0.259 OA
HETATM    4  C1  UNK     1      19.640   0.199  30.843  1.00  0.00     0.001 A 
HETATM    5  C2  UNK     1      19.519  -0.083  29.486  1.00  0.00     0.089 A 
HETATM    6  C3  UNK     1      19.211   1.501  31.331  1.00  0.00     0.038 A 
HETATM    7  C4  UNK     1      18.710   2.408  30.484  1.00  0.00     0.115 A 
HETATM    8  C5  UNK     1      20.169  -0.777  31.692  1.00  0.00     0.038 A 
HETATM    9  C6  UNK     1      19.911  -1.310  28.955  1.00  0.00     0.040 A 
HETATM   10  C7  UNK     1      18.572   2.128  29.037  1.00  0.00     0.304 A 
HETATM   11  C8  UNK     1      20.567  -2.012  31.172  1.00  0.00     0.035 A 
HETATM   12  C9  UNK     1      20.438  -2.278  29.807  1.00  0.00     0.026 A 
ENDROOT
BRANCH   7  13
HETATM   13  C10 UNK     1      18.305   3.690  31.071  1.00  0.00     0.299 C 
HETATM   14  O4  UNK     1      17.445   3.797  31.929  1.00  0.00    -0.259 OA
BRANCH  13  15
HETATM   15  O2  UNK     1      19.040   4.678  30.500  1.00  0.00    -0.318 OA
BRANCH  15  16
HETATM   16  C11 UNK     1      18.927   5.961  31.124  1.00  0.00     0.174 C 
HETATM   17  C12 UNK     1      20.088   6.150  32.076  1.00  0.00     0.034 C 
ENDBRANCH  15  16
ENDBRANCH  13  15
ENDBRANCH   7  13
TORSDOF 3
ENDMDL
MODEL 3
REMARK VINA RESULT:      -6.9     15.156     17.097
REMARK  3 active torsions:
REMARK  status: ('A' for Active; 'I' for Inactive)
REMARK    1  A    between atoms: C10_15  and  O2_3 
REMARK    2  A    between atoms: C11_16  and  O2_3 
REMARK    3  A    between atoms: C10_15  and  C4_9 
ROOT
HETATM    1 Cl1  UNK     1      15.282   0.562  36.431  1.00  0.00    -0.084 Cl
HETATM    2  O1  UNK     1      20.186  -2.216  34.690  1.00  0.00    -0.274 OA
HETATM    3  O3  UNK     1      21.635  -2.832  33.036  1.00  0.00    -0.259 OA
HETATM    4  C1  UNK     1      18.228  -0.883  34.137  1.00  0.00     0.001 A 
HETATM    5  C2  UNK     1      19.010  -1.544  35.079  1.00  0.00     0.089 A 
HETATM    6  C3  UNK     1      18.645  -0.896  32.743  1.00  0.00     0.038 A 
HETATM    7  C4  UNK     1      19.764  -1.535  32.379  1.00  0.00     0.115 A 
HETATM    8  C5  UNK     1      17.069  -0.229  34.560  1.00  0.00     0.038 A 
HETATM    9  C6  UNK     1      18.666  -1.569  36.429  1.00  0.00     0.040 A 
HETATM   10  C7  UNK     1      20.610  -2.245  33.365  1.00  0.00     0.304 A 
HETATM   11  C8  UNK     1      16.712  -0.246  35.912  1.00  0.00     0.035 A 
HETATM   12  C9  UNK     1      17.509  -0.914  36.844  1.00  0.00     0.026 A 
ENDROOT
BRANCH   7  13
HETATM   13  C10 UNK     1      20.101  -1.492  30.951  1.00  0.00     0.299 C 
HETATM   14  O4  UNK     1      20.033  -2.460  30.215  1.00  0.00    -0.259 OA
BRANCH  13  15
HETATM   15  O2  UNK     1      20.481  -0.228  30.635  1.00  0.00    -0.318 OA
BRANCH  15  16
HETATM   16  C11 UNK     1      20.095   0.216  29.330  1.00  0.00     0.174 C 
HETATM   17  C12 UNK     1      18.989   1.240  29.466  1.00  0.00     0.034 C 
ENDBRANCH  15  16
ENDBRANCH  13  15
ENDBRANCH   7  13
TORSDOF 3
ENDMDL
MODEL 4
REMARK VINA RESULT:      -6.7     15.479     17.214
REMARK  3 active torsions:
REMARK  status: ('A' for Active; 'I' for Inactive)
REMARK    1  A    between atoms: C10_15  and  O2_3 
REMARK    2  A    between atoms: C11_16  and  O2_3 
REMARK    3  A    between atoms: C10_15  and  C4_9 
ROOT
HETATM    1 Cl1  UNK     1      18.015   8.596  33.206  1.00  0.00    -0.084 Cl
HETATM    2  O1  UNK     1      18.720   3.185  30.966  1.00  0.00    -0.274 OA
HETATM    3  O3  UNK     1      18.720   0.915  31.225  1.00  0.00    -0.259 OA
HETATM    4  C1  UNK     1      18.210   4.611  32.869  1.00  0.00     0.001 A 
HETATM    5  C2  UNK     1      18.545   4.465  31.526  1.00  0.00     0.089 A 
HETATM    6  C3  UNK     1      18.043   3.418  33.685  1.00  0.00     0.038 A 
HETATM    7  C4  UNK     1      18.209   2.204  33.147  1.00  0.00     0.115 A 
HETATM    8  C5  UNK     1      18.046   5.897  33.388  1.00  0.00     0.038 A 
HETATM    9  C6  UNK     1      18.719   5.567  30.691  1.00  0.00     0.040 A 
HETATM   10  C7  UNK     1      18.566   2.026  31.721  1.00  0.00     0.304 A 
HETATM   11  C8  UNK     1      18.218   7.011  32.561  1.00  0.00     0.035 A 
HETATM   12  C9  UNK     1      18.554   6.846  31.216  1.00  0.00     0.026 A 
ENDROOT
BRANCH   7  13
HETATM   13  C10 UNK     1      18.019   1.063  34.050  1.00  0.00     0.299 C 
HETATM   14  O4  UNK     1      18.938   0.468  34.586  1.00  0.00    -0.259 OA
BRANCH  13  15
HETATM   15  O2  UNK     1      16.689   0.817  34.162  1.00  0.00    -0.318 OA
BRANCH  15  16
HETATM   16  C11 UNK     1      16.324  -0.107  35.193  1.00  0.00     0.174 C 
HETATM   17  C12 UNK     1      15.946   0.668  36.437  1.00  0.00     0.034 C 
ENDBRANCH  15  16
ENDBRANCH  13  15
ENDBRANCH   7  13
TORSDOF 3
ENDMDL
MODEL 5
REMARK VINA RESULT:      -6.6     11.533     13.135
REMARK  3 active torsions:
REMARK  status: ('A' for Active; 'I' for Inactive)
REMARK    1  A    between atoms: C10_15  and  O2_3 
REMARK    2  A    between atoms: C11_16  and  O2_3 
REMARK    3  A    between atoms: C10_15  and  C4_9 
ROOT
HETATM    1 Cl1  UNK     1      17.896  10.686   9.253  1.00  0.00    -0.084 Cl
HETATM    2  O1  UNK     1      14.168   6.241  10.320  1.00  0.00    -0.274 OA
HETATM    3  O3  UNK     1      12.097   5.298  10.122  1.00  0.00    -0.259 OA
HETATM    4  C1  UNK     1      14.595   8.422   9.332  1.00  0.00     0.001 A 
HETATM    5  C2  UNK     1      15.038   7.316  10.050  1.00  0.00     0.089 A 
HETATM    6  C3  UNK     1      13.218   8.450   8.863  1.00  0.00     0.038 A 
HETATM    7  C4  UNK     1      12.396   7.425   9.120  1.00  0.00     0.115 A 
HETATM    8  C5  UNK     1      15.486   9.469   9.086  1.00  0.00     0.038 A 
HETATM    9  C6  UNK     1      16.344   7.227  10.527  1.00  0.00     0.040 A 
HETATM   10  C7  UNK     1      12.847   6.238   9.884  1.00  0.00     0.304 A 
HETATM   11  C8  UNK     1      16.800   9.393   9.559  1.00  0.00     0.035 A 
HETATM   12  C9  UNK     1      17.227   8.275  10.278  1.00  0.00     0.026 A 
ENDROOT
BRANCH   7  13
HETATM   13  C10 UNK     1      11.027   7.545   8.606  1.00  0.00     0.299 C 
HETATM   14  O4  UNK     1      10.041   7.595   9.321  1.00  0.00    -0.259 OA
BRANCH  13  15
HETATM   15  O2  UNK     1      11.077   7.589   7.251  1.00  0.00    -0.318 OA
BRANCH  15  16
HETATM   16  C11 UNK     1      11.060   6.314   6.599  1.00  0.00     0.174 C 
HETATM   17  C12 UNK     1       9.679   6.073   6.028  1.00  0.00     0.034 C 
ENDBRANCH  15  16
ENDBRANCH  13  15
ENDBRANCH   7  13
TORSDOF 3
ENDMDL
MODEL 6
REMARK VINA RESULT:      -6.6     14.289     16.484
REMARK  3 active torsions:
REMARK  status: ('A' for Active; 'I' for Inactive)
REMARK    1  A    between atoms: C10_15  and  O2_3 
REMARK    2  A    between atoms: C11_16  and  O2_3 
REMARK    3  A    between atoms: C10_15  and  C4_9 
ROOT
HETATM    1 Cl1  UNK     1      21.241  -3.516  29.845  1.00  0.00    -0.084 Cl
HETATM    2  O1  UNK     1      18.953   1.847  30.740  1.00  0.00    -0.274 OA
HETATM    3  O3  UNK     1      17.894   3.350  32.095  1.00  0.00    -0.259 OA
HETATM    4  C1  UNK     1      19.447  -0.383  31.576  1.00  0.00     0.001 A 
HETATM    5  C2  UNK     1      19.493   0.558  30.553  1.00  0.00     0.089 A 
HETATM    6  C3  UNK     1      18.833  -0.016  32.843  1.00  0.00     0.038 A 
HETATM    7  C4  UNK     1      18.323   1.209  33.016  1.00  0.00     0.115 A 
HETATM    8  C5  UNK     1      19.992  -1.650  31.353  1.00  0.00     0.038 A 
HETATM    9  C6  UNK     1      20.067   0.270  29.317  1.00  0.00     0.040 A 
HETATM   10  C7  UNK     1      18.361   2.227  31.940  1.00  0.00     0.304 A 
HETATM   11  C8  UNK     1      20.571  -1.953  30.117  1.00  0.00     0.035 A 
HETATM   12  C9  UNK     1      20.608  -0.995  29.101  1.00  0.00     0.026 A 
ENDROOT
BRANCH   7  13
HETATM   13  C10 UNK     1      17.726   1.485  34.328  1.00  0.00     0.299 C 
HETATM   14  O4  UNK     1      18.342   1.973  35.259  1.00  0.00    -0.259 OA
BRANCH  13  15
HETATM   15  O2  UNK     1      16.422   1.110  34.295  1.00  0.00    -0.318 OA
BRANCH  15  16
HETATM   16  C11 UNK     1      15.992   0.304  35.398  1.00  0.00     0.174 C 
HETATM   17  C12 UNK     1      16.171  -1.156  35.040  1.00  0.00     0.034 C 
ENDBRANCH  15  16
ENDBRANCH  13  15
ENDBRANCH   7  13
TORSDOF 3
ENDMDL
MODEL 7
REMARK VINA RESULT:      -6.6     15.654     17.784
REMARK  3 active torsions:
REMARK  status: ('A' for Active; 'I' for Inactive)
REMARK    1  A    between atoms: C10_15  and  O2_3 
REMARK    2  A    between atoms: C11_16  and  O2_3 
REMARK    3  A    between atoms: C10_15  and  C4_9 
ROOT
HETATM    1 Cl1  UNK     1      18.157  -0.558  37.948  1.00  0.00    -0.084 Cl
HETATM    2  O1  UNK     1      18.444   1.061  32.284  1.00  0.00    -0.274 OA
HETATM    3  O3  UNK     1      18.417   2.690  30.683  1.00  0.00    -0.259 OA
HETATM    4  C1  UNK     1      18.208   1.674  34.625  1.00  0.00     0.001 A 
HETATM    5  C2  UNK     1      18.373   0.702  33.644  1.00  0.00     0.089 A 
HETATM    6  C3  UNK     1      18.111   3.069  34.223  1.00  0.00     0.038 A 
HETATM    7  C4  UNK     1      18.180   3.405  32.929  1.00  0.00     0.115 A 
HETATM    8  C5  UNK     1      18.141   1.279  35.963  1.00  0.00     0.038 A 
HETATM    9  C6  UNK     1      18.473  -0.651  33.963  1.00  0.00     0.040 A 
HETATM   10  C7  UNK     1      18.354   2.386  31.869  1.00  0.00     0.304 A 
HETATM   11  C8  UNK     1      18.240  -0.075  36.297  1.00  0.00     0.035 A 
HETATM   12  C9  UNK     1      18.406  -1.038  35.299  1.00  0.00     0.026 A 
ENDROOT
BRANCH   7  13
HETATM   13  C10 UNK     1      18.072   4.836  32.623  1.00  0.00     0.299 C 
HETATM   14  O4  UNK     1      17.017   5.392  32.369  1.00  0.00    -0.259 OA
BRANCH  13  15
HETATM   15  O2  UNK     1      19.312   5.384  32.678  1.00  0.00    -0.318 OA
BRANCH  15  16
HETATM   16  C11 UNK     1      19.569   6.409  31.713  1.00  0.00     0.174 C 
HETATM   17  C12 UNK     1      20.106   5.772  30.449  1.00  0.00     0.034 C 
ENDBRANCH  15  16
ENDBRANCH  13  15
ENDBRANCH   7  13
TORSDOF 3
ENDMDL
MODEL 8
REMARK VINA RESULT:      -6.6     14.874     17.055
REMARK  3 active torsions:
REMARK  status: ('A' for Active; 'I' for Inactive)
REMARK    1  A    between atoms: C10_15  and  O2_3 
REMARK    2  A    between atoms: C11_16  and  O2_3 
REMARK    3  A    between atoms: C10_15  and  C4_9 
ROOT
HETATM    1 Cl1  UNK     1      18.253  -1.956  36.311  1.00  0.00    -0.084 Cl
HETATM    2  O1  UNK     1      18.272   3.624  34.398  1.00  0.00    -0.274 OA
HETATM    3  O3  UNK     1      18.295   5.133  32.683  1.00  0.00    -0.259 OA
HETATM    4  C1  UNK     1      18.284   1.243  33.903  1.00  0.00     0.001 A 
HETATM    5  C2  UNK     1      18.267   2.282  34.828  1.00  0.00     0.089 A 
HETATM    6  C3  UNK     1      18.305   1.564  32.484  1.00  0.00     0.038 A 
HETATM    7  C4  UNK     1      18.308   2.840  32.082  1.00  0.00     0.115 A 
HETATM    8  C5  UNK     1      18.279  -0.075  34.368  1.00  0.00     0.038 A 
HETATM    9  C6  UNK     1      18.246   2.042  36.200  1.00  0.00     0.040 A 
HETATM   10  C7  UNK     1      18.292   3.962  33.049  1.00  0.00     0.304 A 
HETATM   11  C8  UNK     1      18.258  -0.330  35.742  1.00  0.00     0.035 A 
HETATM   12  C9  UNK     1      18.241   0.726  36.656  1.00  0.00     0.026 A 
ENDROOT
BRANCH   7  13
HETATM   13  C10 UNK     1      18.331   3.064  30.631  1.00  0.00     0.299 C 
HETATM   14  O4  UNK     1      18.990   3.937  30.095  1.00  0.00    -0.259 OA
BRANCH  13  15
HETATM   15  O2  UNK     1      17.517   2.152  30.041  1.00  0.00    -0.318 OA
BRANCH  15  16
HETATM   16  C11 UNK     1      17.882   1.781  28.708  1.00  0.00     0.174 C 
HETATM   17  C12 UNK     1      18.959   0.719  28.770  1.00  0.00     0.034 C 
ENDBRANCH  15  16
ENDBRANCH  13  15
ENDBRANCH   7  13
TORSDOF 3
ENDMDL
MODEL 9
REMARK VINA RESULT:      -6.5     14.189     16.275
REMARK  3 active torsions:
REMARK  status: ('A' for Active; 'I' for Inactive)
REMARK    1  A    between atoms: C10_15  and  O2_3 
REMARK    2  A    between atoms: C11_16  and  O2_3 
REMARK    3  A    between atoms: C10_15  and  C4_9 
ROOT
HETATM    1 Cl1  UNK     1      18.193   2.355  28.951  1.00  0.00    -0.084 Cl
HETATM    2  O1  UNK     1      20.836  -2.595  30.767  1.00  0.00    -0.274 OA
HETATM    3  O3  UNK     1      21.418  -4.033  32.444  1.00  0.00    -0.259 OA
HETATM    4  C1  UNK     1      19.562  -0.591  31.291  1.00  0.00     0.001 A 
HETATM    5  C2  UNK     1      20.197  -1.408  30.360  1.00  0.00     0.089 A 
HETATM    6  C3  UNK     1      19.569  -0.984  32.691  1.00  0.00     0.038 A 
HETATM    7  C4  UNK     1      20.177  -2.114  33.072  1.00  0.00     0.115 A 
HETATM    8  C5  UNK     1      18.939   0.579  30.849  1.00  0.00     0.038 A 
HETATM    9  C6  UNK     1      20.226  -1.088  29.004  1.00  0.00     0.040 A 
HETATM   10  C7  UNK     1      20.859  -2.997  32.099  1.00  0.00     0.304 A 
HETATM   11  C8  UNK     1      18.961   0.912  29.491  1.00  0.00     0.035 A 
HETATM   12  C9  UNK     1      19.603   0.080  28.571  1.00  0.00     0.026 A 
ENDROOT
BRANCH   7  13
HETATM   13  C10 UNK     1      20.130  -2.425  34.506  1.00  0.00     0.299 C 
HETATM   14  O4  UNK     1      20.427  -3.513  34.968  1.00  0.00    -0.259 OA
BRANCH  13  15
HETATM   15  O2  UNK     1      19.715  -1.320  35.174  1.00  0.00    -0.318 OA
BRANCH  15  16
HETATM   16  C11 UNK     1      18.719  -1.552  36.176  1.00  0.00     0.174 C 
HETATM   17  C12 UNK     1      17.441  -0.848  35.773  1.00  0.00     0.034 C 
ENDBRANCH  15  16
ENDBRANCH  13  15
ENDBRANCH   7  13
TORSDOF 3
ENDMDL
MODEL 10
REMARK VINA RESULT:      -6.4     11.499     13.097
REMARK  3 active torsions:
REMARK  status: ('A' for Active; 'I' for Inactive)
REMARK    1  A    between atoms: C10_15  and  O2_3 
REMARK    2  A    between atoms: C11_16  and  O2_3 
REMARK    3  A    between atoms: C10_15  and  C4_9 
ROOT
HETATM    1 Cl1  UNK     1      17.309  10.388  10.291  1.00  0.00    -0.084 Cl
HETATM    2  O1  UNK     1      14.334   5.412   9.204  1.00  0.00    -0.274 OA
HETATM    3  O3  UNK     1      12.610   4.315   8.184  1.00  0.00    -0.259 OA
HETATM    4  C1  UNK     1      14.596   7.808   8.873  1.00  0.00     0.001 A 
HETATM    5  C2  UNK     1      15.027   6.615   9.446  1.00  0.00     0.089 A 
HETATM    6  C3  UNK     1      13.419   7.792   8.018  1.00  0.00     0.038 A 
HETATM    7  C4  UNK     1      12.766   6.646   7.790  1.00  0.00     0.115 A 
HETATM    8  C5  UNK     1      15.308   8.980   9.138  1.00  0.00     0.038 A 
HETATM    9  C6  UNK     1      16.146   6.562  10.274  1.00  0.00     0.040 A 
HETATM   10  C7  UNK     1      13.206   5.366   8.391  1.00  0.00     0.304 A 
HETATM   11  C8  UNK     1      16.434   8.941   9.967  1.00  0.00     0.035 A 
HETATM   12  C9  UNK     1      16.851   7.735  10.534  1.00  0.00     0.026 A 
ENDROOT
BRANCH   7  13
HETATM   13  C10 UNK     1      11.591   6.732   6.915  1.00  0.00     0.299 C 
HETATM   14  O4  UNK     1      11.602   6.407   5.740  1.00  0.00    -0.259 OA
BRANCH  13  15
HETATM   15  O2  UNK     1      10.550   7.218   7.636  1.00  0.00    -0.318 OA
BRANCH  15  16
HETATM   16  C11 UNK     1       9.547   6.257   7.983  1.00  0.00     0.174 C 
HETATM   17  C12 UNK     1       8.265   6.598   7.254  1.00  0.00     0.034 C 
ENDBRANCH  15  16
ENDBRANCH  13  15
ENDBRANCH   7  13
TORSDOF 3
ENDMDL
