MODEL 1
REMARK VINA RESULT:      -8.9      0.000      0.000
REMARK  4 active torsions:
REMARK  status: ('A' for Active; 'I' for Inactive)
REMARK       I    between atoms: C5_8  and  N1_2 
REMARK    1  A    between atoms: C8_11  and  N1_2 
REMARK    2  A    between atoms: C1_4  and  C2_5 
REMARK    3  A    between atoms: C1_4  and  C5_8 
REMARK    4  A    between atoms: C3_6  and  C4_7 
ROOT
HETATM    1  C1  UNK     1      18.444   4.885  33.437  1.00  0.00     0.043 C 
HETATM    2  C3  UNK     1      18.049   5.809  34.352  1.00  0.00     0.029 C 
ENDROOT
BRANCH   1   3
HETATM    3  C2  UNK     1      19.073   5.271  32.157  1.00  0.00    -0.021 A 
HETATM    4  C6  UNK     1      20.436   5.508  32.118  1.00  0.00     0.012 A 
HETATM    5  C11 UNK     1      21.029   5.871  30.910  1.00  0.00     0.001 A 
HETATM    6  C13 UNK     1      20.251   5.992  29.759  1.00  0.00     0.000 A 
HETATM    7  C12 UNK     1      18.879   5.749  29.817  1.00  0.00     0.001 A 
HETATM    8  C7  UNK     1      18.285   5.384  31.026  1.00  0.00     0.012 A 
ENDBRANCH   1   3
BRANCH   1   9
HETATM    9  C5  UNK     1      18.174   3.439  33.783  1.00  0.00     0.258 C 
HETATM   10  O1  UNK     1      17.733   2.670  32.934  1.00  0.00    -0.267 OA
HETATM   11  N1  UNK     1      18.469   3.137  35.107  1.00  0.00    -0.307 N 
HETATM   12  H4  UNK     1      18.831   3.856  35.725  1.00  0.00     0.170 HD
BRANCH  11  13
HETATM   13  C8  UNK     1      18.323   1.894  35.742  1.00  0.00     0.130 A 
HETATM   14  C14 UNK     1      17.491   1.839  36.847  1.00  0.00     0.050 A 
HETATM   15  C19 UNK     1      17.339   0.612  37.484  1.00  0.00     0.006 A 
HETATM   16  C18 UNK     1      18.015  -0.503  37.002  1.00  0.00     0.027 A 
HETATM   17  C15 UNK     1      18.823  -0.341  35.888  1.00  0.00     0.033 A 
HETATM   18  N2  UNK     1      18.995   0.835  35.243  1.00  0.00    -0.236 NA
HETATM   19  C21 UNK     1      19.565  -1.516  35.344  1.00  0.00     0.070 C 
ENDBRANCH  11  13
ENDBRANCH   1   9
BRANCH   2  20
HETATM   20  C4  UNK     1      18.160   7.255  34.228  1.00  0.00    -0.035 A 
HETATM   21  C10 UNK     1      17.062   8.004  33.806  1.00  0.00     0.011 A 
HETATM   22  C17 UNK     1      17.167   9.390  33.688  1.00  0.00     0.001 A 
HETATM   23  C20 UNK     1      18.370  10.026  33.992  1.00  0.00     0.000 A 
HETATM   24  C16 UNK     1      19.468   9.277  34.414  1.00  0.00     0.001 A 
HETATM   25  C9  UNK     1      19.362   7.892  34.532  1.00  0.00     0.011 A 
ENDBRANCH   2  20
TORSDOF 4
ENDMDL
MODEL 2
REMARK VINA RESULT:      -8.6      5.216     11.673
REMARK  4 active torsions:
REMARK  status: ('A' for Active; 'I' for Inactive)
REMARK       I    between atoms: C5_8  and  N1_2 
REMARK    1  A    between atoms: C8_11  and  N1_2 
REMARK    2  A    between atoms: C1_4  and  C2_5 
REMARK    3  A    between atoms: C1_4  and  C5_8 
REMARK    4  A    between atoms: C3_6  and  C4_7 
ROOT
HETATM    1  C1  UNK     1      20.095  -4.492  37.088  1.00  0.00     0.043 C 
HETATM    2  C3  UNK     1      20.976  -4.760  38.087  1.00  0.00     0.029 C 
ENDROOT
BRANCH   1   3
HETATM    3  C2  UNK     1      19.302  -5.556  36.438  1.00  0.00    -0.021 A 
HETATM    4  C6  UNK     1      17.991  -5.757  36.830  1.00  0.00     0.012 A 
HETATM    5  C11 UNK     1      17.243  -6.761  36.216  1.00  0.00     0.001 A 
HETATM    6  C13 UNK     1      17.818  -7.548  35.219  1.00  0.00     0.000 A 
HETATM    7  C12 UNK     1      19.141  -7.331  34.836  1.00  0.00     0.001 A 
HETATM    8  C7  UNK     1      19.889  -6.326  35.450  1.00  0.00     0.012 A 
ENDBRANCH   1   3
BRANCH   1   9
HETATM    9  C5  UNK     1      19.992  -3.049  36.652  1.00  0.00     0.258 C 
HETATM   10  O1  UNK     1      20.894  -2.532  35.999  1.00  0.00    -0.267 OA
HETATM   11  N1  UNK     1      18.818  -2.439  37.078  1.00  0.00    -0.307 N 
HETATM   12  H4  UNK     1      18.137  -2.965  37.617  1.00  0.00     0.170 HD
BRANCH  11  13
HETATM   13  C8  UNK     1      18.425  -1.112  36.848  1.00  0.00     0.130 A 
HETATM   14  C14 UNK     1      17.970  -0.386  37.935  1.00  0.00     0.050 A 
HETATM   15  C19 UNK     1      17.577   0.930  37.719  1.00  0.00     0.006 A 
HETATM   16  C18 UNK     1      17.651   1.469  36.439  1.00  0.00     0.027 A 
HETATM   17  C15 UNK     1      18.122   0.659  35.419  1.00  0.00     0.033 A 
HETATM   18  N2  UNK     1      18.513  -0.624  35.592  1.00  0.00    -0.236 NA
HETATM   19  C21 UNK     1      18.214   1.204  34.034  1.00  0.00     0.070 C 
ENDBRANCH  11  13
ENDBRANCH   1   9
BRANCH   2  20
HETATM   20  C4  UNK     1      21.283  -6.068  38.645  1.00  0.00    -0.035 A 
HETATM   21  C10 UNK     1      22.604  -6.515  38.690  1.00  0.00     0.011 A 
HETATM   22  C17 UNK     1      22.898  -7.769  39.226  1.00  0.00     0.001 A 
HETATM   23  C20 UNK     1      21.872  -8.576  39.717  1.00  0.00     0.000 A 
HETATM   24  C16 UNK     1      20.552  -8.129  39.672  1.00  0.00     0.001 A 
HETATM   25  C9  UNK     1      20.257  -6.876  39.137  1.00  0.00     0.011 A 
ENDBRANCH   2  20
TORSDOF 4
ENDMDL
MODEL 3
REMARK VINA RESULT:      -8.4      5.503     11.700
REMARK  4 active torsions:
REMARK  status: ('A' for Active; 'I' for Inactive)
REMARK       I    between atoms: C5_8  and  N1_2 
REMARK    1  A    between atoms: C8_11  and  N1_2 
REMARK    2  A    between atoms: C1_4  and  C2_5 
REMARK    3  A    between atoms: C1_4  and  C5_8 
REMARK    4  A    between atoms: C3_6  and  C4_7 
ROOT
HETATM    1  C1  UNK     1      20.112  -4.518  36.890  1.00  0.00     0.043 C 
HETATM    2  C3  UNK     1      20.998  -4.761  37.890  1.00  0.00     0.029 C 
ENDROOT
BRANCH   1   3
HETATM    3  C2  UNK     1      19.259  -5.583  36.324  1.00  0.00    -0.021 A 
HETATM    4  C6  UNK     1      19.782  -6.427  35.360  1.00  0.00     0.012 A 
HETATM    5  C11 UNK     1      18.977  -7.432  34.826  1.00  0.00     0.001 A 
HETATM    6  C13 UNK     1      17.661  -7.579  35.264  1.00  0.00     0.000 A 
HETATM    7  C12 UNK     1      17.151  -6.719  36.236  1.00  0.00     0.001 A 
HETATM    8  C7  UNK     1      17.956  -5.713  36.771  1.00  0.00     0.012 A 
ENDBRANCH   1   3
BRANCH   1   9
HETATM    9  C5  UNK     1      20.067  -3.103  36.361  1.00  0.00     0.258 C 
HETATM   10  O1  UNK     1      21.103  -2.527  36.042  1.00  0.00    -0.267 OA
HETATM   11  N1  UNK     1      18.778  -2.588  36.306  1.00  0.00    -0.307 N 
HETATM   12  H4  UNK     1      17.989  -3.156  36.599  1.00  0.00     0.170 HD
BRANCH  11  13
HETATM   13  C8  UNK     1      18.398  -1.308  35.874  1.00  0.00     0.130 A 
HETATM   14  C14 UNK     1      18.591  -1.005  34.537  1.00  0.00     0.050 A 
HETATM   15  C19 UNK     1      18.218   0.261  34.097  1.00  0.00     0.006 A 
HETATM   16  C18 UNK     1      17.671   1.169  34.998  1.00  0.00     0.027 A 
HETATM   17  C15 UNK     1      17.519   0.765  36.315  1.00  0.00     0.033 A 
HETATM   18  N2  UNK     1      17.870  -0.455  36.778  1.00  0.00    -0.236 NA
HETATM   19  C21 UNK     1      16.937   1.715  37.308  1.00  0.00     0.070 C 
ENDBRANCH  11  13
ENDBRANCH   1   9
BRANCH   2  20
HETATM   20  C4  UNK     1      21.255  -6.043  38.529  1.00  0.00    -0.035 A 
HETATM   21  C10 UNK     1      22.554  -6.550  38.580  1.00  0.00     0.011 A 
HETATM   22  C17 UNK     1      22.800  -7.778  39.193  1.00  0.00     0.001 A 
HETATM   23  C20 UNK     1      21.747  -8.501  39.755  1.00  0.00     0.000 A 
HETATM   24  C16 UNK     1      20.449  -7.995  39.704  1.00  0.00     0.001 A 
HETATM   25  C9  UNK     1      20.203  -6.766  39.091  1.00  0.00     0.011 A 
ENDBRANCH   2  20
TORSDOF 4
ENDMDL
MODEL 4
REMARK VINA RESULT:      -8.1     17.019     20.396
REMARK  4 active torsions:
REMARK  status: ('A' for Active; 'I' for Inactive)
REMARK       I    between atoms: C5_8  and  N1_2 
REMARK    1  A    between atoms: C8_11  and  N1_2 
REMARK    2  A    between atoms: C1_4  and  C2_5 
REMARK    3  A    between atoms: C1_4  and  C5_8 
REMARK    4  A    between atoms: C3_6  and  C4_7 
ROOT
HETATM    1  C1  UNK     1      19.159  -2.286  15.174  1.00  0.00     0.043 C 
HETATM    2  C3  UNK     1      19.067  -1.684  13.960  1.00  0.00     0.029 C 
ENDROOT
BRANCH   1   3
HETATM    3  C2  UNK     1      19.783  -3.615  15.345  1.00  0.00    -0.021 A 
HETATM    4  C6  UNK     1      21.154  -3.702  15.500  1.00  0.00     0.012 A 
HETATM    5  C11 UNK     1      21.743  -4.956  15.662  1.00  0.00     0.001 A 
HETATM    6  C13 UNK     1      20.951  -6.103  15.664  1.00  0.00     0.000 A 
HETATM    7  C12 UNK     1      19.569  -5.996  15.506  1.00  0.00     0.001 A 
HETATM    8  C7  UNK     1      18.980  -4.742  15.345  1.00  0.00     0.012 A 
ENDBRANCH   1   3
BRANCH   1   9
HETATM    9  C5  UNK     1      18.556  -1.539  16.342  1.00  0.00     0.258 C 
HETATM   10  O1  UNK     1      17.435  -1.826  16.750  1.00  0.00    -0.267 OA
HETATM   11  N1  UNK     1      19.394  -0.548  16.838  1.00  0.00    -0.307 N 
HETATM   12  H4  UNK     1      20.307  -0.396  16.420  1.00  0.00     0.170 HD
BRANCH  11  13
HETATM   13  C8  UNK     1      19.131   0.324  17.905  1.00  0.00     0.130 A 
HETATM   14  C14 UNK     1      18.474  -0.198  19.006  1.00  0.00     0.050 A 
HETATM   15  C19 UNK     1      18.207   0.658  20.069  1.00  0.00     0.006 A 
HETATM   16  C18 UNK     1      18.601   1.990  19.996  1.00  0.00     0.027 A 
HETATM   17  C15 UNK     1      19.254   2.413  18.849  1.00  0.00     0.033 A 
HETATM   18  N2  UNK     1      19.530   1.610  17.797  1.00  0.00    -0.236 NA
HETATM   19  C21 UNK     1      19.689   3.835  18.737  1.00  0.00     0.070 C 
ENDBRANCH  11  13
ENDBRANCH   1   9
BRANCH   2  20
HETATM   20  C4  UNK     1      19.529  -2.221  12.689  1.00  0.00    -0.035 A 
HETATM   21  C10 UNK     1      20.560  -1.585  11.997  1.00  0.00     0.011 A 
HETATM   22  C17 UNK     1      21.004  -2.100  10.779  1.00  0.00     0.001 A 
HETATM   23  C20 UNK     1      20.417  -3.251  10.253  1.00  0.00     0.000 A 
HETATM   24  C16 UNK     1      19.387  -3.886  10.944  1.00  0.00     0.001 A 
HETATM   25  C9  UNK     1      18.943  -3.371  12.162  1.00  0.00     0.011 A 
ENDBRANCH   2  20
TORSDOF 4
ENDMDL
MODEL 5
REMARK VINA RESULT:      -8.0     16.964     20.358
REMARK  4 active torsions:
REMARK  status: ('A' for Active; 'I' for Inactive)
REMARK       I    between atoms: C5_8  and  N1_2 
REMARK    1  A    between atoms: C8_11  and  N1_2 
REMARK    2  A    between atoms: C1_4  and  C2_5 
REMARK    3  A    between atoms: C1_4  and  C5_8 
REMARK    4  A    between atoms: C3_6  and  C4_7 
ROOT
HETATM    1  C1  UNK     1      18.998  -2.135  15.162  1.00  0.00     0.043 C 
HETATM    2  C3  UNK     1      19.240  -1.403  14.043  1.00  0.00     0.029 C 
ENDROOT
BRANCH   1   3
HETATM    3  C2  UNK     1      19.134  -3.606  15.179  1.00  0.00    -0.021 A 
HETATM    4  C6  UNK     1      18.006  -4.391  15.021  1.00  0.00     0.012 A 
HETATM    5  C11 UNK     1      18.135  -5.780  15.037  1.00  0.00     0.001 A 
HETATM    6  C13 UNK     1      19.390  -6.361  15.212  1.00  0.00     0.000 A 
HETATM    7  C12 UNK     1      20.516  -5.554  15.370  1.00  0.00     0.001 A 
HETATM    8  C7  UNK     1      20.388  -4.165  15.353  1.00  0.00     0.012 A 
ENDBRANCH   1   3
BRANCH   1   9
HETATM    9  C5  UNK     1      18.546  -1.367  16.383  1.00  0.00     0.258 C 
HETATM   10  O1  UNK     1      17.509  -1.677  16.962  1.00  0.00    -0.267 OA
HETATM   11  N1  UNK     1      19.410  -0.331  16.718  1.00  0.00    -0.307 N 
HETATM   12  H4  UNK     1      20.244  -0.163  16.164  1.00  0.00     0.170 HD
BRANCH  11  13
HETATM   13  C8  UNK     1      19.273   0.569  17.785  1.00  0.00     0.130 A 
HETATM   14  C14 UNK     1      18.988   1.887  17.473  1.00  0.00     0.050 A 
HETATM   15  C19 UNK     1      18.851   2.789  18.523  1.00  0.00     0.006 A 
HETATM   16  C18 UNK     1      19.003   2.348  19.833  1.00  0.00     0.027 A 
HETATM   17  C15 UNK     1      19.286   1.007  20.038  1.00  0.00     0.033 A 
HETATM   18  N2  UNK     1      19.427   0.103  19.043  1.00  0.00    -0.236 NA
HETATM   19  C21 UNK     1      19.457   0.500  21.431  1.00  0.00     0.070 C 
ENDBRANCH  11  13
ENDBRANCH   1   9
BRANCH   2  20
HETATM   20  C4  UNK     1      19.639  -1.916  12.741  1.00  0.00    -0.035 A 
HETATM   21  C10 UNK     1      20.775  -1.408  12.111  1.00  0.00     0.011 A 
HETATM   22  C17 UNK     1      21.159  -1.899  10.863  1.00  0.00     0.001 A 
HETATM   23  C20 UNK     1      20.407  -2.899  10.245  1.00  0.00     0.000 A 
HETATM   24  C16 UNK     1      19.271  -3.406  10.875  1.00  0.00     0.001 A 
HETATM   25  C9  UNK     1      18.888  -2.914  12.123  1.00  0.00     0.011 A 
ENDBRANCH   2  20
TORSDOF 4
ENDMDL
MODEL 6
REMARK VINA RESULT:      -7.7      4.119      8.559
REMARK  4 active torsions:
REMARK  status: ('A' for Active; 'I' for Inactive)
REMARK       I    between atoms: C5_8  and  N1_2 
REMARK    1  A    between atoms: C8_11  and  N1_2 
REMARK    2  A    between atoms: C1_4  and  C2_5 
REMARK    3  A    between atoms: C1_4  and  C5_8 
REMARK    4  A    between atoms: C3_6  and  C4_7 
ROOT
HETATM    1  C1  UNK     1      17.916   8.230  33.291  1.00  0.00     0.043 C 
HETATM    2  C3  UNK     1      18.924   7.373  32.980  1.00  0.00     0.029 C 
ENDROOT
BRANCH   1   3
HETATM    3  C2  UNK     1      16.496   7.877  33.083  1.00  0.00    -0.021 A 
HETATM    4  C6  UNK     1      15.689   7.647  34.183  1.00  0.00     0.012 A 
HETATM    5  C11 UNK     1      14.350   7.314  33.986  1.00  0.00     0.001 A 
HETATM    6  C13 UNK     1      13.838   7.216  32.692  1.00  0.00     0.000 A 
HETATM    7  C12 UNK     1      14.667   7.451  31.596  1.00  0.00     0.001 A 
HETATM    8  C7  UNK     1      16.007   7.785  31.792  1.00  0.00     0.012 A 
ENDBRANCH   1   3
BRANCH   1   9
HETATM    9  C5  UNK     1      18.325   9.581  33.832  1.00  0.00     0.258 C 
HETATM   10  O1  UNK     1      19.432   9.736  34.339  1.00  0.00    -0.267 OA
HETATM   11  N1  UNK     1      17.333  10.542  33.689  1.00  0.00    -0.307 N 
HETATM   12  H4  UNK     1      16.448  10.301  33.252  1.00  0.00     0.170 HD
BRANCH  11  13
HETATM   13  C8  UNK     1      17.393  11.884  34.092  1.00  0.00     0.130 A 
HETATM   14  C14 UNK     1      16.580  12.269  35.145  1.00  0.00     0.050 A 
HETATM   15  C19 UNK     1      16.631  13.597  35.553  1.00  0.00     0.006 A 
HETATM   16  C18 UNK     1      17.482  14.485  34.904  1.00  0.00     0.027 A 
HETATM   17  C15 UNK     1      18.255  13.999  33.862  1.00  0.00     0.033 A 
HETATM   18  N2  UNK     1      18.232  12.715  33.438  1.00  0.00    -0.236 NA
HETATM   19  C21 UNK     1      19.178  14.924  33.142  1.00  0.00     0.070 C 
ENDBRANCH  11  13
ENDBRANCH   1   9
BRANCH   2  20
HETATM   20  C4  UNK     1      18.786   6.042  32.408  1.00  0.00    -0.035 A 
HETATM   21  C10 UNK     1      18.293   4.996  33.189  1.00  0.00     0.011 A 
HETATM   22  C17 UNK     1      18.160   3.721  32.641  1.00  0.00     0.001 A 
HETATM   23  C20 UNK     1      18.519   3.491  31.312  1.00  0.00     0.000 A 
HETATM   24  C16 UNK     1      19.012   4.536  30.533  1.00  0.00     0.001 A 
HETATM   25  C9  UNK     1      19.145   5.812  31.081  1.00  0.00     0.011 A 
ENDBRANCH   2  20
TORSDOF 4
ENDMDL
MODEL 7
REMARK VINA RESULT:      -7.6     14.674     15.765
REMARK  4 active torsions:
REMARK  status: ('A' for Active; 'I' for Inactive)
REMARK       I    between atoms: C5_8  and  N1_2 
REMARK    1  A    between atoms: C8_11  and  N1_2 
REMARK    2  A    between atoms: C1_4  and  C2_5 
REMARK    3  A    between atoms: C1_4  and  C5_8 
REMARK    4  A    between atoms: C3_6  and  C4_7 
ROOT
HETATM    1  C1  UNK     1      27.355  -7.866  38.206  1.00  0.00     0.043 C 
HETATM    2  C3  UNK     1      28.107  -7.156  39.086  1.00  0.00     0.029 C 
ENDROOT
BRANCH   1   3
HETATM    3  C2  UNK     1      27.772  -8.065  36.802  1.00  0.00    -0.021 A 
HETATM    4  C6  UNK     1      27.874  -6.968  35.966  1.00  0.00     0.012 A 
HETATM    5  C11 UNK     1      28.269  -7.156  34.642  1.00  0.00     0.001 A 
HETATM    6  C13 UNK     1      28.554  -8.438  34.174  1.00  0.00     0.000 A 
HETATM    7  C12 UNK     1      28.446  -9.533  35.032  1.00  0.00     0.001 A 
HETATM    8  C7  UNK     1      28.053  -9.345  36.357  1.00  0.00     0.012 A 
ENDBRANCH   1   3
BRANCH   1   9
HETATM    9  C5  UNK     1      26.048  -8.416  38.729  1.00  0.00     0.258 C 
HETATM   10  O1  UNK     1      26.042  -9.253  39.626  1.00  0.00    -0.267 OA
HETATM   11  N1  UNK     1      24.940  -7.880  38.084  1.00  0.00    -0.307 N 
HETATM   12  H4  UNK     1      25.063  -7.190  37.349  1.00  0.00     0.170 HD
BRANCH  11  13
HETATM   13  C8  UNK     1      23.593  -8.184  38.326  1.00  0.00     0.130 A 
HETATM   14  C14 UNK     1      23.032  -7.704  39.497  1.00  0.00     0.050 A 
HETATM   15  C19 UNK     1      21.697  -8.001  39.748  1.00  0.00     0.006 A 
HETATM   16  C18 UNK     1      20.976  -8.758  38.831  1.00  0.00     0.027 A 
HETATM   17  C15 UNK     1      21.630  -9.189  37.688  1.00  0.00     0.033 A 
HETATM   18  N2  UNK     1      22.926  -8.921  37.411  1.00  0.00    -0.236 NA
HETATM   19  C21 UNK     1      20.888 -10.005  36.683  1.00  0.00     0.070 C 
ENDBRANCH  11  13
ENDBRANCH   1   9
BRANCH   2  20
HETATM   20  C4  UNK     1      29.374  -6.495  38.810  1.00  0.00    -0.035 A 
HETATM   21  C10 UNK     1      29.449  -5.102  38.814  1.00  0.00     0.011 A 
HETATM   22  C17 UNK     1      30.664  -4.469  38.549  1.00  0.00     0.001 A 
HETATM   23  C20 UNK     1      31.802  -5.228  38.281  1.00  0.00     0.000 A 
HETATM   24  C16 UNK     1      31.727  -6.620  38.277  1.00  0.00     0.001 A 
HETATM   25  C9  UNK     1      30.513  -7.254  38.541  1.00  0.00     0.011 A 
ENDBRANCH   2  20
TORSDOF 4
ENDMDL
MODEL 8
REMARK VINA RESULT:      -7.6      3.349      4.660
REMARK  4 active torsions:
REMARK  status: ('A' for Active; 'I' for Inactive)
REMARK       I    between atoms: C5_8  and  N1_2 
REMARK    1  A    between atoms: C8_11  and  N1_2 
REMARK    2  A    between atoms: C1_4  and  C2_5 
REMARK    3  A    between atoms: C1_4  and  C5_8 
REMARK    4  A    between atoms: C3_6  and  C4_7 
ROOT
HETATM    1  C1  UNK     1      17.930   5.786  32.812  1.00  0.00     0.043 C 
HETATM    2  C3  UNK     1      19.089   6.446  33.069  1.00  0.00     0.029 C 
ENDROOT
BRANCH   1   3
HETATM    3  C2  UNK     1      16.610   6.436  32.955  1.00  0.00    -0.021 A 
HETATM    4  C6  UNK     1      16.157   6.774  34.217  1.00  0.00     0.012 A 
HETATM    5  C11 UNK     1      14.912   7.387  34.352  1.00  0.00     0.001 A 
HETATM    6  C13 UNK     1      14.139   7.653  33.222  1.00  0.00     0.000 A 
HETATM    7  C12 UNK     1      14.613   7.305  31.957  1.00  0.00     0.001 A 
HETATM    8  C7  UNK     1      15.859   6.692  31.822  1.00  0.00     0.012 A 
ENDBRANCH   1   3
BRANCH   1   9
HETATM    9  C5  UNK     1      18.058   4.336  32.403  1.00  0.00     0.258 C 
HETATM   10  O1  UNK     1      17.906   3.443  33.232  1.00  0.00    -0.267 OA
HETATM   11  N1  UNK     1      18.362   4.180  31.057  1.00  0.00    -0.307 N 
HETATM   12  H4  UNK     1      18.468   4.995  30.460  1.00  0.00     0.170 HD
BRANCH  11  13
HETATM   13  C8  UNK     1      18.555   2.973  30.369  1.00  0.00     0.130 A 
HETATM   14  C14 UNK     1      17.905   2.820  29.157  1.00  0.00     0.050 A 
HETATM   15  C19 UNK     1      18.089   1.626  28.467  1.00  0.00     0.006 A 
HETATM   16  C18 UNK     1      18.907   0.639  29.006  1.00  0.00     0.027 A 
HETATM   17  C15 UNK     1      19.513   0.892  30.226  1.00  0.00     0.033 A 
HETATM   18  N2  UNK     1      19.358   2.039  30.925  1.00  0.00    -0.236 NA
HETATM   19  C21 UNK     1      20.396  -0.146  30.834  1.00  0.00     0.070 C 
ENDBRANCH  11  13
ENDBRANCH   1   9
BRANCH   2  20
HETATM   20  C4  UNK     1      19.221   7.825  33.517  1.00  0.00    -0.035 A 
HETATM   21  C10 UNK     1      18.177   8.727  33.313  1.00  0.00     0.011 A 
HETATM   22  C17 UNK     1      18.302  10.048  33.743  1.00  0.00     0.001 A 
HETATM   23  C20 UNK     1      19.472  10.466  34.377  1.00  0.00     0.000 A 
HETATM   24  C16 UNK     1      20.516   9.565  34.581  1.00  0.00     0.001 A 
HETATM   25  C9  UNK     1      20.390   8.244  34.151  1.00  0.00     0.011 A 
ENDBRANCH   2  20
TORSDOF 4
ENDMDL
MODEL 9
REMARK VINA RESULT:      -7.6      4.172      8.506
REMARK  4 active torsions:
REMARK  status: ('A' for Active; 'I' for Inactive)
REMARK       I    between atoms: C5_8  and  N1_2 
REMARK    1  A    between atoms: C8_11  and  N1_2 
REMARK    2  A    between atoms: C1_4  and  C2_5 
REMARK    3  A    between atoms: C1_4  and  C5_8 
REMARK    4  A    between atoms: C3_6  and  C4_7 
ROOT
HETATM    1  C1  UNK     1      17.910   8.207  33.274  1.00  0.00     0.043 C 
HETATM    2  C3  UNK     1      18.928   7.378  32.921  1.00  0.00     0.029 C 
ENDROOT
BRANCH   1   3
HETATM    3  C2  UNK     1      16.495   7.850  33.045  1.00  0.00    -0.021 A 
HETATM    4  C6  UNK     1      16.020   7.771  31.748  1.00  0.00     0.012 A 
HETATM    5  C11 UNK     1      14.684   7.434  31.532  1.00  0.00     0.001 A 
HETATM    6  C13 UNK     1      13.844   7.182  32.615  1.00  0.00     0.000 A 
HETATM    7  C12 UNK     1      14.340   7.266  33.916  1.00  0.00     0.001 A 
HETATM    8  C7  UNK     1      15.677   7.603  34.133  1.00  0.00     0.012 A 
ENDBRANCH   1   3
BRANCH   1   9
HETATM    9  C5  UNK     1      18.304   9.532  33.886  1.00  0.00     0.258 C 
HETATM   10  O1  UNK     1      19.426   9.687  34.359  1.00  0.00    -0.267 OA
HETATM   11  N1  UNK     1      17.281  10.471  33.844  1.00  0.00    -0.307 N 
HETATM   12  H4  UNK     1      16.387  10.232  33.427  1.00  0.00     0.170 HD
BRANCH  11  13
HETATM   13  C8  UNK     1      17.321  11.785  34.332  1.00  0.00     0.130 A 
HETATM   14  C14 UNK     1      18.178  12.672  33.702  1.00  0.00     0.050 A 
HETATM   15  C19 UNK     1      18.226  13.978  34.178  1.00  0.00     0.006 A 
HETATM   16  C18 UNK     1      17.426  14.348  35.254  1.00  0.00     0.027 A 
HETATM   17  C15 UNK     1      16.602  13.385  35.813  1.00  0.00     0.033 A 
HETATM   18  N2  UNK     1      16.529  12.107  35.378  1.00  0.00    -0.236 NA
HETATM   19  C21 UNK     1      15.733  13.747  36.970  1.00  0.00     0.070 C 
ENDBRANCH  11  13
ENDBRANCH   1   9
BRANCH   2  20
HETATM   20  C4  UNK     1      18.804   6.078  32.279  1.00  0.00    -0.035 A 
HETATM   21  C10 UNK     1      19.200   5.915  30.952  1.00  0.00     0.011 A 
HETATM   22  C17 UNK     1      19.082   4.669  30.337  1.00  0.00     0.001 A 
HETATM   23  C20 UNK     1      18.570   3.585  31.050  1.00  0.00     0.000 A 
HETATM   24  C16 UNK     1      18.175   3.748  32.377  1.00  0.00     0.001 A 
HETATM   25  C9  UNK     1      18.292   4.994  32.991  1.00  0.00     0.011 A 
ENDBRANCH   2  20
TORSDOF 4
ENDMDL
MODEL 10
REMARK VINA RESULT:      -7.6      4.381      7.958
REMARK  4 active torsions:
REMARK  status: ('A' for Active; 'I' for Inactive)
REMARK       I    between atoms: C5_8  and  N1_2 
REMARK    1  A    between atoms: C8_11  and  N1_2 
REMARK    2  A    between atoms: C1_4  and  C2_5 
REMARK    3  A    between atoms: C1_4  and  C5_8 
REMARK    4  A    between atoms: C3_6  and  C4_7 
ROOT
HETATM    1  C1  UNK     1      16.418   8.074  33.566  1.00  0.00     0.043 C 
HETATM    2  C3  UNK     1      16.225   7.085  32.656  1.00  0.00     0.029 C 
ENDROOT
BRANCH   1   3
HETATM    3  C2  UNK     1      17.770   8.535  33.947  1.00  0.00    -0.021 A 
HETATM    4  C6  UNK     1      18.157   9.825  33.631  1.00  0.00     0.012 A 
HETATM    5  C11 UNK     1      19.433  10.260  33.991  1.00  0.00     0.001 A 
HETATM    6  C13 UNK     1      20.301   9.398  34.659  1.00  0.00     0.000 A 
HETATM    7  C12 UNK     1      19.893   8.100  34.969  1.00  0.00     0.001 A 
HETATM    8  C7  UNK     1      18.617   7.665  34.611  1.00  0.00     0.012 A 
ENDBRANCH   1   3
BRANCH   1   9
HETATM    9  C5  UNK     1      15.176   8.658  34.198  1.00  0.00     0.258 C 
HETATM   10  O1  UNK     1      14.113   8.045  34.157  1.00  0.00    -0.267 OA
HETATM   11  N1  UNK     1      15.398   9.901  34.779  1.00  0.00    -0.307 N 
HETATM   12  H4  UNK     1      16.324  10.317  34.753  1.00  0.00     0.170 HD
BRANCH  11  13
HETATM   13  C8  UNK     1      14.456  10.707  35.435  1.00  0.00     0.130 A 
HETATM   14  C14 UNK     1      13.584  11.438  34.646  1.00  0.00     0.050 A 
HETATM   15  C19 UNK     1      12.647  12.241  35.286  1.00  0.00     0.006 A 
HETATM   16  C18 UNK     1      12.612  12.285  36.676  1.00  0.00     0.027 A 
HETATM   17  C15 UNK     1      13.528  11.514  37.373  1.00  0.00     0.033 A 
HETATM   18  N2  UNK     1      14.454  10.722  36.786  1.00  0.00    -0.236 NA
HETATM   19  C21 UNK     1      13.521  11.539  38.865  1.00  0.00     0.070 C 
ENDBRANCH  11  13
ENDBRANCH   1   9
BRANCH   2  20
HETATM   20  C4  UNK     1      17.258   6.342  31.949  1.00  0.00    -0.035 A 
HETATM   21  C10 UNK     1      17.598   5.054  32.364  1.00  0.00     0.011 A 
HETATM   22  C17 UNK     1      18.587   4.342  31.686  1.00  0.00     0.001 A 
HETATM   23  C20 UNK     1      19.237   4.918  30.594  1.00  0.00     0.000 A 
HETATM   24  C16 UNK     1      18.898   6.205  30.180  1.00  0.00     0.001 A 
HETATM   25  C9  UNK     1      17.908   6.917  30.858  1.00  0.00     0.011 A 
ENDBRANCH   2  20
TORSDOF 4
ENDMDL
