MODEL 1
REMARK VINA RESULT:     -10.3      0.000      0.000
REMARK  4 active torsions:
REMARK  status: ('A' for Active; 'I' for Inactive)
REMARK    1  A    between atoms: C10_17  and  O1_2 
REMARK       I    between atoms: C11_18  and  N1_7 
REMARK    2  A    between atoms: C9_16  and  N1_7 
REMARK    3  A    between atoms: C10_17  and  C8_15 
REMARK    4  A    between atoms: C11_18  and  C12_19 
ROOT
HETATM    1  O4  UNK     1      19.607   5.331  31.518  1.00  0.00    -0.267 OA
HETATM    2  N1  UNK     1      17.972   3.822  32.323  1.00  0.00    -0.316 N 
HETATM    3  C11 UNK     1      18.599   5.079  32.166  1.00  0.00     0.262 C 
HETATM    4  H11 UNK     1      17.143   3.785  32.911  1.00  0.00     0.169 HD
ENDROOT
BRANCH   2   5
HETATM    5  C9  UNK     1      18.337   2.611  31.798  1.00  0.00     0.094 A 
HETATM    6  C8  UNK     1      18.484   1.373  32.382  1.00  0.00     0.080 A 
HETATM    7  C5  UNK     1      18.893   0.368  31.446  1.00  0.00    -0.026 A 
HETATM    8  C3  UNK     1      19.130  -1.069  31.797  1.00  0.00     0.041 C 
HETATM    9  C7  UNK     1      19.038   0.898  30.176  1.00  0.00    -0.008 A 
HETATM   10  C1  UNK     1      20.536  -1.554  31.442  1.00  0.00     0.005 C 
HETATM   11  C2  UNK     1      20.760  -1.790  29.945  1.00  0.00     0.001 C 
HETATM   12  C4  UNK     1      20.799  -0.524  29.083  1.00  0.00     0.005 C 
HETATM   13  C6  UNK     1      19.448   0.174  28.929  1.00  0.00     0.046 C 
HETATM   14  S1  UNK     1      18.686   2.572  30.128  1.00  0.00    -0.075 SA
BRANCH   6  15
HETATM   15  C10 UNK     1      18.241   1.167  33.789  1.00  0.00     0.296 C 
HETATM   16  O2  UNK     1      19.125   0.962  34.640  1.00  0.00    -0.259 OA
BRANCH  15  17
HETATM   17  O1  UNK     1      16.905   1.223  34.094  1.00  0.00    -0.322 OA
HETATM   18  C17 UNK     1      16.376   0.180  34.921  1.00  0.00     0.213 C 
ENDBRANCH  15  17
ENDBRANCH   6  15
ENDBRANCH   2   5
BRANCH   3  19
HETATM   19  C12 UNK     1      17.910   6.170  32.887  1.00  0.00     0.108 A 
HETATM   20  C15 UNK     1      18.529   6.865  34.037  1.00  0.00     0.304 A 
HETATM   21  O3  UNK     1      17.781   7.876  34.633  1.00  0.00    -0.274 OA
HETATM   22  O5  UNK     1      19.646   6.570  34.448  1.00  0.00    -0.259 OA
HETATM   23  C16 UNK     1      16.497   8.224  34.168  1.00  0.00     0.089 A 
HETATM   24  C14 UNK     1      15.934   7.557  33.085  1.00  0.00    -0.001 A 
HETATM   25  C19 UNK     1      15.826   9.250  34.829  1.00  0.00     0.038 A 
HETATM   26  C13 UNK     1      16.691   6.495  32.440  1.00  0.00     0.037 A 
HETATM   27  C18 UNK     1      14.659   7.930  32.654  1.00  0.00     0.014 A 
HETATM   28  C20 UNK     1      13.972   8.957  33.307  1.00  0.00     0.001 A 
HETATM   29  C21 UNK     1      14.554   9.616  34.392  1.00  0.00     0.003 A 
ENDBRANCH   3  19
TORSDOF 4
ENDMDL
MODEL 2
REMARK VINA RESULT:      -9.6      4.829      9.705
REMARK  4 active torsions:
REMARK  status: ('A' for Active; 'I' for Inactive)
REMARK    1  A    between atoms: C10_17  and  O1_2 
REMARK       I    between atoms: C11_18  and  N1_7 
REMARK    2  A    between atoms: C9_16  and  N1_7 
REMARK    3  A    between atoms: C10_17  and  C8_15 
REMARK    4  A    between atoms: C11_18  and  C12_19 
ROOT
HETATM    1  O4  UNK     1      21.612  -2.082  34.907  1.00  0.00    -0.267 OA
HETATM    2  N1  UNK     1      19.486  -2.333  33.900  1.00  0.00    -0.316 N 
HETATM    3  C11 UNK     1      20.524  -2.637  34.810  1.00  0.00     0.262 C 
HETATM    4  H11 UNK     1      18.646  -2.905  33.944  1.00  0.00     0.169 HD
ENDROOT
BRANCH   2   5
HETATM    5  C9  UNK     1      19.451  -1.368  32.930  1.00  0.00     0.094 A 
HETATM    6  C8  UNK     1      18.923  -0.097  32.928  1.00  0.00     0.080 A 
HETATM    7  C5  UNK     1      19.112   0.577  31.678  1.00  0.00    -0.026 A 
HETATM    8  C3  UNK     1      18.642   1.969  31.388  1.00  0.00     0.041 C 
HETATM    9  C7  UNK     1      19.786  -0.226  30.775  1.00  0.00    -0.008 A 
HETATM   10  C1  UNK     1      17.711   2.053  30.177  1.00  0.00     0.005 C 
HETATM   11  C2  UNK     1      18.422   1.915  28.827  1.00  0.00     0.001 C 
HETATM   12  C4  UNK     1      18.971   0.519  28.517  1.00  0.00     0.005 C 
HETATM   13  C6  UNK     1      20.175   0.113  29.368  1.00  0.00     0.046 C 
HETATM   14  S1  UNK     1      20.177  -1.757  31.434  1.00  0.00    -0.075 SA
BRANCH   6  15
HETATM   15  C10 UNK     1      18.260   0.447  34.089  1.00  0.00     0.296 C 
HETATM   16  O2  UNK     1      17.050   0.729  34.148  1.00  0.00    -0.259 OA
BRANCH  15  17
HETATM   17  O1  UNK     1      19.124   0.623  35.140  1.00  0.00    -0.322 OA
HETATM   18  C17 UNK     1      19.076   1.879  35.826  1.00  0.00     0.213 C 
ENDBRANCH  15  17
ENDBRANCH   6  15
ENDBRANCH   2   5
BRANCH   3  19
HETATM   19  C12 UNK     1      20.197  -3.755  35.718  1.00  0.00     0.108 A 
HETATM   20  C15 UNK     1      20.013  -3.556  37.173  1.00  0.00     0.304 A 
HETATM   21  O3  UNK     1      19.706  -4.687  37.925  1.00  0.00    -0.274 OA
HETATM   22  O5  UNK     1      20.121  -2.452  37.696  1.00  0.00    -0.259 OA
HETATM   23  C16 UNK     1      19.578  -5.960  37.334  1.00  0.00     0.089 A 
HETATM   24  C14 UNK     1      19.756  -6.124  35.965  1.00  0.00    -0.001 A 
HETATM   25  C19 UNK     1      19.268  -7.032  38.168  1.00  0.00     0.038 A 
HETATM   26  C13 UNK     1      20.077  -4.961  35.151  1.00  0.00     0.037 A 
HETATM   27  C18 UNK     1      19.621  -7.402  35.416  1.00  0.00     0.014 A 
HETATM   28  C20 UNK     1      19.312  -8.488  36.240  1.00  0.00     0.001 A 
HETATM   29  C21 UNK     1      19.136  -8.303  37.613  1.00  0.00     0.003 A 
ENDBRANCH   3  19
TORSDOF 4
ENDMDL
MODEL 3
REMARK VINA RESULT:      -9.6      1.402      1.944
REMARK  4 active torsions:
REMARK  status: ('A' for Active; 'I' for Inactive)
REMARK    1  A    between atoms: C10_17  and  O1_2 
REMARK       I    between atoms: C11_18  and  N1_7 
REMARK    2  A    between atoms: C9_16  and  N1_7 
REMARK    3  A    between atoms: C10_17  and  C8_15 
REMARK    4  A    between atoms: C11_18  and  C12_19 
ROOT
HETATM    1  O4  UNK     1      19.924   5.485  31.859  1.00  0.00    -0.267 OA
HETATM    2  N1  UNK     1      17.905   4.252  31.911  1.00  0.00    -0.316 N 
HETATM    3  C11 UNK     1      18.718   5.398  32.060  1.00  0.00     0.262 C 
HETATM    4  H11 UNK     1      16.917   4.350  32.134  1.00  0.00     0.169 HD
ENDROOT
BRANCH   2   5
HETATM    5  C9  UNK     1      18.264   2.991  31.516  1.00  0.00     0.094 A 
HETATM    6  C8  UNK     1      18.399   1.820  32.225  1.00  0.00     0.080 A 
HETATM    7  C5  UNK     1      18.805   0.720  31.400  1.00  0.00    -0.026 A 
HETATM    8  C3  UNK     1      19.031  -0.674  31.898  1.00  0.00     0.041 C 
HETATM    9  C7  UNK     1      18.960   1.116  30.083  1.00  0.00    -0.008 A 
HETATM   10  C1  UNK     1      20.435  -1.202  31.602  1.00  0.00     0.005 C 
HETATM   11  C2  UNK     1      20.665  -1.592  30.139  1.00  0.00     0.001 C 
HETATM   12  C4  UNK     1      20.717  -0.422  29.152  1.00  0.00     0.005 C 
HETATM   13  C6  UNK     1      19.371   0.265  28.919  1.00  0.00     0.046 C 
HETATM   14  S1  UNK     1      18.620   2.778  29.861  1.00  0.00    -0.075 SA
BRANCH   6  15
HETATM   15  C10 UNK     1      18.148   1.761  33.645  1.00  0.00     0.296 C 
HETATM   16  O2  UNK     1      18.956   2.109  34.524  1.00  0.00    -0.259 OA
BRANCH  15  17
HETATM   17  O1  UNK     1      16.898   1.271  33.926  1.00  0.00    -0.322 OA
HETATM   18  C17 UNK     1      16.814   0.178  34.846  1.00  0.00     0.213 C 
ENDBRANCH  15  17
ENDBRANCH   6  15
ENDBRANCH   2   5
BRANCH   3  19
HETATM   19  C12 UNK     1      17.971   6.592  32.507  1.00  0.00     0.108 A 
HETATM   20  C15 UNK     1      16.494   6.662  32.446  1.00  0.00     0.304 A 
HETATM   21  O3  UNK     1      15.905   7.840  32.897  1.00  0.00    -0.274 OA
HETATM   22  O5  UNK     1      15.817   5.731  32.023  1.00  0.00    -0.259 OA
HETATM   23  C16 UNK     1      16.673   8.915  33.387  1.00  0.00     0.089 A 
HETATM   24  C14 UNK     1      18.060   8.828  33.434  1.00  0.00    -0.001 A 
HETATM   25  C19 UNK     1      15.993  10.053  33.817  1.00  0.00     0.038 A 
HETATM   26  C13 UNK     1      18.706   7.610  32.970  1.00  0.00     0.037 A 
HETATM   27  C18 UNK     1      18.787   9.915  33.926  1.00  0.00     0.014 A 
HETATM   28  C20 UNK     1      18.119  11.064  34.360  1.00  0.00     0.001 A 
HETATM   29  C21 UNK     1      16.726  11.133  34.306  1.00  0.00     0.003 A 
ENDBRANCH   3  19
TORSDOF 4
ENDMDL
MODEL 4
REMARK VINA RESULT:      -9.5      1.626      8.557
REMARK  4 active torsions:
REMARK  status: ('A' for Active; 'I' for Inactive)
REMARK    1  A    between atoms: C10_17  and  O1_2 
REMARK       I    between atoms: C11_18  and  N1_7 
REMARK    2  A    between atoms: C9_16  and  N1_7 
REMARK    3  A    between atoms: C10_17  and  C8_15 
REMARK    4  A    between atoms: C11_18  and  C12_19 
ROOT
HETATM    1  O4  UNK     1      18.645   4.922  30.215  1.00  0.00    -0.267 OA
HETATM    2  N1  UNK     1      17.607   4.866  32.340  1.00  0.00    -0.316 N 
HETATM    3  C11 UNK     1      18.296   4.330  31.229  1.00  0.00     0.262 C 
HETATM    4  H11 UNK     1      17.379   4.228  33.099  1.00  0.00     0.169 HD
ENDROOT
BRANCH   2   5
HETATM    5  C9  UNK     1      17.173   6.149  32.543  1.00  0.00     0.094 A 
HETATM    6  C8  UNK     1      17.806   7.251  33.069  1.00  0.00     0.080 A 
HETATM    7  C5  UNK     1      16.963   8.409  33.098  1.00  0.00    -0.026 A 
HETATM    8  C3  UNK     1      17.384   9.750  33.616  1.00  0.00     0.041 C 
HETATM    9  C7  UNK     1      15.710   8.127  32.583  1.00  0.00    -0.008 A 
HETATM   10  C1  UNK     1      16.486  10.273  34.738  1.00  0.00     0.005 C 
HETATM   11  C2  UNK     1      15.122  10.784  34.266  1.00  0.00     0.001 C 
HETATM   12  C4  UNK     1      14.155   9.704  33.772  1.00  0.00     0.005 C 
HETATM   13  C6  UNK     1      14.552   9.067  32.439  1.00  0.00     0.046 C 
HETATM   14  S1  UNK     1      15.568   6.497  32.080  1.00  0.00    -0.075 SA
BRANCH   6  15
HETATM   15  C10 UNK     1      19.173   7.191  33.529  1.00  0.00     0.296 C 
HETATM   16  O2  UNK     1      19.530   7.320  34.714  1.00  0.00    -0.259 OA
BRANCH  15  17
HETATM   17  O1  UNK     1      20.052   6.971  32.500  1.00  0.00    -0.322 OA
HETATM   18  C17 UNK     1      21.251   6.250  32.803  1.00  0.00     0.213 C 
ENDBRANCH  15  17
ENDBRANCH   6  15
ENDBRANCH   2   5
BRANCH   3  19
HETATM   19  C12 UNK     1      18.602   2.891  31.369  1.00  0.00     0.108 A 
HETATM   20  C15 UNK     1      18.360   2.155  32.630  1.00  0.00     0.304 A 
HETATM   21  O3  UNK     1      18.689   0.803  32.637  1.00  0.00    -0.274 OA
HETATM   22  O5  UNK     1      17.891   2.704  33.621  1.00  0.00    -0.259 OA
HETATM   23  C16 UNK     1      19.226   0.162  31.504  1.00  0.00     0.089 A 
HETATM   24  C14 UNK     1      19.446   0.872  30.329  1.00  0.00    -0.001 A 
HETATM   25  C19 UNK     1      19.523  -1.196  31.607  1.00  0.00     0.038 A 
HETATM   26  C13 UNK     1      19.113   2.288  30.289  1.00  0.00     0.037 A 
HETATM   27  C18 UNK     1      19.981   0.202  29.226  1.00  0.00     0.014 A 
HETATM   28  C20 UNK     1      20.285  -1.160  29.315  1.00  0.00     0.001 A 
HETATM   29  C21 UNK     1      20.056  -1.857  30.503  1.00  0.00     0.003 A 
ENDBRANCH   3  19
TORSDOF 4
ENDMDL
MODEL 5
REMARK VINA RESULT:      -9.4      6.592     12.339
REMARK  4 active torsions:
REMARK  status: ('A' for Active; 'I' for Inactive)
REMARK    1  A    between atoms: C10_17  and  O1_2 
REMARK       I    between atoms: C11_18  and  N1_7 
REMARK    2  A    between atoms: C9_16  and  N1_7 
REMARK    3  A    between atoms: C10_17  and  C8_15 
REMARK    4  A    between atoms: C11_18  and  C12_19 
ROOT
HETATM    1  O4  UNK     1      18.360  -5.612  36.492  1.00  0.00    -0.267 OA
HETATM    2  N1  UNK     1      20.095  -4.004  36.430  1.00  0.00    -0.316 N 
HETATM    3  C11 UNK     1      19.545  -5.303  36.521  1.00  0.00     0.262 C 
HETATM    4  H11 UNK     1      21.107  -3.922  36.484  1.00  0.00     0.169 HD
ENDROOT
BRANCH   2   5
HETATM    5  C9  UNK     1      19.446  -2.806  36.292  1.00  0.00     0.094 A 
HETATM    6  C8  UNK     1      19.426  -1.895  35.261  1.00  0.00     0.080 A 
HETATM    7  C5  UNK     1      18.602  -0.758  35.546  1.00  0.00    -0.026 A 
HETATM    8  C3  UNK     1      18.392   0.391  34.610  1.00  0.00     0.041 C 
HETATM    9  C7  UNK     1      18.025  -0.863  36.800  1.00  0.00    -0.008 A 
HETATM   10  C1  UNK     1      18.774   1.742  35.216  1.00  0.00     0.005 C 
HETATM   11  C2  UNK     1      17.769   2.278  36.241  1.00  0.00     0.001 C 
HETATM   12  C4  UNK     1      17.717   1.511  37.566  1.00  0.00     0.005 C 
HETATM   13  C6  UNK     1      17.102   0.116  37.461  1.00  0.00     0.046 C 
HETATM   14  S1  UNK     1      18.476  -2.305  37.604  1.00  0.00    -0.075 SA
BRANCH   6  15
HETATM   15  C10 UNK     1      20.175  -2.111  34.046  1.00  0.00     0.296 C 
HETATM   16  O2  UNK     1      21.386  -2.391  33.998  1.00  0.00    -0.259 OA
BRANCH  15  17
HETATM   17  O1  UNK     1      19.392  -1.972  32.929  1.00  0.00    -0.322 OA
HETATM   18  C17 UNK     1      20.054  -1.655  31.699  1.00  0.00     0.213 C 
ENDBRANCH  15  17
ENDBRANCH   6  15
ENDBRANCH   2   5
BRANCH   3  19
HETATM   19  C12 UNK     1      20.566  -6.362  36.662  1.00  0.00     0.108 A 
HETATM   20  C15 UNK     1      21.659  -6.272  37.656  1.00  0.00     0.304 A 
HETATM   21  O3  UNK     1      22.558  -7.333  37.693  1.00  0.00    -0.274 OA
HETATM   22  O5  UNK     1      21.770  -5.314  38.412  1.00  0.00    -0.259 OA
HETATM   23  C16 UNK     1      22.439  -8.440  36.829  1.00  0.00     0.089 A 
HETATM   24  C14 UNK     1      21.405  -8.504  35.902  1.00  0.00    -0.001 A 
HETATM   25  C19 UNK     1      23.388  -9.454  36.942  1.00  0.00     0.038 A 
HETATM   26  C13 UNK     1      20.447  -7.411  35.838  1.00  0.00     0.037 A 
HETATM   27  C18 UNK     1      21.320  -9.617  35.062  1.00  0.00     0.014 A 
HETATM   28  C20 UNK     1      22.265 -10.643  35.163  1.00  0.00     0.001 A 
HETATM   29  C21 UNK     1      23.297 -10.561  36.100  1.00  0.00     0.003 A 
ENDBRANCH   3  19
TORSDOF 4
ENDMDL
MODEL 6
REMARK VINA RESULT:      -9.4      7.236      9.997
REMARK  4 active torsions:
REMARK  status: ('A' for Active; 'I' for Inactive)
REMARK    1  A    between atoms: C10_17  and  O1_2 
REMARK       I    between atoms: C11_18  and  N1_7 
REMARK    2  A    between atoms: C9_16  and  N1_7 
REMARK    3  A    between atoms: C10_17  and  C8_15 
REMARK    4  A    between atoms: C11_18  and  C12_19 
ROOT
HETATM    1  O4  UNK     1      21.146  -4.189  37.150  1.00  0.00    -0.267 OA
HETATM    2  N1  UNK     1      19.641  -5.157  35.602  1.00  0.00    -0.316 N 
HETATM    3  C11 UNK     1      20.253  -4.102  36.315  1.00  0.00     0.262 C 
HETATM    4  H11 UNK     1      18.900  -4.911  34.950  1.00  0.00     0.169 HD
ENDROOT
BRANCH   2   5
HETATM    5  C9  UNK     1      19.894  -6.501  35.674  1.00  0.00     0.094 A 
HETATM    6  C8  UNK     1      19.434  -7.468  36.537  1.00  0.00     0.080 A 
HETATM    7  C5  UNK     1      19.969  -8.766  36.247  1.00  0.00    -0.026 A 
HETATM    8  C3  UNK     1      19.645 -10.008  37.020  1.00  0.00     0.041 C 
HETATM    9  C7  UNK     1      20.822  -8.721  35.158  1.00  0.00    -0.008 A 
HETATM   10  C1  UNK     1      20.881 -10.702  37.593  1.00  0.00     0.005 C 
HETATM   11  C2  UNK     1      21.716 -11.458  36.555  1.00  0.00     0.001 C 
HETATM   12  C4  UNK     1      22.471 -10.575  35.556  1.00  0.00     0.005 C 
HETATM   13  C6  UNK     1      21.574  -9.862  34.544  1.00  0.00     0.046 C 
HETATM   14  S1  UNK     1      20.965  -7.143  34.511  1.00  0.00    -0.075 SA
BRANCH   6  15
HETATM   15  C10 UNK     1      18.515  -7.155  37.605  1.00  0.00     0.296 C 
HETATM   16  O2  UNK     1      17.393  -6.641  37.448  1.00  0.00    -0.259 OA
BRANCH  15  17
HETATM   17  O1  UNK     1      19.020  -7.492  38.835  1.00  0.00    -0.322 OA
HETATM   18  C17 UNK     1      20.091  -6.692  39.346  1.00  0.00     0.213 C 
ENDBRANCH  15  17
ENDBRANCH   6  15
ENDBRANCH   2   5
BRANCH   3  19
HETATM   19  C12 UNK     1      19.714  -2.771  35.967  1.00  0.00     0.108 A 
HETATM   20  C15 UNK     1      19.924  -2.161  34.635  1.00  0.00     0.304 A 
HETATM   21  O3  UNK     1      19.366  -0.903  34.428  1.00  0.00    -0.274 OA
HETATM   22  O5  UNK     1      20.557  -2.733  33.754  1.00  0.00    -0.259 OA
HETATM   23  C16 UNK     1      18.637  -0.239  35.434  1.00  0.00     0.089 A 
HETATM   24  C14 UNK     1      18.452  -0.829  36.679  1.00  0.00    -0.001 A 
HETATM   25  C19 UNK     1      18.116   1.018  35.132  1.00  0.00     0.038 A 
HETATM   26  C13 UNK     1      19.022  -2.144  36.927  1.00  0.00     0.037 A 
HETATM   27  C18 UNK     1      17.723  -0.139  37.651  1.00  0.00     0.014 A 
HETATM   28  C20 UNK     1      17.195   1.123  37.364  1.00  0.00     0.001 A 
HETATM   29  C21 UNK     1      17.391   1.700  36.107  1.00  0.00     0.003 A 
ENDBRANCH   3  19
TORSDOF 4
ENDMDL
MODEL 7
REMARK VINA RESULT:      -9.4      7.603     10.346
REMARK  4 active torsions:
REMARK  status: ('A' for Active; 'I' for Inactive)
REMARK    1  A    between atoms: C10_17  and  O1_2 
REMARK       I    between atoms: C11_18  and  N1_7 
REMARK    2  A    between atoms: C9_16  and  N1_7 
REMARK    3  A    between atoms: C10_17  and  C8_15 
REMARK    4  A    between atoms: C11_18  and  C12_19 
ROOT
HETATM    1  O4  UNK     1      21.670  -3.860  37.183  1.00  0.00    -0.267 OA
HETATM    2  N1  UNK     1      19.586  -4.939  36.882  1.00  0.00    -0.316 N 
HETATM    3  C11 UNK     1      20.482  -3.845  36.886  1.00  0.00     0.262 C 
HETATM    4  H11 UNK     1      18.622  -4.750  36.621  1.00  0.00     0.169 HD
ENDROOT
BRANCH   2   5
HETATM    5  C9  UNK     1      19.829  -6.247  37.205  1.00  0.00     0.094 A 
HETATM    6  C8  UNK     1      19.988  -7.364  36.418  1.00  0.00     0.080 A 
HETATM    7  C5  UNK     1      20.227  -8.550  37.186  1.00  0.00    -0.026 A 
HETATM    8  C3  UNK     1      20.436  -9.912  36.598  1.00  0.00     0.041 C 
HETATM    9  C7  UNK     1      20.239  -8.272  38.542  1.00  0.00    -0.008 A 
HETATM   10  C1  UNK     1      19.443 -10.953  37.114  1.00  0.00     0.005 C 
HETATM   11  C2  UNK     1      19.718 -11.430  38.544  1.00  0.00     0.001 C 
HETATM   12  C4  UNK     1      19.456 -10.393  39.640  1.00  0.00     0.005 C 
HETATM   13  C6  UNK     1      20.458  -9.238  39.666  1.00  0.00     0.046 C 
HETATM   14  S1  UNK     1      19.968  -6.614  38.866  1.00  0.00    -0.075 SA
BRANCH   6  15
HETATM   15  C10 UNK     1      19.911  -7.293  34.978  1.00  0.00     0.296 C 
HETATM   16  O2  UNK     1      20.875  -7.447  34.207  1.00  0.00    -0.259 OA
BRANCH  15  17
HETATM   17  O1  UNK     1      18.636  -7.033  34.544  1.00  0.00    -0.322 OA
HETATM   18  C17 UNK     1      17.558  -7.605  35.292  1.00  0.00     0.213 C 
ENDBRANCH  15  17
ENDBRANCH   6  15
ENDBRANCH   2   5
BRANCH   3  19
HETATM   19  C12 UNK     1      19.853  -2.573  36.474  1.00  0.00     0.108 A 
HETATM   20  C15 UNK     1      20.072  -1.988  35.132  1.00  0.00     0.304 A 
HETATM   21  O3  UNK     1      19.425  -0.786  34.862  1.00  0.00    -0.274 OA
HETATM   22  O5  UNK     1      20.785  -2.531  34.296  1.00  0.00    -0.259 OA
HETATM   23  C16 UNK     1      18.602  -0.154  35.815  1.00  0.00     0.089 A 
HETATM   24  C14 UNK     1      18.410  -0.721  37.070  1.00  0.00    -0.001 A 
HETATM   25  C19 UNK     1      17.995   1.047  35.451  1.00  0.00     0.038 A 
HETATM   26  C13 UNK     1      19.073  -1.977  37.383  1.00  0.00     0.037 A 
HETATM   27  C18 UNK     1      17.588  -0.064  37.988  1.00  0.00     0.014 A 
HETATM   28  C20 UNK     1      16.973   1.142  37.638  1.00  0.00     0.001 A 
HETATM   29  C21 UNK     1      17.176   1.696  36.373  1.00  0.00     0.003 A 
ENDBRANCH   3  19
TORSDOF 4
ENDMDL
MODEL 8
REMARK VINA RESULT:      -9.1      6.821     12.238
REMARK  4 active torsions:
REMARK  status: ('A' for Active; 'I' for Inactive)
REMARK    1  A    between atoms: C10_17  and  O1_2 
REMARK       I    between atoms: C11_18  and  N1_7 
REMARK    2  A    between atoms: C9_16  and  N1_7 
REMARK    3  A    between atoms: C10_17  and  C8_15 
REMARK    4  A    between atoms: C11_18  and  C12_19 
ROOT
HETATM    1  O4  UNK     1      21.156  -4.161  37.233  1.00  0.00    -0.267 OA
HETATM    2  N1  UNK     1      19.014  -4.156  36.228  1.00  0.00    -0.316 N 
HETATM    3  C11 UNK     1      20.191  -4.740  36.749  1.00  0.00     0.262 C 
HETATM    4  H11 UNK     1      18.310  -4.785  35.849  1.00  0.00     0.169 HD
ENDROOT
BRANCH   2   5
HETATM    5  C9  UNK     1      18.680  -2.831  36.141  1.00  0.00     0.094 A 
HETATM    6  C8  UNK     1      19.095  -1.843  35.278  1.00  0.00     0.080 A 
HETATM    7  C5  UNK     1      18.483  -0.577  35.554  1.00  0.00    -0.026 A 
HETATM    8  C3  UNK     1      18.745   0.677  34.778  1.00  0.00     0.041 C 
HETATM    9  C7  UNK     1      17.617  -0.666  36.630  1.00  0.00    -0.008 A 
HETATM   10  C1  UNK     1      19.245   1.832  35.647  1.00  0.00     0.005 C 
HETATM   11  C2  UNK     1      18.161   2.485  36.510  1.00  0.00     0.001 C 
HETATM   12  C4  UNK     1      17.638   1.624  37.664  1.00  0.00     0.005 C 
HETATM   13  C6  UNK     1      16.788   0.432  37.224  1.00  0.00     0.046 C 
HETATM   14  S1  UNK     1      17.554  -2.247  37.283  1.00  0.00    -0.075 SA
BRANCH   6  15
HETATM   15  C10 UNK     1      20.048  -2.108  34.227  1.00  0.00     0.296 C 
HETATM   16  O2  UNK     1      21.240  -2.415  34.410  1.00  0.00    -0.259 OA
BRANCH  15  17
HETATM   17  O1  UNK     1      19.488  -1.982  32.981  1.00  0.00    -0.322 OA
HETATM   18  C17 UNK     1      20.381  -1.923  31.864  1.00  0.00     0.213 C 
ENDBRANCH  15  17
ENDBRANCH   6  15
ENDBRANCH   2   5
BRANCH   3  19
HETATM   19  C12 UNK     1      20.194  -6.216  36.676  1.00  0.00     0.108 A 
HETATM   20  C15 UNK     1      20.447  -6.939  35.409  1.00  0.00     0.304 A 
HETATM   21  O3  UNK     1      20.424  -8.329  35.468  1.00  0.00    -0.274 OA
HETATM   22  O5  UNK     1      20.668  -6.347  34.358  1.00  0.00    -0.259 OA
HETATM   23  C16 UNK     1      20.173  -9.018  36.671  1.00  0.00     0.089 A 
HETATM   24  C14 UNK     1      19.937  -8.320  37.849  1.00  0.00    -0.001 A 
HETATM   25  C19 UNK     1      20.172 -10.411  36.630  1.00  0.00     0.038 A 
HETATM   26  C13 UNK     1      19.954  -6.865  37.821  1.00  0.00     0.037 A 
HETATM   27  C18 UNK     1      19.691  -9.038  39.021  1.00  0.00     0.014 A 
HETATM   28  C20 UNK     1      19.686 -10.436  38.997  1.00  0.00     0.001 A 
HETATM   29  C21 UNK     1      19.925 -11.121  37.803  1.00  0.00     0.003 A 
ENDBRANCH   3  19
TORSDOF 4
ENDMDL
MODEL 9
REMARK VINA RESULT:      -9.0     15.425     18.584
REMARK  4 active torsions:
REMARK  status: ('A' for Active; 'I' for Inactive)
REMARK    1  A    between atoms: C10_17  and  O1_2 
REMARK       I    between atoms: C11_18  and  N1_7 
REMARK    2  A    between atoms: C9_16  and  N1_7 
REMARK    3  A    between atoms: C10_17  and  C8_15 
REMARK    4  A    between atoms: C11_18  and  C12_19 
ROOT
HETATM    1  O4  UNK     1      17.673  -2.136  16.005  1.00  0.00    -0.267 OA
HETATM    2  N1  UNK     1      19.591  -1.518  14.765  1.00  0.00    -0.316 N 
HETATM    3  C11 UNK     1      18.657  -1.429  15.822  1.00  0.00     0.262 C 
HETATM    4  H11 UNK     1      20.348  -0.839  14.755  1.00  0.00     0.169 HD
ENDROOT
BRANCH   2   5
HETATM    5  C9  UNK     1      19.617  -2.397  13.716  1.00  0.00     0.094 A 
HETATM    6  C8  UNK     1      19.978  -3.722  13.647  1.00  0.00     0.080 A 
HETATM    7  C5  UNK     1      19.854  -4.261  12.325  1.00  0.00    -0.026 A 
HETATM    8  C3  UNK     1      20.176  -5.675  11.952  1.00  0.00     0.041 C 
HETATM    9  C7  UNK     1      19.394  -3.302  11.438  1.00  0.00    -0.008 A 
HETATM   10  C1  UNK     1      21.223  -5.784  10.843  1.00  0.00     0.005 C 
HETATM   11  C2  UNK     1      20.696  -5.441   9.446  1.00  0.00     0.001 C 
HETATM   12  C4  UNK     1      20.367  -3.963   9.216  1.00  0.00     0.005 C 
HETATM   13  C6  UNK     1      19.132  -3.470   9.972  1.00  0.00     0.046 C 
HETATM   14  S1  UNK     1      19.124  -1.792  12.197  1.00  0.00    -0.075 SA
BRANCH   6  15
HETATM   15  C10 UNK     1      20.429  -4.445  14.812  1.00  0.00     0.296 C 
HETATM   16  O2  UNK     1      19.764  -5.305  15.417  1.00  0.00    -0.259 OA
BRANCH  15  17
HETATM   17  O1  UNK     1      21.696  -4.075  15.188  1.00  0.00    -0.322 OA
HETATM   18  C17 UNK     1      21.922  -3.832  16.581  1.00  0.00     0.213 C 
ENDBRANCH  15  17
ENDBRANCH   6  15
ENDBRANCH   2   5
BRANCH   3  19
HETATM   19  C12 UNK     1      18.958  -0.345  16.780  1.00  0.00     0.108 A 
HETATM   20  C15 UNK     1      19.259   1.034  16.336  1.00  0.00     0.304 A 
HETATM   21  O3  UNK     1      19.526   1.967  17.333  1.00  0.00    -0.274 OA
HETATM   22  O5  UNK     1      19.272   1.345  15.149  1.00  0.00    -0.259 OA
HETATM   23  C16 UNK     1      19.512   1.621  18.698  1.00  0.00     0.089 A 
HETATM   24  C14 UNK     1      19.228   0.319  19.094  1.00  0.00    -0.001 A 
HETATM   25  C19 UNK     1      19.792   2.625  19.624  1.00  0.00     0.038 A 
HETATM   26  C13 UNK     1      18.944  -0.680  18.075  1.00  0.00     0.037 A 
HETATM   27  C18 UNK     1      19.224   0.014  20.457  1.00  0.00     0.014 A 
HETATM   28  C20 UNK     1      19.503   1.011  21.397  1.00  0.00     0.001 A 
HETATM   29  C21 UNK     1      19.786   2.313  20.981  1.00  0.00     0.003 A 
ENDBRANCH   3  19
TORSDOF 4
ENDMDL
MODEL 10
REMARK VINA RESULT:      -8.9      2.418      8.664
REMARK  4 active torsions:
REMARK  status: ('A' for Active; 'I' for Inactive)
REMARK    1  A    between atoms: C10_17  and  O1_2 
REMARK       I    between atoms: C11_18  and  N1_7 
REMARK    2  A    between atoms: C9_16  and  N1_7 
REMARK    3  A    between atoms: C10_17  and  C8_15 
REMARK    4  A    between atoms: C11_18  and  C12_19 
ROOT
HETATM    1  O4  UNK     1      17.567   3.463  32.909  1.00  0.00    -0.267 OA
HETATM    2  N1  UNK     1      19.025   4.942  31.775  1.00  0.00    -0.316 N 
HETATM    3  C11 UNK     1      18.360   3.717  32.011  1.00  0.00     0.262 C 
HETATM    4  H11 UNK     1      19.666   4.980  30.987  1.00  0.00     0.169 HD
ENDROOT
BRANCH   2   5
HETATM    5  C9  UNK     1      18.943   6.111  32.483  1.00  0.00     0.094 A 
HETATM    6  C8  UNK     1      17.986   7.100  32.499  1.00  0.00     0.080 A 
HETATM    7  C5  UNK     1      18.310   8.166  33.400  1.00  0.00    -0.026 A 
HETATM    8  C3  UNK     1      17.454   9.374  33.625  1.00  0.00     0.041 C 
HETATM    9  C7  UNK     1      19.516   7.931  34.036  1.00  0.00    -0.008 A 
HETATM   10  C1  UNK     1      18.183  10.690  33.353  1.00  0.00     0.005 C 
HETATM   11  C2  UNK     1      19.187  11.089  34.440  1.00  0.00     0.001 C 
HETATM   12  C4  UNK     1      20.444  10.217  34.518  1.00  0.00     0.005 C 
HETATM   13  C6  UNK     1      20.197   8.804  35.047  1.00  0.00     0.046 C 
HETATM   14  S1  UNK     1      20.231   6.455  33.548  1.00  0.00    -0.075 SA
BRANCH   6  15
HETATM   15  C10 UNK     1      16.803   7.022  31.676  1.00  0.00     0.296 C 
HETATM   16  O2  UNK     1      16.737   7.393  30.490  1.00  0.00    -0.259 OA
BRANCH  15  17
HETATM   17  O1  UNK     1      15.739   6.483  32.353  1.00  0.00    -0.322 OA
HETATM   18  C17 UNK     1      14.501   7.200  32.309  1.00  0.00     0.213 C 
ENDBRANCH  15  17
ENDBRANCH   6  15
ENDBRANCH   2   5
BRANCH   3  19
HETATM   19  C12 UNK     1      18.701   2.668  31.027  1.00  0.00     0.108 A 
HETATM   20  C15 UNK     1      18.587   2.892  29.569  1.00  0.00     0.304 A 
HETATM   21  O3  UNK     1      18.938   1.828  28.743  1.00  0.00    -0.274 OA
HETATM   22  O5  UNK     1      18.205   3.961  29.105  1.00  0.00    -0.259 OA
HETATM   23  C16 UNK     1      19.379   0.596  29.266  1.00  0.00     0.089 A 
HETATM   24  C14 UNK     1      19.478   0.406  30.640  1.00  0.00    -0.001 A 
HETATM   25  C19 UNK     1      19.708  -0.410  28.360  1.00  0.00     0.038 A 
HETATM   26  C13 UNK     1      19.119   1.500  31.529  1.00  0.00     0.037 A 
HETATM   27  C18 UNK     1      19.919  -0.829  31.119  1.00  0.00     0.014 A 
HETATM   28  C20 UNK     1      20.252  -1.849  30.223  1.00  0.00     0.001 A 
HETATM   29  C21 UNK     1      20.147  -1.640  28.846  1.00  0.00     0.003 A 
ENDBRANCH   3  19
TORSDOF 4
ENDMDL
