MODEL 1
REMARK VINA RESULT:      -9.3      0.000      0.000
REMARK  4 active torsions:
REMARK  status: ('A' for Active; 'I' for Inactive)
REMARK    1  A    between atoms: C2_6  and  N1_4 
REMARK       I    between atoms: C8_12  and  N1_4 
REMARK    2  A    between atoms: C8_12  and  C9_13 
REMARK    3  A    between atoms: C14_18  and  C16_20 
REMARK    4  A    between atoms: C16_20  and  C19_23 
ROOT
HETATM    1  O2  UNK     1      19.350  -1.064  34.834  1.00  0.00    -0.273 OA
HETATM    2  O3  UNK     1      20.571  -2.891  34.206  1.00  0.00    -0.259 OA
HETATM    3  C9  UNK     1      19.751  -2.873  36.429  1.00  0.00     0.108 A 
HETATM    4  C10 UNK     1      19.056  -2.229  37.374  1.00  0.00     0.037 A 
HETATM    5  C11 UNK     1      18.458  -0.934  37.091  1.00  0.00    -0.000 A 
HETATM    6  C12 UNK     1      19.936  -2.303  35.076  1.00  0.00     0.304 A 
HETATM    7  C13 UNK     1      18.618  -0.381  35.824  1.00  0.00     0.096 A 
HETATM    8  C14 UNK     1      18.070   0.856  35.488  1.00  0.00    -0.020 A 
HETATM    9  C15 UNK     1      17.726  -0.226  38.047  1.00  0.00     0.014 A 
HETATM   10  C17 UNK     1      17.342   1.554  36.448  1.00  0.00     0.010 A 
HETATM   11  C18 UNK     1      17.170   1.016  37.725  1.00  0.00     0.002 A 
ENDROOT
BRANCH   3  12
HETATM   12  C8  UNK     1      20.319  -4.177  36.813  1.00  0.00     0.258 C 
HETATM   13  O1  UNK     1      21.510  -4.285  37.087  1.00  0.00    -0.267 OA
HETATM   14  N1  UNK     1      19.378  -5.189  36.814  1.00  0.00    -0.352 N 
HETATM   15  H14 UNK     1      18.416  -4.993  36.553  1.00  0.00     0.163 HD
BRANCH  14  16
HETATM   16  C2  UNK     1      19.701  -6.574  37.159  1.00  0.00     0.084 C 
HETATM   17  C5  UNK     1      18.713  -7.523  36.473  1.00  0.00     0.025 C 
HETATM   18  C3  UNK     1      18.984  -8.979  36.850  1.00  0.00     0.006 C 
HETATM   19  C1  UNK     1      18.971  -9.180  38.371  1.00  0.00    -0.019 C 
HETATM   20  C4  UNK     1      19.954  -8.224  39.058  1.00  0.00     0.006 C 
HETATM   21  C7  UNK     1      19.294 -10.631  38.725  1.00  0.00     0.010 C 
HETATM   22  C6  UNK     1      19.684  -6.768  38.679  1.00  0.00     0.025 C 
ENDBRANCH  14  16
ENDBRANCH   3  12
BRANCH   8  23
HETATM   23  C16 UNK     1      18.249   1.441  34.128  1.00  0.00     0.067 C 
BRANCH  23  24
HETATM   24  C19 UNK     1      18.253   2.948  34.131  1.00  0.00    -0.032 C 
HETATM   25  C20 UNK     1      18.180   3.702  33.028  1.00  0.00     0.007 C 
ENDBRANCH  23  24
ENDBRANCH   8  23
TORSDOF 4
ENDMDL
MODEL 2
REMARK VINA RESULT:      -8.9      2.767      4.182
REMARK  4 active torsions:
REMARK  status: ('A' for Active; 'I' for Inactive)
REMARK    1  A    between atoms: C2_6  and  N1_4 
REMARK       I    between atoms: C8_12  and  N1_4 
REMARK    2  A    between atoms: C8_12  and  C9_13 
REMARK    3  A    between atoms: C14_18  and  C16_20 
REMARK    4  A    between atoms: C16_20  and  C19_23 
ROOT
HETATM    1  O2  UNK     1      19.054  -0.176  33.280  1.00  0.00    -0.273 OA
HETATM    2  O3  UNK     1      18.577  -0.195  35.515  1.00  0.00    -0.259 OA
HETATM    3  C9  UNK     1      19.736  -2.076  34.660  1.00  0.00     0.108 A 
HETATM    4  C10 UNK     1      20.282  -2.684  33.600  1.00  0.00     0.037 A 
HETATM    5  C11 UNK     1      20.240  -2.053  32.290  1.00  0.00    -0.000 A 
HETATM    6  C12 UNK     1      19.078  -0.756  34.545  1.00  0.00     0.304 A 
HETATM    7  C13 UNK     1      19.626  -0.810  32.161  1.00  0.00     0.096 A 
HETATM    8  C14 UNK     1      19.553  -0.152  30.935  1.00  0.00    -0.020 A 
HETATM    9  C15 UNK     1      20.795  -2.651  31.157  1.00  0.00     0.014 A 
HETATM   10  C17 UNK     1      20.109  -0.756  29.810  1.00  0.00     0.010 A 
HETATM   11  C18 UNK     1      20.729  -2.003  29.919  1.00  0.00     0.002 A 
ENDROOT
BRANCH   3  12
HETATM   12  C8  UNK     1      19.829  -2.796  35.943  1.00  0.00     0.258 C 
HETATM   13  O1  UNK     1      20.196  -2.216  36.959  1.00  0.00    -0.267 OA
HETATM   14  N1  UNK     1      19.471  -4.126  35.836  1.00  0.00    -0.352 N 
HETATM   15  H14 UNK     1      19.197  -4.511  34.937  1.00  0.00     0.163 HD
BRANCH  14  16
HETATM   16  C2  UNK     1      19.485  -5.046  36.974  1.00  0.00     0.084 C 
HETATM   17  C5  UNK     1      20.923  -5.487  37.265  1.00  0.00     0.025 C 
HETATM   18  C3  UNK     1      20.975  -6.492  38.415  1.00  0.00     0.006 C 
HETATM   19  C1  UNK     1      20.073  -7.704  38.149  1.00  0.00    -0.019 C 
HETATM   20  C4  UNK     1      18.636  -7.261  37.849  1.00  0.00     0.006 C 
HETATM   21  C7  UNK     1      20.104  -8.669  39.334  1.00  0.00     0.010 C 
HETATM   22  C6  UNK     1      18.584  -6.255  36.699  1.00  0.00     0.025 C 
ENDBRANCH  14  16
ENDBRANCH   3  12
BRANCH   8  23
HETATM   23  C16 UNK     1      18.892   1.179  30.806  1.00  0.00     0.067 C 
BRANCH  23  24
HETATM   24  C19 UNK     1      18.923   1.718  29.399  1.00  0.00    -0.032 C 
HETATM   25  C20 UNK     1      17.833   1.949  28.659  1.00  0.00     0.007 C 
ENDBRANCH  23  24
ENDBRANCH   8  23
TORSDOF 4
ENDMDL
MODEL 3
REMARK VINA RESULT:      -8.7      1.867      8.684
REMARK  4 active torsions:
REMARK  status: ('A' for Active; 'I' for Inactive)
REMARK    1  A    between atoms: C2_6  and  N1_4 
REMARK       I    between atoms: C8_12  and  N1_4 
REMARK    2  A    between atoms: C8_12  and  C9_13 
REMARK    3  A    between atoms: C14_18  and  C16_20 
REMARK    4  A    between atoms: C16_20  and  C19_23 
ROOT
HETATM    1  O2  UNK     1      19.053  -7.321  37.634  1.00  0.00    -0.273 OA
HETATM    2  O3  UNK     1      17.790  -5.890  36.376  1.00  0.00    -0.259 OA
HETATM    3  C9  UNK     1      19.813  -5.027  37.258  1.00  0.00     0.108 A 
HETATM    4  C10 UNK     1      20.916  -5.246  37.985  1.00  0.00     0.037 A 
HETATM    5  C11 UNK     1      21.149  -6.547  38.591  1.00  0.00    -0.000 A 
HETATM    6  C12 UNK     1      18.802  -6.086  37.043  1.00  0.00     0.304 A 
HETATM    7  C13 UNK     1      20.211  -7.557  38.400  1.00  0.00     0.096 A 
HETATM    8  C14 UNK     1      20.375  -8.825  38.953  1.00  0.00    -0.020 A 
HETATM    9  C15 UNK     1      22.284  -6.818  39.358  1.00  0.00     0.014 A 
HETATM   10  C17 UNK     1      21.510  -9.087  39.716  1.00  0.00     0.010 A 
HETATM   11  C18 UNK     1      22.463  -8.087  39.919  1.00  0.00     0.002 A 
ENDROOT
BRANCH   3  12
HETATM   12  C8  UNK     1      19.666  -3.677  36.686  1.00  0.00     0.258 C 
HETATM   13  O1  UNK     1      20.618  -3.118  36.150  1.00  0.00    -0.267 OA
HETATM   14  N1  UNK     1      18.390  -3.169  36.836  1.00  0.00    -0.352 N 
HETATM   15  H14 UNK     1      17.677  -3.712  37.314  1.00  0.00     0.163 HD
BRANCH  14  16
HETATM   16  C2  UNK     1      18.000  -1.845  36.351  1.00  0.00     0.084 C 
HETATM   17  C5  UNK     1      18.812  -1.492  35.101  1.00  0.00     0.025 C 
HETATM   18  C3  UNK     1      18.471  -0.091  34.593  1.00  0.00     0.006 C 
HETATM   19  C1  UNK     1      18.658   0.968  35.686  1.00  0.00    -0.019 C 
HETATM   20  C4  UNK     1      17.852   0.609  36.941  1.00  0.00     0.006 C 
HETATM   21  C7  UNK     1      18.264   2.351  35.170  1.00  0.00     0.010 C 
HETATM   22  C6  UNK     1      18.192  -0.792  37.448  1.00  0.00     0.025 C 
ENDBRANCH  14  16
ENDBRANCH   3  12
BRANCH   8  23
HETATM   23  C16 UNK     1      19.364  -9.901  38.744  1.00  0.00     0.067 C 
BRANCH  23  24
HETATM   24  C19 UNK     1      19.851 -11.000  37.835  1.00  0.00    -0.032 C 
HETATM   25  C20 UNK     1      20.579 -10.794  36.731  1.00  0.00     0.007 C 
ENDBRANCH  23  24
ENDBRANCH   8  23
TORSDOF 4
ENDMDL
MODEL 4
REMARK VINA RESULT:      -8.6      1.987      8.603
REMARK  4 active torsions:
REMARK  status: ('A' for Active; 'I' for Inactive)
REMARK    1  A    between atoms: C2_6  and  N1_4 
REMARK       I    between atoms: C8_12  and  N1_4 
REMARK    2  A    between atoms: C8_12  and  C9_13 
REMARK    3  A    between atoms: C14_18  and  C16_20 
REMARK    4  A    between atoms: C16_20  and  C19_23 
ROOT
HETATM    1  O2  UNK     1      20.294  -7.571  35.770  1.00  0.00    -0.273 OA
HETATM    2  O3  UNK     1      20.286  -5.735  34.409  1.00  0.00    -0.259 OA
HETATM    3  C9  UNK     1      20.130  -5.331  36.738  1.00  0.00     0.108 A 
HETATM    4  C10 UNK     1      20.083  -5.841  37.975  1.00  0.00     0.037 A 
HETATM    5  C11 UNK     1      20.139  -7.280  38.178  1.00  0.00    -0.000 A 
HETATM    6  C12 UNK     1      20.241  -6.198  35.544  1.00  0.00     0.304 A 
HETATM    7  C13 UNK     1      20.245  -8.113  37.068  1.00  0.00     0.096 A 
HETATM    8  C14 UNK     1      20.303  -9.499  37.195  1.00  0.00    -0.020 A 
HETATM    9  C15 UNK     1      20.092  -7.855  39.450  1.00  0.00     0.014 A 
HETATM   10  C17 UNK     1      20.256 -10.064  38.467  1.00  0.00     0.010 A 
HETATM   11  C18 UNK     1      20.150  -9.245  39.593  1.00  0.00     0.002 A 
ENDROOT
BRANCH   3  12
HETATM   12  C8  UNK     1      20.066  -3.863  36.636  1.00  0.00     0.258 C 
HETATM   13  O1  UNK     1      21.090  -3.200  36.503  1.00  0.00    -0.267 OA
HETATM   14  N1  UNK     1      18.774  -3.378  36.709  1.00  0.00    -0.352 N 
HETATM   15  H14 UNK     1      17.995  -4.016  36.838  1.00  0.00     0.163 HD
BRANCH  14  16
HETATM   16  C2  UNK     1      18.456  -1.952  36.634  1.00  0.00     0.084 C 
HETATM   17  C5  UNK     1      18.272  -1.387  38.047  1.00  0.00     0.025 C 
HETATM   18  C3  UNK     1      17.885   0.091  38.010  1.00  0.00     0.006 C 
HETATM   19  C1  UNK     1      16.631   0.327  37.157  1.00  0.00    -0.019 C 
HETATM   20  C4  UNK     1      16.813  -0.247  35.746  1.00  0.00     0.006 C 
HETATM   21  C7  UNK     1      16.294   1.816  37.095  1.00  0.00     0.010 C 
HETATM   22  C6  UNK     1      17.201  -1.725  35.784  1.00  0.00     0.025 C 
ENDBRANCH  14  16
ENDBRANCH   3  12
BRANCH   8  23
HETATM   23  C16 UNK     1      20.415 -10.384  36.000  1.00  0.00     0.067 C 
BRANCH  23  24
HETATM   24  C19 UNK     1      21.807 -10.424  35.424  1.00  0.00    -0.032 C 
HETATM   25  C20 UNK     1      22.815 -11.136  35.943  1.00  0.00     0.007 C 
ENDBRANCH  23  24
ENDBRANCH   8  23
TORSDOF 4
ENDMDL
MODEL 5
REMARK VINA RESULT:      -8.4      5.292     11.468
REMARK  4 active torsions:
REMARK  status: ('A' for Active; 'I' for Inactive)
REMARK    1  A    between atoms: C2_6  and  N1_4 
REMARK       I    between atoms: C8_12  and  N1_4 
REMARK    2  A    between atoms: C8_12  and  C9_13 
REMARK    3  A    between atoms: C14_18  and  C16_20 
REMARK    4  A    between atoms: C16_20  and  C19_23 
ROOT
HETATM    1  O2  UNK     1      18.655   1.004  32.576  1.00  0.00    -0.273 OA
HETATM    2  O3  UNK     1      17.896   2.954  33.494  1.00  0.00    -0.259 OA
HETATM    3  C9  UNK     1      18.664   3.061  31.255  1.00  0.00     0.108 A 
HETATM    4  C10 UNK     1      19.180   2.415  30.203  1.00  0.00     0.037 A 
HETATM    5  C11 UNK     1      19.469   0.992  30.285  1.00  0.00    -0.000 A 
HETATM    6  C12 UNK     1      18.370   2.365  32.527  1.00  0.00     0.304 A 
HETATM    7  C13 UNK     1      19.198   0.318  31.473  1.00  0.00     0.096 A 
HETATM    8  C14 UNK     1      19.451  -1.045  31.616  1.00  0.00    -0.020 A 
HETATM    9  C15 UNK     1      20.008   0.277  29.213  1.00  0.00     0.014 A 
HETATM   10  C17 UNK     1      19.989  -1.749  30.542  1.00  0.00     0.010 A 
HETATM   11  C18 UNK     1      20.267  -1.091  29.343  1.00  0.00     0.002 A 
ENDROOT
BRANCH   3  12
HETATM   12  C8  UNK     1      18.407   4.501  31.073  1.00  0.00     0.258 C 
HETATM   13  O1  UNK     1      18.910   5.112  30.136  1.00  0.00    -0.267 OA
HETATM   14  N1  UNK     1      17.578   5.023  32.048  1.00  0.00    -0.352 N 
HETATM   15  H14 UNK     1      17.229   4.428  32.794  1.00  0.00     0.163 HD
BRANCH  14  16
HETATM   16  C2  UNK     1      17.180   6.430  32.082  1.00  0.00     0.084 C 
HETATM   17  C5  UNK     1      18.023   7.182  33.117  1.00  0.00     0.025 C 
HETATM   18  C3  UNK     1      17.601   8.647  33.222  1.00  0.00     0.006 C 
HETATM   19  C1  UNK     1      16.104   8.784  33.529  1.00  0.00    -0.019 C 
HETATM   20  C4  UNK     1      15.262   8.023  32.498  1.00  0.00     0.006 C 
HETATM   21  C7  UNK     1      15.697  10.256  33.579  1.00  0.00     0.010 C 
HETATM   22  C6  UNK     1      15.685   6.559  32.393  1.00  0.00     0.025 C 
ENDBRANCH  14  16
ENDBRANCH   3  12
BRANCH   8  23
HETATM   23  C16 UNK     1      19.159  -1.758  32.893  1.00  0.00     0.067 C 
BRANCH  23  24
HETATM   24  C19 UNK     1      20.393  -2.329  33.544  1.00  0.00    -0.032 C 
HETATM   25  C20 UNK     1      20.515  -2.550  34.859  1.00  0.00     0.007 C 
ENDBRANCH  23  24
ENDBRANCH   8  23
TORSDOF 4
ENDMDL
MODEL 6
REMARK VINA RESULT:      -8.4     19.653     22.642
REMARK  4 active torsions:
REMARK  status: ('A' for Active; 'I' for Inactive)
REMARK    1  A    between atoms: C2_6  and  N1_4 
REMARK       I    between atoms: C8_12  and  N1_4 
REMARK    2  A    between atoms: C8_12  and  C9_13 
REMARK    3  A    between atoms: C14_18  and  C16_20 
REMARK    4  A    between atoms: C16_20  and  C19_23 
ROOT
HETATM    1  O2  UNK     1      19.648  -1.877  12.772  1.00  0.00    -0.273 OA
HETATM    2  O3  UNK     1      19.439  -0.070  14.155  1.00  0.00    -0.259 OA
HETATM    3  C9  UNK     1      18.652  -2.143  14.990  1.00  0.00     0.108 A 
HETATM    4  C10 UNK     1      18.469  -3.452  14.780  1.00  0.00     0.037 A 
HETATM    5  C11 UNK     1      18.875  -4.057  13.521  1.00  0.00    -0.000 A 
HETATM    6  C12 UNK     1      19.268  -1.270  13.966  1.00  0.00     0.304 A 
HETATM    7  C13 UNK     1      19.457  -3.254  12.545  1.00  0.00     0.096 A 
HETATM    8  C14 UNK     1      19.868  -3.772  11.318  1.00  0.00    -0.020 A 
HETATM    9  C15 UNK     1      18.701  -5.418  13.259  1.00  0.00     0.014 A 
HETATM   10  C17 UNK     1      19.691  -5.130  11.065  1.00  0.00     0.010 A 
HETATM   11  C18 UNK     1      19.109  -5.952  12.032  1.00  0.00     0.002 A 
ENDROOT
BRANCH   3  12
HETATM   12  C8  UNK     1      18.208  -1.624  16.296  1.00  0.00     0.258 C 
HETATM   13  O1  UNK     1      17.144  -1.989  16.785  1.00  0.00    -0.267 OA
HETATM   14  N1  UNK     1      19.103  -0.726  16.846  1.00  0.00    -0.352 N 
HETATM   15  H14 UNK     1      19.951  -0.479  16.346  1.00  0.00     0.163 HD
BRANCH  14  16
HETATM   16  C2  UNK     1      18.881  -0.074  18.137  1.00  0.00     0.084 C 
HETATM   17  C5  UNK     1      19.026   1.444  17.982  1.00  0.00     0.025 C 
HETATM   18  C3  UNK     1      18.854   2.160  19.321  1.00  0.00     0.006 C 
HETATM   19  C1  UNK     1      19.825   1.621  20.379  1.00  0.00    -0.019 C 
HETATM   20  C4  UNK     1      19.685   0.101  20.527  1.00  0.00     0.006 C 
HETATM   21  C7  UNK     1      19.600   2.317  21.721  1.00  0.00     0.010 C 
HETATM   22  C6  UNK     1      19.856  -0.615  19.188  1.00  0.00     0.025 C 
ENDBRANCH  14  16
ENDBRANCH   3  12
BRANCH   8  23
HETATM   23  C16 UNK     1      20.490  -2.903  10.278  1.00  0.00     0.067 C 
BRANCH  23  24
HETATM   24  C19 UNK     1      20.995  -3.678   9.088  1.00  0.00    -0.032 C 
HETATM   25  C20 UNK     1      22.273  -3.697   8.691  1.00  0.00     0.007 C 
ENDBRANCH  23  24
ENDBRANCH   8  23
TORSDOF 4
ENDMDL
MODEL 7
REMARK VINA RESULT:      -8.2      8.227     10.514
REMARK  4 active torsions:
REMARK  status: ('A' for Active; 'I' for Inactive)
REMARK    1  A    between atoms: C2_6  and  N1_4 
REMARK       I    between atoms: C8_12  and  N1_4 
REMARK    2  A    between atoms: C8_12  and  C9_13 
REMARK    3  A    between atoms: C14_18  and  C16_20 
REMARK    4  A    between atoms: C16_20  and  C19_23 
ROOT
HETATM    1  O2  UNK     1      18.925   7.913  33.225  1.00  0.00    -0.273 OA
HETATM    2  O3  UNK     1      20.215   6.154  32.543  1.00  0.00    -0.259 OA
HETATM    3  C9  UNK     1      17.929   5.695  32.963  1.00  0.00     0.108 A 
HETATM    4  C10 UNK     1      16.731   6.159  33.338  1.00  0.00     0.037 A 
HETATM    5  C11 UNK     1      16.564   7.561  33.686  1.00  0.00    -0.000 A 
HETATM    6  C12 UNK     1      19.116   6.576  32.887  1.00  0.00     0.304 A 
HETATM    7  C13 UNK     1      17.667   8.407  33.621  1.00  0.00     0.096 A 
HETATM    8  C14 UNK     1      17.574   9.760  33.941  1.00  0.00    -0.020 A 
HETATM    9  C15 UNK     1      15.333   8.089  34.084  1.00  0.00     0.014 A 
HETATM   10  C17 UNK     1      16.343  10.278  34.336  1.00  0.00     0.010 A 
HETATM   11  C18 UNK     1      15.225   9.445  34.408  1.00  0.00     0.002 A 
ENDROOT
BRANCH   3  12
HETATM   12  C8  UNK     1      17.997   4.261  32.630  1.00  0.00     0.258 C 
HETATM   13  O1  UNK     1      17.993   3.412  33.516  1.00  0.00    -0.267 OA
HETATM   14  N1  UNK     1      18.065   4.031  31.270  1.00  0.00    -0.352 N 
HETATM   15  H14 UNK     1      18.080   4.811  30.620  1.00  0.00     0.163 HD
BRANCH  14  16
HETATM   16  C2  UNK     1      18.142   2.688  30.694  1.00  0.00     0.084 C 
HETATM   17  C5  UNK     1      19.402   1.979  31.201  1.00  0.00     0.025 C 
HETATM   18  C3  UNK     1      19.548   0.590  30.580  1.00  0.00     0.006 C 
HETATM   19  C1  UNK     1      19.533   0.651  29.047  1.00  0.00    -0.019 C 
HETATM   20  C4  UNK     1      18.276   1.370  28.541  1.00  0.00     0.006 C 
HETATM   21  C7  UNK     1      19.630  -0.752  28.451  1.00  0.00     0.010 C 
HETATM   22  C6  UNK     1      18.130   2.758  29.163  1.00  0.00     0.025 C 
ENDBRANCH  14  16
ENDBRANCH   3  12
BRANCH   8  23
HETATM   23  C16 UNK     1      18.762  10.659  33.869  1.00  0.00     0.067 C 
BRANCH  23  24
HETATM   24  C19 UNK     1      18.453  12.077  34.274  1.00  0.00    -0.032 C 
HETATM   25  C20 UNK     1      18.508  13.125  33.443  1.00  0.00     0.007 C 
ENDBRANCH  23  24
ENDBRANCH   8  23
TORSDOF 4
ENDMDL
MODEL 8
REMARK VINA RESULT:      -8.2      8.412     11.819
REMARK  4 active torsions:
REMARK  status: ('A' for Active; 'I' for Inactive)
REMARK    1  A    between atoms: C2_6  and  N1_4 
REMARK       I    between atoms: C8_12  and  N1_4 
REMARK    2  A    between atoms: C8_12  and  C9_13 
REMARK    3  A    between atoms: C14_18  and  C16_20 
REMARK    4  A    between atoms: C16_20  and  C19_23 
ROOT
HETATM    1  O2  UNK     1      24.659  -8.492  37.388  1.00  0.00    -0.273 OA
HETATM    2  O3  UNK     1      26.194  -7.170  38.446  1.00  0.00    -0.259 OA
HETATM    3  C9  UNK     1      26.927  -9.321  37.775  1.00  0.00     0.108 A 
HETATM    4  C10 UNK     1      26.631 -10.485  37.184  1.00  0.00     0.037 A 
HETATM    5  C11 UNK     1      25.298 -10.720  36.653  1.00  0.00    -0.000 A 
HETATM    6  C12 UNK     1      25.925  -8.239  37.907  1.00  0.00     0.304 A 
HETATM    7  C13 UNK     1      24.341  -9.715  36.767  1.00  0.00     0.096 A 
HETATM    8  C14 UNK     1      23.046  -9.877  36.278  1.00  0.00    -0.020 A 
HETATM    9  C15 UNK     1      24.944 -11.920  36.031  1.00  0.00     0.014 A 
HETATM   10  C17 UNK     1      22.702 -11.076  35.659  1.00  0.00     0.010 A 
HETATM   11  C18 UNK     1      23.648 -12.096  35.536  1.00  0.00     0.002 A 
ENDROOT
BRANCH   3  12
HETATM   12  C8  UNK     1      28.304  -9.179  38.281  1.00  0.00     0.258 C 
HETATM   13  O1  UNK     1      28.717  -9.904  39.180  1.00  0.00    -0.267 OA
HETATM   14  N1  UNK     1      29.008  -8.177  37.641  1.00  0.00    -0.352 N 
HETATM   15  H14 UNK     1      28.561  -7.621  36.917  1.00  0.00     0.163 HD
BRANCH  14  16
HETATM   16  C2  UNK     1      30.393  -7.844  37.971  1.00  0.00     0.084 C 
HETATM   17  C5  UNK     1      30.559  -6.322  38.038  1.00  0.00     0.025 C 
HETATM   18  C3  UNK     1      32.007  -5.931  38.329  1.00  0.00     0.006 C 
HETATM   19  C1  UNK     1      32.974  -6.543  37.308  1.00  0.00    -0.019 C 
HETATM   20  C4  UNK     1      32.802  -8.066  37.234  1.00  0.00     0.006 C 
HETATM   21  C7  UNK     1      34.419  -6.180  37.648  1.00  0.00     0.010 C 
HETATM   22  C6  UNK     1      31.353  -8.456  36.945  1.00  0.00     0.025 C 
ENDBRANCH  14  16
ENDBRANCH   3  12
BRANCH   8  23
HETATM   23  C16 UNK     1      22.027  -8.795  36.405  1.00  0.00     0.067 C 
BRANCH  23  24
HETATM   24  C19 UNK     1      21.169  -8.647  35.176  1.00  0.00    -0.032 C 
HETATM   25  C20 UNK     1      20.538  -7.518  34.831  1.00  0.00     0.007 C 
ENDBRANCH  23  24
ENDBRANCH   8  23
TORSDOF 4
ENDMDL
MODEL 9
REMARK VINA RESULT:      -8.1      5.823     11.395
REMARK  4 active torsions:
REMARK  status: ('A' for Active; 'I' for Inactive)
REMARK    1  A    between atoms: C2_6  and  N1_4 
REMARK       I    between atoms: C8_12  and  N1_4 
REMARK    2  A    between atoms: C8_12  and  C9_13 
REMARK    3  A    between atoms: C14_18  and  C16_20 
REMARK    4  A    between atoms: C16_20  and  C19_23 
ROOT
HETATM    1  O2  UNK     1      18.298   1.604  32.156  1.00  0.00    -0.273 OA
HETATM    2  O3  UNK     1      18.203   3.258  30.582  1.00  0.00    -0.259 OA
HETATM    3  C9  UNK     1      18.271   3.950  32.846  1.00  0.00     0.108 A 
HETATM    4  C10 UNK     1      18.328   3.598  34.137  1.00  0.00     0.037 A 
HETATM    5  C11 UNK     1      18.372   2.194  34.513  1.00  0.00    -0.000 A 
HETATM    6  C12 UNK     1      18.253   2.939  31.765  1.00  0.00     0.304 A 
HETATM    7  C13 UNK     1      18.357   1.228  33.512  1.00  0.00     0.096 A 
HETATM    8  C14 UNK     1      18.398  -0.134  33.805  1.00  0.00    -0.020 A 
HETATM    9  C15 UNK     1      18.430   1.782  35.846  1.00  0.00     0.014 A 
HETATM   10  C17 UNK     1      18.455  -0.536  35.138  1.00  0.00     0.010 A 
HETATM   11  C18 UNK     1      18.471   0.419  36.157  1.00  0.00     0.002 A 
ENDROOT
BRANCH   3  12
HETATM   12  C8  UNK     1      18.230   5.396  32.567  1.00  0.00     0.258 C 
HETATM   13  O1  UNK     1      19.096   5.925  31.878  1.00  0.00    -0.267 OA
HETATM   14  N1  UNK     1      17.148   6.023  33.156  1.00  0.00    -0.352 N 
HETATM   15  H14 UNK     1      16.496   5.491  33.724  1.00  0.00     0.163 HD
BRANCH  14  16
HETATM   16  C2  UNK     1      16.893   7.458  33.024  1.00  0.00     0.084 C 
HETATM   17  C5  UNK     1      17.761   8.232  34.022  1.00  0.00     0.025 C 
HETATM   18  C3  UNK     1      17.485   9.734  33.953  1.00  0.00     0.006 C 
HETATM   19  C1  UNK     1      15.998  10.046  34.162  1.00  0.00    -0.019 C 
HETATM   20  C4  UNK     1      15.130   9.263  33.169  1.00  0.00     0.006 C 
HETATM   21  C7  UNK     1      15.740  11.546  34.039  1.00  0.00     0.010 C 
HETATM   22  C6  UNK     1      15.406   7.762  33.238  1.00  0.00     0.025 C 
ENDBRANCH  14  16
ENDBRANCH   3  12
BRANCH   8  23
HETATM   23  C16 UNK     1      18.380  -1.162  32.725  1.00  0.00     0.067 C 
BRANCH  23  24
HETATM   24  C19 UNK     1      19.759  -1.620  32.325  1.00  0.00    -0.032 C 
HETATM   25  C20 UNK     1      20.338  -1.326  31.155  1.00  0.00     0.007 C 
ENDBRANCH  23  24
ENDBRANCH   8  23
TORSDOF 4
ENDMDL
MODEL 10
REMARK VINA RESULT:      -8.1      1.556      2.714
REMARK  4 active torsions:
REMARK  status: ('A' for Active; 'I' for Inactive)
REMARK    1  A    between atoms: C2_6  and  N1_4 
REMARK       I    between atoms: C8_12  and  N1_4 
REMARK    2  A    between atoms: C8_12  and  C9_13 
REMARK    3  A    between atoms: C14_18  and  C16_20 
REMARK    4  A    between atoms: C16_20  and  C19_23 
ROOT
HETATM    1  O2  UNK     1      18.604  -1.074  35.856  1.00  0.00    -0.273 OA
HETATM    2  O3  UNK     1      18.788  -2.249  37.807  1.00  0.00    -0.259 OA
HETATM    3  C9  UNK     1      19.841  -3.182  35.902  1.00  0.00     0.108 A 
HETATM    4  C10 UNK     1      20.122  -3.076  34.597  1.00  0.00     0.037 A 
HETATM    5  C11 UNK     1      19.644  -1.934  33.834  1.00  0.00    -0.000 A 
HETATM    6  C12 UNK     1      19.046  -2.156  36.612  1.00  0.00     0.304 A 
HETATM    7  C13 UNK     1      18.895  -0.957  34.484  1.00  0.00     0.096 A 
HETATM    8  C14 UNK     1      18.409   0.162  33.811  1.00  0.00    -0.020 A 
HETATM    9  C15 UNK     1      19.912  -1.783  32.472  1.00  0.00     0.014 A 
HETATM   10  C17 UNK     1      18.681   0.305  32.452  1.00  0.00     0.010 A 
HETATM   11  C18 UNK     1      19.430  -0.665  31.783  1.00  0.00     0.002 A 
ENDROOT
BRANCH   3  12
HETATM   12  C8  UNK     1      20.369  -4.375  36.587  1.00  0.00     0.258 C 
HETATM   13  O1  UNK     1      21.398  -4.311  37.251  1.00  0.00    -0.267 OA
HETATM   14  N1  UNK     1      19.591  -5.498  36.380  1.00  0.00    -0.352 N 
HETATM   15  H14 UNK     1      18.763  -5.445  35.794  1.00  0.00     0.163 HD
BRANCH  14  16
HETATM   16  C2  UNK     1      19.912  -6.804  36.955  1.00  0.00     0.084 C 
HETATM   17  C5  UNK     1      20.228  -7.800  35.835  1.00  0.00     0.025 C 
HETATM   18  C3  UNK     1      20.518  -9.193  36.393  1.00  0.00     0.006 C 
HETATM   19  C1  UNK     1      19.367  -9.702  37.270  1.00  0.00    -0.019 C 
HETATM   20  C4  UNK     1      19.045  -8.700  38.386  1.00  0.00     0.006 C 
HETATM   21  C7  UNK     1      19.701 -11.073  37.855  1.00  0.00     0.010 C 
HETATM   22  C6  UNK     1      18.757  -7.307  37.828  1.00  0.00     0.025 C 
ENDBRANCH  14  16
ENDBRANCH   3  12
BRANCH   8  23
HETATM   23  C16 UNK     1      17.606   1.204  34.514  1.00  0.00     0.067 C 
BRANCH  23  24
HETATM   24  C19 UNK     1      18.440   2.360  35.002  1.00  0.00    -0.032 C 
HETATM   25  C20 UNK     1      19.364   2.267  35.966  1.00  0.00     0.007 C 
ENDBRANCH  23  24
ENDBRANCH   8  23
TORSDOF 4
ENDMDL
