MODEL 1
REMARK VINA RESULT:     -10.9      0.000      0.000
REMARK  7 active torsions:
REMARK  status: ('A' for Active; 'I' for Inactive)
REMARK    1  A    between atoms: C4_12  and  O1_1 
REMARK    2  A    between atoms: C8_16  and  O1_1 
REMARK    3  A    between atoms: N1_6  and  N2_7 
REMARK    4  A    between atoms: C16_24  and  N2_7 
REMARK    5  A    between atoms: C22_30  and  N3_8 
REMARK    6  A    between atoms: C8_16  and  C9_17 
REMARK    7  A    between atoms: C11_19  and  C9_17 
ROOT
HETATM    1  N1  UNK     1      18.192   2.249  31.923  1.00  0.00    -0.176 NA
HETATM    2  C9  UNK     1      18.569   2.430  30.693  1.00  0.00     0.089 C 
ENDROOT
BRANCH   2   3
HETATM    3  C11 UNK     1      19.098   1.253  29.947  1.00  0.00    -0.008 A 
HETATM    4  C14 UNK     1      18.483   0.884  28.771  1.00  0.00     0.013 A 
HETATM    5  C17 UNK     1      18.978  -0.217  28.072  1.00  0.00     0.001 A 
HETATM    6  C19 UNK     1      20.074  -0.922  28.569  1.00  0.00     0.000 A 
HETATM    7  C18 UNK     1      20.676  -0.525  29.763  1.00  0.00     0.001 A 
HETATM    8  C15 UNK     1      20.181   0.577  30.461  1.00  0.00     0.013 A 
ENDBRANCH   2   3
BRANCH   2   9
HETATM    9  C8  UNK     1      18.496   3.761  29.957  1.00  0.00     0.237 C 
BRANCH   9  10
HETATM   10  O1  UNK     1      19.647   4.543  30.269  1.00  0.00    -0.345 OA
BRANCH  10  11
HETATM   11  C4  UNK     1      19.489   5.546  31.174  1.00  0.00     0.071 A 
HETATM   12  C5  UNK     1      18.259   6.182  31.306  1.00  0.00     0.075 A 
HETATM   13  C2  UNK     1      18.120   7.209  32.242  1.00  0.00     0.092 A 
HETATM   14  C1  UNK     1      19.175   7.624  33.055  1.00  0.00     0.004 A 
HETATM   15  O2  UNK     1      16.851   7.814  32.329  1.00  0.00    -0.275 OA
HETATM   16  C3  UNK     1      18.938   8.713  34.013  1.00  0.00    -0.043 A 
HETATM   17  C6  UNK     1      20.406   6.971  32.908  1.00  0.00     0.017 A 
HETATM   18  C10 UNK     1      17.721   9.270  34.074  1.00  0.00     0.090 A 
HETATM   19  C12 UNK     1      20.053   9.183  34.902  1.00  0.00     0.049 C 
HETATM   20  C13 UNK     1      16.598   8.844  33.223  1.00  0.00     0.288 A 
HETATM   21  O3  UNK     1      15.498   9.377  33.308  1.00  0.00    -0.260 OA
HETATM   22  C7  UNK     1      20.561   5.939  31.974  1.00  0.00     0.038 A 
ENDBRANCH  10  11
ENDBRANCH   9  10
ENDBRANCH   2   9
BRANCH   1  23
HETATM   23  N2  UNK     1      18.304   1.012  32.439  1.00  0.00    -0.278 N 
HETATM   24  H12 UNK     1      18.400   0.179  31.873  1.00  0.00     0.189 HD
BRANCH  23  25
HETATM   25  C16 UNK     1      18.230   0.809  33.827  1.00  0.00     0.050 A 
HETATM   26  C20 UNK     1      18.136  -0.486  34.344  1.00  0.00     0.033 A 
HETATM   27  C23 UNK     1      18.062  -0.687  35.723  1.00  0.00     0.038 A 
HETATM   28  C22 UNK     1      18.081   0.406  36.590  1.00  0.00     0.103 A 
HETATM   29  C24 UNK     1      18.175   1.699  36.078  1.00  0.00     0.038 A 
HETATM   30  C21 UNK     1      18.249   1.901  34.700  1.00  0.00     0.033 A 
BRANCH  28  31
HETATM   31  N3  UNK     1      18.005   0.200  37.993  1.00  0.00    -0.116 N 
HETATM   32  O4  UNK     1      17.863   1.192  38.747  1.00  0.00    -0.532 OA
HETATM   33  O5  UNK     1      18.082  -0.971  38.440  1.00  0.00    -0.532 OA
ENDBRANCH  28  31
ENDBRANCH  23  25
ENDBRANCH   1  23
TORSDOF 7
ENDMDL
MODEL 2
REMARK VINA RESULT:     -10.3      1.659      2.206
REMARK  7 active torsions:
REMARK  status: ('A' for Active; 'I' for Inactive)
REMARK    1  A    between atoms: C4_12  and  O1_1 
REMARK    2  A    between atoms: C8_16  and  O1_1 
REMARK    3  A    between atoms: N1_6  and  N2_7 
REMARK    4  A    between atoms: C16_24  and  N2_7 
REMARK    5  A    between atoms: C22_30  and  N3_8 
REMARK    6  A    between atoms: C8_16  and  C9_17 
REMARK    7  A    between atoms: C11_19  and  C9_17 
ROOT
HETATM    1  N1  UNK     1      18.273   1.313  32.564  1.00  0.00    -0.176 NA
HETATM    2  C9  UNK     1      18.695   1.893  31.481  1.00  0.00     0.089 C 
ENDROOT
BRANCH   2   3
HETATM    3  C11 UNK     1      19.089   1.025  30.334  1.00  0.00    -0.008 A 
HETATM    4  C14 UNK     1      20.216   0.242  30.454  1.00  0.00     0.013 A 
HETATM    5  C17 UNK     1      20.583  -0.571  29.382  1.00  0.00     0.001 A 
HETATM    6  C19 UNK     1      19.815  -0.579  28.218  1.00  0.00     0.000 A 
HETATM    7  C18 UNK     1      18.679   0.224  28.126  1.00  0.00     0.001 A 
HETATM    8  C15 UNK     1      18.311   1.038  29.198  1.00  0.00     0.013 A 
ENDBRANCH   2   3
BRANCH   2   9
HETATM    9  C8  UNK     1      18.805   3.401  31.299  1.00  0.00     0.237 C 
BRANCH   9  10
HETATM   10  O1  UNK     1      17.806   4.050  32.083  1.00  0.00    -0.345 OA
BRANCH  10  11
HETATM   11  C4  UNK     1      18.101   5.289  32.561  1.00  0.00     0.071 A 
HETATM   12  C5  UNK     1      17.107   6.258  32.654  1.00  0.00     0.075 A 
HETATM   13  C2  UNK     1      17.432   7.522  33.148  1.00  0.00     0.092 A 
HETATM   14  C1  UNK     1      18.725   7.854  33.555  1.00  0.00     0.004 A 
HETATM   15  O2  UNK     1      16.383   8.460  33.219  1.00  0.00    -0.275 OA
HETATM   16  C3  UNK     1      18.977   9.210  34.062  1.00  0.00    -0.043 A 
HETATM   17  C6  UNK     1      19.713   6.865  33.454  1.00  0.00     0.017 A 
HETATM   18  C10 UNK     1      17.961  10.081  34.118  1.00  0.00     0.090 A 
HETATM   19  C12 UNK     1      20.358   9.598  34.506  1.00  0.00     0.049 C 
HETATM   20  C13 UNK     1      16.592   9.747  33.693  1.00  0.00     0.288 A 
HETATM   21  O3  UNK     1      15.686  10.570  33.760  1.00  0.00    -0.260 OA
HETATM   22  C7  UNK     1      19.402   5.592  32.961  1.00  0.00     0.038 A 
ENDBRANCH  10  11
ENDBRANCH   9  10
ENDBRANCH   2   9
BRANCH   1  23
HETATM   23  N2  UNK     1      18.219  -0.032  32.576  1.00  0.00    -0.278 N 
HETATM   24  H12 UNK     1      17.791  -0.578  31.840  1.00  0.00     0.189 HD
BRANCH  23  25
HETATM   25  C16 UNK     1      18.715  -0.755  33.673  1.00  0.00     0.050 A 
HETATM   26  C20 UNK     1      19.694  -1.735  33.484  1.00  0.00     0.033 A 
HETATM   27  C23 UNK     1      20.187  -2.454  34.574  1.00  0.00     0.038 A 
HETATM   28  C22 UNK     1      19.703  -2.195  35.857  1.00  0.00     0.103 A 
HETATM   29  C24 UNK     1      18.728  -1.217  36.049  1.00  0.00     0.038 A 
HETATM   30  C21 UNK     1      18.235  -0.499  34.961  1.00  0.00     0.033 A 
BRANCH  28  31
HETATM   31  N3  UNK     1      20.205  -2.927  36.965  1.00  0.00    -0.116 N 
HETATM   32  O4  UNK     1      20.998  -3.876  36.759  1.00  0.00    -0.532 OA
HETATM   33  O5  UNK     1      19.842  -2.602  38.123  1.00  0.00    -0.532 OA
ENDBRANCH  28  31
ENDBRANCH  23  25
ENDBRANCH   1  23
TORSDOF 7
ENDMDL
MODEL 3
REMARK VINA RESULT:     -10.3      1.342      2.297
REMARK  7 active torsions:
REMARK  status: ('A' for Active; 'I' for Inactive)
REMARK    1  A    between atoms: C4_12  and  O1_1 
REMARK    2  A    between atoms: C8_16  and  O1_1 
REMARK    3  A    between atoms: N1_6  and  N2_7 
REMARK    4  A    between atoms: C16_24  and  N2_7 
REMARK    5  A    between atoms: C22_30  and  N3_8 
REMARK    6  A    between atoms: C8_16  and  C9_17 
REMARK    7  A    between atoms: C11_19  and  C9_17 
ROOT
HETATM    1  N1  UNK     1      18.008   2.865  32.396  1.00  0.00    -0.176 NA
HETATM    2  C9  UNK     1      18.441   3.161  31.207  1.00  0.00     0.089 C 
ENDROOT
BRANCH   2   3
HETATM    3  C11 UNK     1      18.762   2.036  30.283  1.00  0.00    -0.008 A 
HETATM    4  C14 UNK     1      19.779   1.171  30.622  1.00  0.00     0.013 A 
HETATM    5  C17 UNK     1      20.078   0.118  29.759  1.00  0.00     0.001 A 
HETATM    6  C19 UNK     1      19.354  -0.042  28.577  1.00  0.00     0.000 A 
HETATM    7  C18 UNK     1      18.329   0.849  28.260  1.00  0.00     0.001 A 
HETATM    8  C15 UNK     1      18.029   1.903  29.124  1.00  0.00     0.013 A 
ENDBRANCH   2   3
BRANCH   2   9
HETATM    9  C8  UNK     1      18.632   4.581  30.689  1.00  0.00     0.237 C 
BRANCH   9  10
HETATM   10  O1  UNK     1      19.104   5.414  31.745  1.00  0.00    -0.345 OA
BRANCH  10  11
HETATM   11  C4  UNK     1      18.258   6.379  32.199  1.00  0.00     0.071 A 
HETATM   12  C5  UNK     1      18.762   7.588  32.665  1.00  0.00     0.075 A 
HETATM   13  C2  UNK     1      17.876   8.564  33.126  1.00  0.00     0.092 A 
HETATM   14  C1  UNK     1      16.494   8.369  33.136  1.00  0.00     0.004 A 
HETATM   15  O2  UNK     1      18.446   9.767  33.584  1.00  0.00    -0.275 OA
HETATM   16  C3  UNK     1      15.635   9.451  33.639  1.00  0.00    -0.043 A 
HETATM   17  C6  UNK     1      16.005   7.144  32.663  1.00  0.00     0.017 A 
HETATM   18  C10 UNK     1      16.205  10.585  34.069  1.00  0.00     0.090 A 
HETATM   19  C12 UNK     1      14.145   9.272  33.665  1.00  0.00     0.049 C 
HETATM   20  C13 UNK     1      17.661  10.805  34.064  1.00  0.00     0.288 A 
HETATM   21  O3  UNK     1      18.146  11.857  34.464  1.00  0.00    -0.260 OA
HETATM   22  C7  UNK     1      16.882   6.157  32.198  1.00  0.00     0.038 A 
ENDBRANCH  10  11
ENDBRANCH   9  10
ENDBRANCH   2   9
BRANCH   1  23
HETATM   23  N2  UNK     1      17.878   1.563  32.711  1.00  0.00    -0.278 N 
HETATM   24  H12 UNK     1      17.697   0.841  32.027  1.00  0.00     0.189 HD
BRANCH  23  25
HETATM   25  C16 UNK     1      17.930   1.146  34.051  1.00  0.00     0.050 A 
HETATM   26  C20 UNK     1      17.482  -0.129  34.408  1.00  0.00     0.033 A 
HETATM   27  C23 UNK     1      17.533  -0.543  35.740  1.00  0.00     0.038 A 
HETATM   28  C22 UNK     1      18.033   0.317  36.719  1.00  0.00     0.103 A 
HETATM   29  C24 UNK     1      18.480   1.589  36.367  1.00  0.00     0.038 A 
HETATM   30  C21 UNK     1      18.429   2.003  35.036  1.00  0.00     0.033 A 
BRANCH  28  31
HETATM   31  N3  UNK     1      18.084  -0.106  38.074  1.00  0.00    -0.116 N 
HETATM   32  O4  UNK     1      17.960   0.749  38.983  1.00  0.00    -0.532 OA
HETATM   33  O5  UNK     1      18.250  -1.325  38.324  1.00  0.00    -0.532 OA
ENDBRANCH  28  31
ENDBRANCH  23  25
ENDBRANCH   1  23
TORSDOF 7
ENDMDL
MODEL 4
REMARK VINA RESULT:     -10.1      5.410     11.679
REMARK  7 active torsions:
REMARK  status: ('A' for Active; 'I' for Inactive)
REMARK    1  A    between atoms: C4_12  and  O1_1 
REMARK    2  A    between atoms: C8_16  and  O1_1 
REMARK    3  A    between atoms: N1_6  and  N2_7 
REMARK    4  A    between atoms: C16_24  and  N2_7 
REMARK    5  A    between atoms: C22_30  and  N3_8 
REMARK    6  A    between atoms: C8_16  and  C9_17 
REMARK    7  A    between atoms: C11_19  and  C9_17 
ROOT
HETATM    1  N1  UNK     1      19.427  -1.501  34.811  1.00  0.00    -0.176 NA
HETATM    2  C9  UNK     1      18.829  -1.634  35.957  1.00  0.00     0.089 C 
ENDROOT
BRANCH   2   3
HETATM    3  C11 UNK     1      17.753  -0.659  36.297  1.00  0.00    -0.008 A 
HETATM    4  C14 UNK     1      16.569  -0.709  35.595  1.00  0.00     0.013 A 
HETATM    5  C17 UNK     1      15.562   0.201  35.914  1.00  0.00     0.001 A 
HETATM    6  C19 UNK     1      15.766   1.141  36.925  1.00  0.00     0.000 A 
HETATM    7  C18 UNK     1      16.976   1.168  37.618  1.00  0.00     0.001 A 
HETATM    8  C15 UNK     1      17.983   0.256  37.300  1.00  0.00     0.013 A 
ENDBRANCH   2   3
BRANCH   2   9
HETATM    9  C8  UNK     1      19.144  -2.725  36.971  1.00  0.00     0.237 C 
BRANCH   9  10
HETATM   10  O1  UNK     1      18.823  -3.999  36.416  1.00  0.00    -0.345 OA
BRANCH  10  11
HETATM   11  C4  UNK     1      19.695  -5.016  36.651  1.00  0.00     0.071 A 
HETATM   12  C5  UNK     1      19.789  -6.078  35.758  1.00  0.00     0.075 A 
HETATM   13  C2  UNK     1      20.692  -7.110  36.019  1.00  0.00     0.092 A 
HETATM   14  C1  UNK     1      21.510  -7.116  37.150  1.00  0.00     0.004 A 
HETATM   15  O2  UNK     1      20.741  -8.157  35.078  1.00  0.00    -0.275 OA
HETATM   16  C3  UNK     1      22.431  -8.244  37.345  1.00  0.00    -0.043 A 
HETATM   17  C6  UNK     1      21.401  -6.038  38.038  1.00  0.00     0.017 A 
HETATM   18  C10 UNK     1      22.457  -9.227  36.433  1.00  0.00     0.090 A 
HETATM   19  C12 UNK     1      23.323  -8.281  38.552  1.00  0.00     0.049 C 
HETATM   20  C13 UNK     1      21.601  -9.234  35.236  1.00  0.00     0.288 A 
HETATM   21  O3  UNK     1      21.652 -10.150  34.423  1.00  0.00    -0.260 OA
HETATM   22  C7  UNK     1      20.500  -4.996  37.789  1.00  0.00     0.038 A 
ENDBRANCH  10  11
ENDBRANCH   9  10
ENDBRANCH   2   9
BRANCH   1  23
HETATM   23  N2  UNK     1      19.034  -0.493  34.010  1.00  0.00    -0.278 N 
HETATM   24  H12 UNK     1      18.493   0.297  34.335  1.00  0.00     0.189 HD
BRANCH  23  25
HETATM   25  C16 UNK     1      19.316  -0.526  32.634  1.00  0.00     0.050 A 
HETATM   26  C20 UNK     1      19.065   0.596  31.839  1.00  0.00     0.033 A 
HETATM   27  C23 UNK     1      19.344   0.563  30.472  1.00  0.00     0.038 A 
HETATM   28  C22 UNK     1      19.875  -0.591  29.895  1.00  0.00     0.103 A 
HETATM   29  C24 UNK     1      20.127  -1.712  30.686  1.00  0.00     0.038 A 
HETATM   30  C21 UNK     1      19.848  -1.680  32.052  1.00  0.00     0.033 A 
BRANCH  28  31
HETATM   31  N3  UNK     1      20.159  -0.623  28.505  1.00  0.00    -0.116 N 
HETATM   32  O4  UNK     1      21.353  -0.677  28.128  1.00  0.00    -0.532 OA
HETATM   33  O5  UNK     1      19.204  -0.598  27.689  1.00  0.00    -0.532 OA
ENDBRANCH  28  31
ENDBRANCH  23  25
ENDBRANCH   1  23
TORSDOF 7
ENDMDL
MODEL 5
REMARK VINA RESULT:     -10.1      5.388     11.829
REMARK  7 active torsions:
REMARK  status: ('A' for Active; 'I' for Inactive)
REMARK    1  A    between atoms: C4_12  and  O1_1 
REMARK    2  A    between atoms: C8_16  and  O1_1 
REMARK    3  A    between atoms: N1_6  and  N2_7 
REMARK    4  A    between atoms: C16_24  and  N2_7 
REMARK    5  A    between atoms: C22_30  and  N3_8 
REMARK    6  A    between atoms: C8_16  and  C9_17 
REMARK    7  A    between atoms: C11_19  and  C9_17 
ROOT
HETATM    1  N1  UNK     1      19.447  -1.408  34.805  1.00  0.00    -0.176 NA
HETATM    2  C9  UNK     1      18.838  -1.552  35.945  1.00  0.00     0.089 C 
ENDROOT
BRANCH   2   3
HETATM    3  C11 UNK     1      17.728  -0.609  36.264  1.00  0.00    -0.008 A 
HETATM    4  C14 UNK     1      17.923   0.334  37.248  1.00  0.00     0.013 A 
HETATM    5  C17 UNK     1      16.885   1.216  37.547  1.00  0.00     0.001 A 
HETATM    6  C19 UNK     1      15.678   1.131  36.854  1.00  0.00     0.000 A 
HETATM    7  C18 UNK     1      15.509   0.165  35.862  1.00  0.00     0.001 A 
HETATM    8  C15 UNK     1      16.547  -0.717  35.563  1.00  0.00     0.013 A 
ENDBRANCH   2   3
BRANCH   2   9
HETATM    9  C8  UNK     1      19.175  -2.625  36.971  1.00  0.00     0.237 C 
BRANCH   9  10
HETATM   10  O1  UNK     1      19.270  -3.892  36.323  1.00  0.00    -0.345 OA
BRANCH  10  11
HETATM   11  C4  UNK     1      19.848  -4.905  37.023  1.00  0.00     0.071 A 
HETATM   12  C5  UNK     1      19.207  -6.135  37.131  1.00  0.00     0.075 A 
HETATM   13  C2  UNK     1      19.819  -7.161  37.854  1.00  0.00     0.092 A 
HETATM   14  C1  UNK     1      21.057  -6.998  38.477  1.00  0.00     0.004 A 
HETATM   15  O2  UNK     1      19.121  -8.382  37.927  1.00  0.00    -0.275 OA
HETATM   16  C3  UNK     1      21.626  -8.132  39.217  1.00  0.00    -0.043 A 
HETATM   17  C6  UNK     1      21.687  -5.752  38.356  1.00  0.00     0.017 A 
HETATM   18  C10 UNK     1      20.941  -9.282  39.270  1.00  0.00     0.090 A 
HETATM   19  C12 UNK     1      22.956  -7.989  39.899  1.00  0.00     0.049 C 
HETATM   20  C13 UNK     1      19.634  -9.470  38.619  1.00  0.00     0.288 A 
HETATM   21  O3  UNK     1      19.036 -10.537  38.689  1.00  0.00    -0.260 OA
HETATM   22  C7  UNK     1      21.086  -4.714  37.634  1.00  0.00     0.038 A 
ENDBRANCH  10  11
ENDBRANCH   9  10
ENDBRANCH   2   9
BRANCH   1  23
HETATM   23  N2  UNK     1      19.032  -0.419  33.992  1.00  0.00    -0.278 N 
HETATM   24  H12 UNK     1      18.477   0.365  34.308  1.00  0.00     0.189 HD
BRANCH  23  25
HETATM   25  C16 UNK     1      19.308  -0.466  32.616  1.00  0.00     0.050 A 
HETATM   26  C20 UNK     1      19.054   0.647  31.809  1.00  0.00     0.033 A 
HETATM   27  C23 UNK     1      19.328   0.600  30.442  1.00  0.00     0.038 A 
HETATM   28  C22 UNK     1      19.858  -0.560  29.876  1.00  0.00     0.103 A 
HETATM   29  C24 UNK     1      20.114  -1.672  30.677  1.00  0.00     0.038 A 
HETATM   30  C21 UNK     1      19.840  -1.626  32.043  1.00  0.00     0.033 A 
BRANCH  28  31
HETATM   31  N3  UNK     1      20.137  -0.607  28.484  1.00  0.00    -0.116 N 
HETATM   32  O4  UNK     1      21.330  -0.671  28.104  1.00  0.00    -0.532 OA
HETATM   33  O5  UNK     1      19.179  -0.583  27.672  1.00  0.00    -0.532 OA
ENDBRANCH  28  31
ENDBRANCH  23  25
ENDBRANCH   1  23
TORSDOF 7
ENDMDL
MODEL 6
REMARK VINA RESULT:     -10.0      5.382     11.808
REMARK  7 active torsions:
REMARK  status: ('A' for Active; 'I' for Inactive)
REMARK    1  A    between atoms: C4_12  and  O1_1 
REMARK    2  A    between atoms: C8_16  and  O1_1 
REMARK    3  A    between atoms: N1_6  and  N2_7 
REMARK    4  A    between atoms: C16_24  and  N2_7 
REMARK    5  A    between atoms: C22_30  and  N3_8 
REMARK    6  A    between atoms: C8_16  and  C9_17 
REMARK    7  A    between atoms: C11_19  and  C9_17 
ROOT
HETATM    1  N1  UNK     1      19.363  -1.383  34.854  1.00  0.00    -0.176 NA
HETATM    2  C9  UNK     1      18.836  -1.447  36.040  1.00  0.00     0.089 C 
ENDROOT
BRANCH   2   3
HETATM    3  C11 UNK     1      17.733  -0.497  36.363  1.00  0.00    -0.008 A 
HETATM    4  C14 UNK     1      17.951   0.469  37.321  1.00  0.00     0.013 A 
HETATM    5  C17 UNK     1      16.921   1.359  37.623  1.00  0.00     0.001 A 
HETATM    6  C19 UNK     1      15.697   1.258  36.960  1.00  0.00     0.000 A 
HETATM    7  C18 UNK     1      15.505   0.270  35.994  1.00  0.00     0.001 A 
HETATM    8  C15 UNK     1      16.537  -0.619  35.692  1.00  0.00     0.013 A 
ENDBRANCH   2   3
BRANCH   2   9
HETATM    9  C8  UNK     1      19.259  -2.435  37.119  1.00  0.00     0.237 C 
BRANCH   9  10
HETATM   10  O1  UNK     1      20.207  -3.353  36.579  1.00  0.00    -0.345 OA
BRANCH  10  11
HETATM   11  C4  UNK     1      20.137  -4.642  37.008  1.00  0.00     0.071 A 
HETATM   12  C5  UNK     1      21.078  -5.133  37.907  1.00  0.00     0.075 A 
HETATM   13  C2  UNK     1      20.986  -6.458  38.335  1.00  0.00     0.092 A 
HETATM   14  C1  UNK     1      19.978  -7.316  37.891  1.00  0.00     0.004 A 
HETATM   15  O2  UNK     1      21.967  -6.896  39.245  1.00  0.00    -0.275 OA
HETATM   16  C3  UNK     1      19.958  -8.697  38.394  1.00  0.00    -0.043 A 
HETATM   17  C6  UNK     1      19.039  -6.803  36.986  1.00  0.00     0.017 A 
HETATM   18  C10 UNK     1      20.905  -9.086  39.260  1.00  0.00     0.090 A 
HETATM   19  C12 UNK     1      18.888  -9.644  37.935  1.00  0.00     0.049 C 
HETATM   20  C13 UNK     1      21.974  -8.193  39.737  1.00  0.00     0.288 A 
HETATM   21  O3  UNK     1      22.822  -8.585  40.530  1.00  0.00    -0.260 OA
HETATM   22  C7  UNK     1      19.119  -5.476  36.549  1.00  0.00     0.038 A 
ENDBRANCH  10  11
ENDBRANCH   9  10
ENDBRANCH   2   9
BRANCH   1  23
HETATM   23  N2  UNK     1      18.878  -0.464  34.000  1.00  0.00    -0.278 N 
HETATM   24  H12 UNK     1      18.228   0.261  34.272  1.00  0.00     0.189 HD
BRANCH  23  25
HETATM   25  C16 UNK     1      19.216  -0.510  32.637  1.00  0.00     0.050 A 
HETATM   26  C20 UNK     1      19.732  -1.682  32.080  1.00  0.00     0.033 A 
HETATM   27  C23 UNK     1      20.068  -1.727  30.726  1.00  0.00     0.038 A 
HETATM   28  C22 UNK     1      19.889  -0.599  29.924  1.00  0.00     0.103 A 
HETATM   29  C24 UNK     1      19.374   0.573  30.477  1.00  0.00     0.038 A 
HETATM   30  C21 UNK     1      19.038   0.618  31.830  1.00  0.00     0.033 A 
BRANCH  28  31
HETATM   31  N3  UNK     1      20.231  -0.646  28.548  1.00  0.00    -0.116 N 
HETATM   32  O4  UNK     1      21.442  -0.684  28.222  1.00  0.00    -0.532 OA
HETATM   33  O5  UNK     1      19.312  -0.648  27.693  1.00  0.00    -0.532 OA
ENDBRANCH  28  31
ENDBRANCH  23  25
ENDBRANCH   1  23
TORSDOF 7
ENDMDL
MODEL 7
REMARK VINA RESULT:      -9.9      3.600      6.094
REMARK  7 active torsions:
REMARK  status: ('A' for Active; 'I' for Inactive)
REMARK    1  A    between atoms: C4_12  and  O1_1 
REMARK    2  A    between atoms: C8_16  and  O1_1 
REMARK    3  A    between atoms: N1_6  and  N2_7 
REMARK    4  A    between atoms: C16_24  and  N2_7 
REMARK    5  A    between atoms: C22_30  and  N3_8 
REMARK    6  A    between atoms: C8_16  and  C9_17 
REMARK    7  A    between atoms: C11_19  and  C9_17 
ROOT
HETATM    1  N1  UNK     1      17.166   4.595  31.893  1.00  0.00    -0.176 NA
HETATM    2  C9  UNK     1      17.652   5.792  31.748  1.00  0.00     0.089 C 
ENDROOT
BRANCH   2   3
HETATM    3  C11 UNK     1      19.117   5.977  31.954  1.00  0.00    -0.008 A 
HETATM    4  C14 UNK     1      19.564   6.380  33.193  1.00  0.00     0.013 A 
HETATM    5  C17 UNK     1      20.935   6.552  33.387  1.00  0.00     0.001 A 
HETATM    6  C19 UNK     1      21.822   6.319  32.336  1.00  0.00     0.000 A 
HETATM    7  C18 UNK     1      21.339   5.911  31.092  1.00  0.00     0.001 A 
HETATM    8  C15 UNK     1      19.969   5.738  30.899  1.00  0.00     0.013 A 
ENDBRANCH   2   3
BRANCH   2   9
HETATM    9  C8  UNK     1      16.829   7.016  31.369  1.00  0.00     0.237 C 
BRANCH   9  10
HETATM   10  O1  UNK     1      15.691   7.108  32.225  1.00  0.00    -0.345 OA
BRANCH  10  11
HETATM   11  C4  UNK     1      15.584   8.223  32.996  1.00  0.00     0.071 A 
HETATM   12  C5  UNK     1      16.628   9.141  33.048  1.00  0.00     0.075 A 
HETATM   13  C2  UNK     1      16.496  10.279  33.846  1.00  0.00     0.092 A 
HETATM   14  C1  UNK     1      15.349  10.532  34.599  1.00  0.00     0.004 A 
HETATM   15  O2  UNK     1      17.586  11.171  33.857  1.00  0.00    -0.275 OA
HETATM   16  C3  UNK     1      15.296  11.755  35.412  1.00  0.00    -0.043 A 
HETATM   17  C6  UNK     1      14.308   9.596  34.534  1.00  0.00     0.017 A 
HETATM   18  C10 UNK     1      16.348  12.586  35.403  1.00  0.00     0.090 A 
HETATM   19  C12 UNK     1      14.077  12.055  36.234  1.00  0.00     0.049 C 
HETATM   20  C13 UNK     1      17.565  12.333  34.614  1.00  0.00     0.288 A 
HETATM   21  O3  UNK     1      18.507  13.117  34.630  1.00  0.00    -0.260 OA
HETATM   22  C7  UNK     1      14.426   8.450  33.738  1.00  0.00     0.038 A 
ENDBRANCH  10  11
ENDBRANCH   9  10
ENDBRANCH   2   9
BRANCH   1  23
HETATM   23  N2  UNK     1      18.018   3.606  32.219  1.00  0.00    -0.278 N 
HETATM   24  H12 UNK     1      18.447   3.519  33.131  1.00  0.00     0.189 HD
BRANCH  23  25
HETATM   25  C16 UNK     1      18.408   2.657  31.260  1.00  0.00     0.050 A 
HETATM   26  C20 UNK     1      19.163   1.544  31.638  1.00  0.00     0.033 A 
HETATM   27  C23 UNK     1      19.551   0.601  30.686  1.00  0.00     0.038 A 
HETATM   28  C22 UNK     1      19.183   0.768  29.349  1.00  0.00     0.103 A 
HETATM   29  C24 UNK     1      18.430   1.877  28.968  1.00  0.00     0.038 A 
HETATM   30  C21 UNK     1      18.042   2.819  29.920  1.00  0.00     0.033 A 
BRANCH  28  31
HETATM   31  N3  UNK     1      19.579  -0.192  28.381  1.00  0.00    -0.116 N 
HETATM   32  O4  UNK     1      18.825  -0.416  27.403  1.00  0.00    -0.532 OA
HETATM   33  O5  UNK     1      20.673  -0.789  28.528  1.00  0.00    -0.532 OA
ENDBRANCH  28  31
ENDBRANCH  23  25
ENDBRANCH   1  23
TORSDOF 7
ENDMDL
MODEL 8
REMARK VINA RESULT:      -9.5     14.401     17.384
REMARK  7 active torsions:
REMARK  status: ('A' for Active; 'I' for Inactive)
REMARK    1  A    between atoms: C4_12  and  O1_1 
REMARK    2  A    between atoms: C8_16  and  O1_1 
REMARK    3  A    between atoms: N1_6  and  N2_7 
REMARK    4  A    between atoms: C16_24  and  N2_7 
REMARK    5  A    between atoms: C22_30  and  N3_8 
REMARK    6  A    between atoms: C8_16  and  C9_17 
REMARK    7  A    between atoms: C11_19  and  C9_17 
ROOT
HETATM    1  N1  UNK     1      30.247 -10.138  31.858  1.00  0.00    -0.176 NA
HETATM    2  C9  UNK     1      29.367  -9.420  32.489  1.00  0.00     0.089 C 
ENDROOT
BRANCH   2   3
HETATM    3  C11 UNK     1      28.705  -8.313  31.741  1.00  0.00    -0.008 A 
HETATM    4  C14 UNK     1      27.690  -8.623  30.863  1.00  0.00     0.013 A 
HETATM    5  C17 UNK     1      27.069  -7.588  30.164  1.00  0.00     0.001 A 
HETATM    6  C19 UNK     1      27.483  -6.270  30.358  1.00  0.00     0.000 A 
HETATM    7  C18 UNK     1      28.514  -5.987  31.254  1.00  0.00     0.001 A 
HETATM    8  C15 UNK     1      29.134  -7.022  31.954  1.00  0.00     0.013 A 
ENDBRANCH   2   3
BRANCH   2   9
HETATM    9  C8  UNK     1      28.956  -9.640  33.939  1.00  0.00     0.237 C 
BRANCH   9  10
HETATM   10  O1  UNK     1      30.095  -9.492  34.785  1.00  0.00    -0.345 OA
BRANCH  10  11
HETATM   11  C4  UNK     1      30.336  -8.252  35.289  1.00  0.00     0.071 A 
HETATM   12  C5  UNK     1      29.490  -7.711  36.252  1.00  0.00     0.075 A 
HETATM   13  C2  UNK     1      29.758  -6.437  36.756  1.00  0.00     0.092 A 
HETATM   14  C1  UNK     1      30.849  -5.681  36.327  1.00  0.00     0.004 A 
HETATM   15  O2  UNK     1      28.866  -5.944  37.728  1.00  0.00    -0.275 OA
HETATM   16  C3  UNK     1      31.054  -4.348  36.912  1.00  0.00    -0.043 A 
HETATM   17  C6  UNK     1      31.690  -6.242  35.357  1.00  0.00     0.017 A 
HETATM   18  C10 UNK     1      30.189  -3.905  37.836  1.00  0.00     0.090 A 
HETATM   19  C12 UNK     1      32.218  -3.509  36.472  1.00  0.00     0.049 C 
HETATM   20  C13 UNK     1      29.034  -4.691  38.298  1.00  0.00     0.288 A 
HETATM   21  O3  UNK     1      28.264  -4.252  39.145  1.00  0.00    -0.260 OA
HETATM   22  C7  UNK     1      31.434  -7.519  34.843  1.00  0.00     0.038 A 
ENDBRANCH  10  11
ENDBRANCH   9  10
ENDBRANCH   2   9
BRANCH   1  23
HETATM   23  N2  UNK     1      30.501  -9.833  30.572  1.00  0.00    -0.278 N 
HETATM   24  H12 UNK     1      29.891 -10.093  29.808  1.00  0.00     0.189 HD
BRANCH  23  25
HETATM   25  C16 UNK     1      31.688  -9.174  30.216  1.00  0.00     0.050 A 
HETATM   26  C20 UNK     1      31.650  -8.063  29.369  1.00  0.00     0.033 A 
HETATM   27  C23 UNK     1      32.830  -7.408  29.016  1.00  0.00     0.038 A 
HETATM   28  C22 UNK     1      34.054  -7.862  29.509  1.00  0.00     0.103 A 
HETATM   29  C24 UNK     1      34.097  -8.970  30.354  1.00  0.00     0.038 A 
HETATM   30  C21 UNK     1      32.918  -9.624  30.707  1.00  0.00     0.033 A 
BRANCH  28  31
HETATM   31  N3  UNK     1      35.255  -7.195  29.149  1.00  0.00    -0.116 N 
HETATM   32  O4  UNK     1      36.011  -7.720  28.297  1.00  0.00    -0.532 OA
HETATM   33  O5  UNK     1      35.526  -6.096  29.693  1.00  0.00    -0.532 OA
ENDBRANCH  28  31
ENDBRANCH  23  25
ENDBRANCH   1  23
TORSDOF 7
ENDMDL
MODEL 9
REMARK VINA RESULT:      -9.4      3.951     10.525
REMARK  7 active torsions:
REMARK  status: ('A' for Active; 'I' for Inactive)
REMARK    1  A    between atoms: C4_12  and  O1_1 
REMARK    2  A    between atoms: C8_16  and  O1_1 
REMARK    3  A    between atoms: N1_6  and  N2_7 
REMARK    4  A    between atoms: C16_24  and  N2_7 
REMARK    5  A    between atoms: C22_30  and  N3_8 
REMARK    6  A    between atoms: C8_16  and  C9_17 
REMARK    7  A    between atoms: C11_19  and  C9_17 
ROOT
HETATM    1  N1  UNK     1      18.508   0.265  33.021  1.00  0.00    -0.176 NA
HETATM    2  C9  UNK     1      18.750  -0.431  34.092  1.00  0.00     0.089 C 
ENDROOT
BRANCH   2   3
HETATM    3  C11 UNK     1      18.245   0.095  35.392  1.00  0.00    -0.008 A 
HETATM    4  C14 UNK     1      18.799   1.250  35.898  1.00  0.00     0.013 A 
HETATM    5  C17 UNK     1      18.326   1.743  37.114  1.00  0.00     0.001 A 
HETATM    6  C19 UNK     1      17.313   1.067  37.793  1.00  0.00     0.000 A 
HETATM    7  C18 UNK     1      16.771  -0.101  37.256  1.00  0.00     0.001 A 
HETATM    8  C15 UNK     1      17.244  -0.594  36.040  1.00  0.00     0.013 A 
ENDBRANCH   2   3
BRANCH   2   9
HETATM    9  C8  UNK     1      19.505  -1.753  34.107  1.00  0.00     0.237 C 
BRANCH   9  10
HETATM   10  O1  UNK     1      20.319  -1.825  35.276  1.00  0.00    -0.345 OA
BRANCH  10  11
HETATM   11  C4  UNK     1      20.294  -2.989  35.979  1.00  0.00     0.071 A 
HETATM   12  C5  UNK     1      19.555  -4.071  35.514  1.00  0.00     0.075 A 
HETATM   13  C2  UNK     1      19.544  -5.257  36.251  1.00  0.00     0.092 A 
HETATM   14  C1  UNK     1      20.253  -5.398  37.445  1.00  0.00     0.004 A 
HETATM   15  O2  UNK     1      18.778  -6.317  35.729  1.00  0.00    -0.275 OA
HETATM   16  C3  UNK     1      20.184  -6.682  38.156  1.00  0.00    -0.043 A 
HETATM   17  C6  UNK     1      20.991  -4.296  37.898  1.00  0.00     0.017 A 
HETATM   18  C10 UNK     1      19.448  -7.674  37.636  1.00  0.00     0.090 A 
HETATM   19  C12 UNK     1      20.934  -6.865  39.444  1.00  0.00     0.049 C 
HETATM   20  C13 UNK     1      18.695  -7.540  36.378  1.00  0.00     0.288 A 
HETATM   21  O3  UNK     1      18.032  -8.470  35.932  1.00  0.00    -0.260 OA
HETATM   22  C7  UNK     1      21.011  -3.101  37.169  1.00  0.00     0.038 A 
ENDBRANCH  10  11
ENDBRANCH   9  10
ENDBRANCH   2   9
BRANCH   1  23
HETATM   23  N2  UNK     1      17.817   1.411  33.160  1.00  0.00    -0.278 N 
HETATM   24  H12 UNK     1      17.010   1.505  33.763  1.00  0.00     0.189 HD
BRANCH  23  25
HETATM   25  C16 UNK     1      18.159   2.545  32.405  1.00  0.00     0.050 A 
HETATM   26  C20 UNK     1      18.181   3.808  33.003  1.00  0.00     0.033 A 
HETATM   27  C23 UNK     1      18.520   4.934  32.252  1.00  0.00     0.038 A 
HETATM   28  C22 UNK     1      18.840   4.802  30.900  1.00  0.00     0.103 A 
HETATM   29  C24 UNK     1      18.820   3.543  30.300  1.00  0.00     0.038 A 
HETATM   30  C21 UNK     1      18.481   2.418  31.050  1.00  0.00     0.033 A 
BRANCH  28  31
HETATM   31  N3  UNK     1      19.185   5.948  30.138  1.00  0.00    -0.116 N 
HETATM   32  O4  UNK     1      20.375   6.103  29.776  1.00  0.00    -0.532 OA
HETATM   33  O5  UNK     1      18.287   6.776  29.846  1.00  0.00    -0.532 OA
ENDBRANCH  28  31
ENDBRANCH  23  25
ENDBRANCH   1  23
TORSDOF 7
ENDMDL
MODEL 10
REMARK VINA RESULT:      -9.4      3.930      6.103
REMARK  7 active torsions:
REMARK  status: ('A' for Active; 'I' for Inactive)
REMARK    1  A    between atoms: C4_12  and  O1_1 
REMARK    2  A    between atoms: C8_16  and  O1_1 
REMARK    3  A    between atoms: N1_6  and  N2_7 
REMARK    4  A    between atoms: C16_24  and  N2_7 
REMARK    5  A    between atoms: C22_30  and  N3_8 
REMARK    6  A    between atoms: C8_16  and  C9_17 
REMARK    7  A    between atoms: C11_19  and  C9_17 
ROOT
HETATM    1  N1  UNK     1      19.721  -2.360  34.510  1.00  0.00    -0.176 NA
HETATM    2  C9  UNK     1      19.171  -1.261  34.087  1.00  0.00     0.089 C 
ENDROOT
BRANCH   2   3
HETATM    3  C11 UNK     1      18.194  -0.581  34.985  1.00  0.00    -0.008 A 
HETATM    4  C14 UNK     1      18.673   0.252  35.972  1.00  0.00     0.013 A 
HETATM    5  C17 UNK     1      17.760   0.889  36.812  1.00  0.00     0.001 A 
HETATM    6  C19 UNK     1      16.392   0.674  36.645  1.00  0.00     0.000 A 
HETATM    7  C18 UNK     1      15.937  -0.176  35.637  1.00  0.00     0.001 A 
HETATM    8  C15 UNK     1      16.850  -0.812  34.796  1.00  0.00     0.013 A 
ENDBRANCH   2   3
BRANCH   2   9
HETATM    9  C8  UNK     1      19.465  -0.614  32.740  1.00  0.00     0.237 C 
BRANCH   9  10
HETATM   10  O1  UNK     1      18.301   0.066  32.274  1.00  0.00    -0.345 OA
BRANCH  10  11
HETATM   11  C4  UNK     1      18.430   1.388  31.980  1.00  0.00     0.071 A 
HETATM   12  C5  UNK     1      18.166   2.350  32.950  1.00  0.00     0.075 A 
HETATM   13  C2  UNK     1      18.306   3.700  32.626  1.00  0.00     0.092 A 
HETATM   14  C1  UNK     1      18.704   4.125  31.358  1.00  0.00     0.004 A 
HETATM   15  O2  UNK     1      18.026   4.626  33.650  1.00  0.00    -0.275 OA
HETATM   16  C3  UNK     1      18.825   5.568  31.106  1.00  0.00    -0.043 A 
HETATM   17  C6  UNK     1      18.965   3.142  30.395  1.00  0.00     0.017 A 
HETATM   18  C10 UNK     1      18.551   6.426  32.099  1.00  0.00     0.090 A 
HETATM   19  C12 UNK     1      19.249   6.057  29.752  1.00  0.00     0.049 C 
HETATM   20  C13 UNK     1      18.131   5.993  33.441  1.00  0.00     0.288 A 
HETATM   21  O3  UNK     1      17.890   6.807  34.325  1.00  0.00    -0.260 OA
HETATM   22  C7  UNK     1      18.829   1.784  30.704  1.00  0.00     0.038 A 
ENDBRANCH  10  11
ENDBRANCH   9  10
ENDBRANCH   2   9
BRANCH   1  23
HETATM   23  N2  UNK     1      19.372  -2.808  35.729  1.00  0.00    -0.278 N 
HETATM   24  H12 UNK     1      18.717  -2.328  36.333  1.00  0.00     0.189 HD
BRANCH  23  25
HETATM   25  C16 UNK     1      19.964  -3.966  36.259  1.00  0.00     0.050 A 
HETATM   26  C20 UNK     1      20.767  -3.886  37.401  1.00  0.00     0.033 A 
HETATM   27  C23 UNK     1      21.356  -5.036  37.927  1.00  0.00     0.038 A 
HETATM   28  C22 UNK     1      21.144  -6.272  37.313  1.00  0.00     0.103 A 
HETATM   29  C24 UNK     1      20.344  -6.356  36.174  1.00  0.00     0.038 A 
HETATM   30  C21 UNK     1      19.756  -5.206  35.649  1.00  0.00     0.033 A 
BRANCH  28  31
HETATM   31  N3  UNK     1      21.744  -7.441  37.849  1.00  0.00    -0.116 N 
HETATM   32  O4  UNK     1      22.985  -7.460  38.033  1.00  0.00    -0.532 OA
HETATM   33  O5  UNK     1      21.015  -8.426  38.126  1.00  0.00    -0.532 OA
ENDBRANCH  28  31
ENDBRANCH  23  25
ENDBRANCH   1  23
TORSDOF 7
ENDMDL
