MODEL 1
REMARK VINA RESULT:      -8.9      0.000      0.000
REMARK  3 active torsions:
REMARK  status: ('A' for Active; 'I' for Inactive)
REMARK    1  A    between atoms: C1_5  and  N1_3 
REMARK    2  A    between atoms: C11_15  and  N2_4 
REMARK    3  A    between atoms: C11_15  and  C12_16 
ROOT
HETATM    1  O1  UNK     1      28.709  -5.462  39.766  1.00  0.00    -0.275 OA
HETATM    2  O2  UNK     1      29.473  -3.310  39.892  1.00  0.00    -0.260 OA
HETATM    3  C12 UNK     1      29.890  -5.626  37.200  1.00  0.00    -0.011 A 
HETATM    4  C13 UNK     1      29.175  -6.780  37.764  1.00  0.00     0.012 A 
HETATM    5  C14 UNK     1      29.972  -4.499  37.922  1.00  0.00     0.092 A 
HETATM    6  C15 UNK     1      28.606  -6.660  39.032  1.00  0.00     0.091 A 
HETATM    7  C16 UNK     1      29.028  -8.005  37.098  1.00  0.00    -0.048 A 
HETATM    8  C17 UNK     1      29.377  -4.357  39.261  1.00  0.00     0.288 A 
HETATM    9  C18 UNK     1      27.910  -7.707  39.639  1.00  0.00     0.045 A 
HETATM   10  C19 UNK     1      28.334  -9.063  37.695  1.00  0.00     0.014 A 
HETATM   11  C20 UNK     1      27.776  -8.915  38.963  1.00  0.00    -0.059 A 
HETATM   12  C21 UNK     1      29.574  -8.307  35.739  1.00  0.00     0.049 C 
HETATM   13  C22 UNK     1      27.038 -10.047  39.593  1.00  0.00     0.048 C 
ENDROOT
BRANCH   3  14
HETATM   14  C11 UNK     1      30.528  -5.643  35.859  1.00  0.00     0.312 C 
BRANCH  14  15
HETATM   15  N2  UNK     1      31.919  -5.236  36.059  1.00  0.00     0.092 N 
HETATM   16  C4  UNK     1      32.701  -6.340  36.630  1.00  0.00     0.275 C 
HETATM   17  C2  UNK     1      34.148  -5.912  36.897  1.00  0.00     0.066 C 
HETATM   18  C1  UNK     1      34.826  -5.356  35.642  1.00  0.00     0.226 C 
HETATM   19  C3  UNK     1      33.944  -4.282  35.001  1.00  0.00     0.066 C 
HETATM   20  C5  UNK     1      32.504  -4.764  34.798  1.00  0.00     0.275 C 
BRANCH  18  21
HETATM   21  N1  UNK     1      35.133  -6.424  34.692  1.00  0.00     0.093 N 
HETATM   22  C6  UNK     1      35.201  -5.891  33.324  1.00  0.00     0.273 C 
HETATM   23  C8  UNK     1      35.473  -7.003  32.310  1.00  0.00     0.030 C 
HETATM   24  C10 UNK     1      36.744  -7.772  32.658  1.00  0.00     0.003 C 
HETATM   25  C9  UNK     1      36.697  -8.250  34.105  1.00  0.00     0.030 C 
HETATM   26  C7  UNK     1      36.386  -7.097  35.061  1.00  0.00     0.273 C 
ENDBRANCH  18  21
ENDBRANCH  14  15
ENDBRANCH   3  14
TORSDOF 3
ENDMDL
MODEL 2
REMARK VINA RESULT:      -8.5      3.308      4.699
REMARK  3 active torsions:
REMARK  status: ('A' for Active; 'I' for Inactive)
REMARK    1  A    between atoms: C1_5  and  N1_3 
REMARK    2  A    between atoms: C11_15  and  N2_4 
REMARK    3  A    between atoms: C11_15  and  C12_16 
ROOT
HETATM    1  O1  UNK     1      28.699  -5.617  39.399  1.00  0.00    -0.275 OA
HETATM    2  O2  UNK     1      29.509  -3.507  39.054  1.00  0.00    -0.260 OA
HETATM    3  C12 UNK     1      30.005  -6.402  37.015  1.00  0.00    -0.011 A 
HETATM    4  C13 UNK     1      29.233  -7.379  37.795  1.00  0.00     0.012 A 
HETATM    5  C14 UNK     1      30.078  -5.136  37.453  1.00  0.00     0.092 A 
HETATM    6  C15 UNK     1      28.603  -6.955  38.965  1.00  0.00     0.091 A 
HETATM    7  C16 UNK     1      29.090  -8.726  37.432  1.00  0.00    -0.048 A 
HETATM    8  C17 UNK     1      29.419  -4.673  38.685  1.00  0.00     0.288 A 
HETATM    9  C18 UNK     1      27.851  -7.818  39.764  1.00  0.00     0.045 A 
HETATM   10  C19 UNK     1      28.340  -9.603  38.222  1.00  0.00     0.014 A 
HETATM   11  C20 UNK     1      27.722  -9.151  39.386  1.00  0.00    -0.059 A 
HETATM   12  C21 UNK     1      29.697  -9.349  36.215  1.00  0.00     0.049 C 
HETATM   13  C22 UNK     1      26.924 -10.092  40.225  1.00  0.00     0.048 C 
ENDROOT
BRANCH   3  14
HETATM   14  C11 UNK     1      30.710  -6.745  35.754  1.00  0.00     0.312 C 
BRANCH  14  15
HETATM   15  N2  UNK     1      29.994  -6.055  34.680  1.00  0.00     0.092 N 
HETATM   16  C4  UNK     1      30.842  -5.938  33.488  1.00  0.00     0.275 C 
HETATM   17  C2  UNK     1      30.126  -5.169  32.373  1.00  0.00     0.066 C 
HETATM   18  C1  UNK     1      28.773  -5.793  32.019  1.00  0.00     0.226 C 
HETATM   19  C3  UNK     1      27.946  -6.008  33.290  1.00  0.00     0.066 C 
HETATM   20  C5  UNK     1      28.736  -6.748  34.374  1.00  0.00     0.275 C 
BRANCH  18  21
HETATM   21  N1  UNK     1      28.946  -7.045  31.284  1.00  0.00     0.093 N 
HETATM   22  C6  UNK     1      27.640  -7.625  30.942  1.00  0.00     0.273 C 
HETATM   23  C8  UNK     1      27.802  -8.961  30.215  1.00  0.00     0.030 C 
HETATM   24  C10 UNK     1      28.674  -8.814  28.972  1.00  0.00     0.003 C 
HETATM   25  C9  UNK     1      29.993  -8.136  29.325  1.00  0.00     0.030 C 
HETATM   26  C7  UNK     1      29.761  -6.827  30.081  1.00  0.00     0.273 C 
ENDBRANCH  18  21
ENDBRANCH  14  15
ENDBRANCH   3  14
TORSDOF 3
ENDMDL
MODEL 3
REMARK VINA RESULT:      -8.3      4.365      6.068
REMARK  3 active torsions:
REMARK  status: ('A' for Active; 'I' for Inactive)
REMARK    1  A    between atoms: C1_5  and  N1_3 
REMARK    2  A    between atoms: C11_15  and  N2_4 
REMARK    3  A    between atoms: C11_15  and  C12_16 
ROOT
HETATM    1  O1  UNK     1      32.902  -3.634  36.019  1.00  0.00    -0.275 OA
HETATM    2  O2  UNK     1      34.715  -3.306  34.665  1.00  0.00    -0.260 OA
HETATM    3  C12 UNK     1      32.437  -6.062  34.644  1.00  0.00    -0.011 A 
HETATM    4  C13 UNK     1      31.545  -5.644  35.735  1.00  0.00     0.012 A 
HETATM    5  C14 UNK     1      33.470  -5.274  34.314  1.00  0.00     0.092 A 
HETATM    6  C15 UNK     1      31.807  -4.440  36.389  1.00  0.00     0.091 A 
HETATM    7  C16 UNK     1      30.437  -6.389  36.163  1.00  0.00    -0.048 A 
HETATM    8  C17 UNK     1      33.759  -4.001  34.994  1.00  0.00     0.288 A 
HETATM    9  C18 UNK     1      31.010  -3.971  37.435  1.00  0.00     0.045 A 
HETATM   10  C19 UNK     1      29.630  -5.932  37.209  1.00  0.00     0.014 A 
HETATM   11  C20 UNK     1      29.915  -4.725  37.844  1.00  0.00    -0.059 A 
HETATM   12  C21 UNK     1      30.014  -7.699  35.577  1.00  0.00     0.049 C 
HETATM   13  C22 UNK     1      29.051  -4.243  38.960  1.00  0.00     0.048 C 
ENDROOT
BRANCH   3  14
HETATM   14  C11 UNK     1      32.248  -7.321  33.878  1.00  0.00     0.312 C 
BRANCH  14  15
HETATM   15  N2  UNK     1      32.114  -6.933  32.474  1.00  0.00     0.092 N 
HETATM   16  C4  UNK     1      32.604  -8.002  31.595  1.00  0.00     0.275 C 
HETATM   17  C2  UNK     1      32.521  -7.589  30.122  1.00  0.00     0.066 C 
HETATM   18  C1  UNK     1      31.108  -7.161  29.722  1.00  0.00     0.226 C 
HETATM   19  C3  UNK     1      30.573  -6.124  30.714  1.00  0.00     0.066 C 
HETATM   20  C5  UNK     1      30.721  -6.587  32.167  1.00  0.00     0.275 C 
BRANCH  18  21
HETATM   21  N1  UNK     1      30.213  -8.313  29.629  1.00  0.00     0.093 N 
HETATM   22  C6  UNK     1      28.814  -7.873  29.535  1.00  0.00     0.273 C 
HETATM   23  C8  UNK     1      27.861  -9.068  29.486  1.00  0.00     0.030 C 
HETATM   24  C10 UNK     1      28.212 -10.012  28.341  1.00  0.00     0.003 C 
HETATM   25  C9  UNK     1      29.686 -10.398  28.403  1.00  0.00     0.030 C 
HETATM   26  C7  UNK     1      30.581  -9.160  28.486  1.00  0.00     0.273 C 
ENDBRANCH  18  21
ENDBRANCH  14  15
ENDBRANCH   3  14
TORSDOF 3
ENDMDL
MODEL 4
REMARK VINA RESULT:      -7.9      4.108      5.272
REMARK  3 active torsions:
REMARK  status: ('A' for Active; 'I' for Inactive)
REMARK    1  A    between atoms: C1_5  and  N1_3 
REMARK    2  A    between atoms: C11_15  and  N2_4 
REMARK    3  A    between atoms: C11_15  and  C12_16 
ROOT
HETATM    1  O1  UNK     1      30.925  -4.717  37.255  1.00  0.00    -0.275 OA
HETATM    2  O2  UNK     1      32.361  -3.267  36.223  1.00  0.00    -0.260 OA
HETATM    3  C12 UNK     1      31.603  -6.634  35.289  1.00  0.00    -0.011 A 
HETATM    4  C13 UNK     1      30.639  -6.965  36.347  1.00  0.00     0.012 A 
HETATM    5  C14 UNK     1      32.153  -5.411  35.273  1.00  0.00     0.092 A 
HETATM    6  C15 UNK     1      30.330  -5.993  37.299  1.00  0.00     0.091 A 
HETATM    7  C16 UNK     1      30.005  -8.210  36.460  1.00  0.00    -0.048 A 
HETATM    8  C17 UNK     1      31.837  -4.375  36.270  1.00  0.00     0.288 A 
HETATM    9  C18 UNK     1      29.425  -6.226  38.336  1.00  0.00     0.045 A 
HETATM   10  C19 UNK     1      29.097  -8.458  37.495  1.00  0.00     0.014 A 
HETATM   11  C20 UNK     1      28.807  -7.468  38.431  1.00  0.00    -0.059 A 
HETATM   12  C21 UNK     1      30.220  -9.363  35.532  1.00  0.00     0.049 C 
HETATM   13  C22 UNK     1      27.838  -7.739  39.532  1.00  0.00     0.048 C 
ENDROOT
BRANCH   3  14
HETATM   14  C11 UNK     1      32.000  -7.591  34.224  1.00  0.00     0.312 C 
BRANCH  14  15
HETATM   15  N2  UNK     1      31.672  -6.949  32.951  1.00  0.00     0.092 N 
HETATM   16  C4  UNK     1      32.350  -7.631  31.841  1.00  0.00     0.275 C 
HETATM   17  C2  UNK     1      32.060  -6.938  30.506  1.00  0.00     0.066 C 
HETATM   18  C1  UNK     1      30.559  -6.815  30.234  1.00  0.00     0.226 C 
HETATM   19  C3  UNK     1      29.854  -6.201  31.446  1.00  0.00     0.066 C 
HETATM   20  C5  UNK     1      30.218  -6.920  32.750  1.00  0.00     0.275 C 
BRANCH  18  21
HETATM   21  N1  UNK     1      29.978  -8.111  29.885  1.00  0.00     0.093 N 
HETATM   22  C6  UNK     1      28.528  -7.986  29.680  1.00  0.00     0.273 C 
HETATM   23  C8  UNK     1      27.897  -9.343  29.363  1.00  0.00     0.030 C 
HETATM   24  C10 UNK     1      28.563  -9.996  28.157  1.00  0.00     0.003 C 
HETATM   25  C9  UNK     1      30.075 -10.046  28.346  1.00  0.00     0.030 C 
HETATM   26  C7  UNK     1      30.637  -8.667  28.695  1.00  0.00     0.273 C 
ENDBRANCH  18  21
ENDBRANCH  14  15
ENDBRANCH   3  14
TORSDOF 3
ENDMDL
MODEL 5
REMARK VINA RESULT:      -7.9      1.713      2.222
REMARK  3 active torsions:
REMARK  status: ('A' for Active; 'I' for Inactive)
REMARK    1  A    between atoms: C1_5  and  N1_3 
REMARK    2  A    between atoms: C11_15  and  N2_4 
REMARK    3  A    between atoms: C11_15  and  C12_16 
ROOT
HETATM    1  O1  UNK     1      26.285  -6.528  38.211  1.00  0.00    -0.275 OA
HETATM    2  O2  UNK     1      26.540  -4.406  39.021  1.00  0.00    -0.260 OA
HETATM    3  C12 UNK     1      29.100  -6.796  38.303  1.00  0.00    -0.011 A 
HETATM    4  C13 UNK     1      28.263  -7.908  37.830  1.00  0.00     0.012 A 
HETATM    5  C14 UNK     1      28.506  -5.657  38.688  1.00  0.00     0.092 A 
HETATM    6  C15 UNK     1      26.879  -7.738  37.799  1.00  0.00     0.091 A 
HETATM    7  C16 UNK     1      28.777  -9.141  37.405  1.00  0.00    -0.048 A 
HETATM    8  C17 UNK     1      27.047  -5.462  38.661  1.00  0.00     0.288 A 
HETATM    9  C18 UNK     1      26.014  -8.744  37.364  1.00  0.00     0.045 A 
HETATM   10  C19 UNK     1      27.922 -10.159  36.968  1.00  0.00     0.014 A 
HETATM   11  C20 UNK     1      26.543  -9.960  36.947  1.00  0.00    -0.059 A 
HETATM   12  C21 UNK     1      30.230  -9.495  37.375  1.00  0.00     0.049 C 
HETATM   13  C22 UNK     1      25.637 -11.049  36.480  1.00  0.00     0.048 C 
ENDROOT
BRANCH   3  14
HETATM   14  C11 UNK     1      30.582  -6.867  38.372  1.00  0.00     0.312 C 
BRANCH  14  15
HETATM   15  N2  UNK     1      31.087  -5.931  37.368  1.00  0.00     0.092 N 
HETATM   16  C4  UNK     1      32.473  -5.551  37.669  1.00  0.00     0.275 C 
HETATM   17  C2  UNK     1      32.998  -4.529  36.656  1.00  0.00     0.066 C 
HETATM   18  C1  UNK     1      32.872  -5.027  35.214  1.00  0.00     0.226 C 
HETATM   19  C3  UNK     1      31.446  -5.521  34.953  1.00  0.00     0.066 C 
HETATM   20  C5  UNK     1      30.973  -6.510  36.023  1.00  0.00     0.275 C 
BRANCH  18  21
HETATM   21  N1  UNK     1      33.853  -6.073  34.930  1.00  0.00     0.093 N 
HETATM   22  C6  UNK     1      33.728  -6.532  33.539  1.00  0.00     0.273 C 
HETATM   23  C8  UNK     1      34.715  -7.661  33.239  1.00  0.00     0.030 C 
HETATM   24  C10 UNK     1      36.149  -7.241  33.547  1.00  0.00     0.003 C 
HETATM   25  C9  UNK     1      36.249  -6.692  34.966  1.00  0.00     0.030 C 
HETATM   26  C7  UNK     1      35.213  -5.593  35.210  1.00  0.00     0.273 C 
ENDBRANCH  18  21
ENDBRANCH  14  15
ENDBRANCH   3  14
TORSDOF 3
ENDMDL
MODEL 6
REMARK VINA RESULT:      -7.9     15.486     18.025
REMARK  3 active torsions:
REMARK  status: ('A' for Active; 'I' for Inactive)
REMARK    1  A    between atoms: C1_5  and  N1_3 
REMARK    2  A    between atoms: C11_15  and  N2_4 
REMARK    3  A    between atoms: C11_15  and  C12_16 
ROOT
HETATM    1  O1  UNK     1      18.991  -0.411  33.702  1.00  0.00    -0.275 OA
HETATM    2  O2  UNK     1      18.137   0.497  35.619  1.00  0.00    -0.260 OA
HETATM    3  C12 UNK     1      18.246   1.967  32.362  1.00  0.00    -0.011 A 
HETATM    4  C13 UNK     1      18.904   0.876  31.629  1.00  0.00     0.012 A 
HETATM    5  C14 UNK     1      18.006   1.814  33.673  1.00  0.00     0.092 A 
HETATM    6  C15 UNK     1      19.257  -0.280  32.324  1.00  0.00     0.091 A 
HETATM    7  C16 UNK     1      19.203   0.928  30.260  1.00  0.00    -0.048 A 
HETATM    8  C17 UNK     1      18.372   0.600  34.420  1.00  0.00     0.288 A 
HETATM    9  C18 UNK     1      19.884  -1.362  31.704  1.00  0.00     0.045 A 
HETATM   10  C19 UNK     1      19.832  -0.147  29.625  1.00  0.00     0.014 A 
HETATM   11  C20 UNK     1      20.172  -1.291  30.345  1.00  0.00    -0.059 A 
HETATM   12  C21 UNK     1      18.899   2.088  29.365  1.00  0.00     0.049 C 
HETATM   13  C22 UNK     1      20.844  -2.434  29.662  1.00  0.00     0.048 C 
ENDROOT
BRANCH   3  14
HETATM   14  C11 UNK     1      17.825   3.238  31.720  1.00  0.00     0.312 C 
BRANCH  14  15
HETATM   15  N2  UNK     1      18.706   4.279  32.250  1.00  0.00     0.092 N 
HETATM   16  C4  UNK     1      18.709   5.451  31.365  1.00  0.00     0.275 C 
HETATM   17  C2  UNK     1      19.670   6.529  31.878  1.00  0.00     0.066 C 
HETATM   18  C1  UNK     1      19.361   6.937  33.320  1.00  0.00     0.226 C 
HETATM   19  C3  UNK     1      19.254   5.694  34.207  1.00  0.00     0.066 C 
HETATM   20  C5  UNK     1      18.307   4.644  33.615  1.00  0.00     0.275 C 
BRANCH  18  21
HETATM   21  N1  UNK     1      18.142   7.743  33.391  1.00  0.00     0.093 N 
HETATM   22  C6  UNK     1      17.171   7.127  34.306  1.00  0.00     0.273 C 
HETATM   23  C8  UNK     1      15.871   7.931  34.354  1.00  0.00     0.030 C 
HETATM   24  C10 UNK     1      16.132   9.385  34.735  1.00  0.00     0.003 C 
HETATM   25  C9  UNK     1      17.200   9.988  33.830  1.00  0.00     0.030 C 
HETATM   26  C7  UNK     1      18.458   9.118  33.799  1.00  0.00     0.273 C 
ENDBRANCH  18  21
ENDBRANCH  14  15
ENDBRANCH   3  14
TORSDOF 3
ENDMDL
MODEL 7
REMARK VINA RESULT:      -7.7     35.144     36.694
REMARK  3 active torsions:
REMARK  status: ('A' for Active; 'I' for Inactive)
REMARK    1  A    between atoms: C1_5  and  N1_3 
REMARK    2  A    between atoms: C11_15  and  N2_4 
REMARK    3  A    between atoms: C11_15  and  C12_16 
ROOT
HETATM    1  O1  UNK     1      14.324   5.135   8.350  1.00  0.00    -0.275 OA
HETATM    2  O2  UNK     1      16.282   4.679   9.438  1.00  0.00    -0.260 OA
HETATM    3  C12 UNK     1      14.080   7.447   9.962  1.00  0.00    -0.011 A 
HETATM    4  C13 UNK     1      13.053   7.129   8.960  1.00  0.00     0.012 A 
HETATM    5  C14 UNK     1      15.130   6.624  10.097  1.00  0.00     0.092 A 
HETATM    6  C15 UNK     1      13.208   5.980   8.183  1.00  0.00     0.091 A 
HETATM    7  C16 UNK     1      11.917   7.917   8.733  1.00  0.00    -0.048 A 
HETATM    8  C17 UNK     1      15.308   5.408   9.286  1.00  0.00     0.288 A 
HETATM    9  C18 UNK     1      12.280   5.606   7.210  1.00  0.00     0.045 A 
HETATM   10  C19 UNK     1      10.978   7.556   7.761  1.00  0.00     0.014 A 
HETATM   11  C20 UNK     1      11.159   6.402   7.001  1.00  0.00    -0.059 A 
HETATM   12  C21 UNK     1      11.594   9.179   9.470  1.00  0.00     0.049 C 
HETATM   13  C22 UNK     1      10.155   6.023   5.965  1.00  0.00     0.048 C 
ENDROOT
BRANCH   3  14
HETATM   14  C11 UNK     1      14.012   8.640  10.844  1.00  0.00     0.312 C 
BRANCH  14  15
HETATM   15  N2  UNK     1      15.188   9.451  10.531  1.00  0.00     0.092 N 
HETATM   16  C4  UNK     1      15.306   9.650   9.081  1.00  0.00     0.275 C 
HETATM   17  C2  UNK     1      16.564  10.452   8.732  1.00  0.00     0.066 C 
HETATM   18  C1  UNK     1      16.617  11.792   9.471  1.00  0.00     0.226 C 
HETATM   19  C3  UNK     1      16.384  11.575  10.968  1.00  0.00     0.066 C 
HETATM   20  C5  UNK     1      15.132  10.735  11.242  1.00  0.00     0.275 C 
BRANCH  18  21
HETATM   21  N1  UNK     1      15.649  12.738   8.918  1.00  0.00     0.093 N 
HETATM   22  C6  UNK     1      15.655  13.989   9.688  1.00  0.00     0.273 C 
HETATM   23  C8  UNK     1      14.613  14.973   9.153  1.00  0.00     0.030 C 
HETATM   24  C10 UNK     1      14.821  15.247   7.667  1.00  0.00     0.003 C 
HETATM   25  C9  UNK     1      14.894  13.938   6.889  1.00  0.00     0.030 C 
HETATM   26  C7  UNK     1      15.928  12.988   7.497  1.00  0.00     0.273 C 
ENDBRANCH  18  21
ENDBRANCH  14  15
ENDBRANCH   3  14
TORSDOF 3
ENDMDL
MODEL 8
REMARK VINA RESULT:      -7.7      5.818     10.670
REMARK  3 active torsions:
REMARK  status: ('A' for Active; 'I' for Inactive)
REMARK    1  A    between atoms: C1_5  and  N1_3 
REMARK    2  A    between atoms: C11_15  and  N2_4 
REMARK    3  A    between atoms: C11_15  and  C12_16 
ROOT
HETATM    1  O1  UNK     1      28.468  -9.331  38.853  1.00  0.00    -0.275 OA
HETATM    2  O2  UNK     1      27.207 -11.223  39.093  1.00  0.00    -0.260 OA
HETATM    3  C12 UNK     1      26.064  -7.841  38.892  1.00  0.00    -0.011 A 
HETATM    4  C13 UNK     1      27.357  -7.158  38.749  1.00  0.00     0.012 A 
HETATM    5  C14 UNK     1      26.044  -9.177  39.003  1.00  0.00     0.092 A 
HETATM    6  C15 UNK     1      28.521  -7.927  38.735  1.00  0.00     0.091 A 
HETATM    7  C16 UNK     1      27.494  -5.769  38.627  1.00  0.00    -0.048 A 
HETATM    8  C17 UNK     1      27.264 -10.002  38.989  1.00  0.00     0.288 A 
HETATM    9  C18 UNK     1      29.789  -7.358  38.602  1.00  0.00     0.045 A 
HETATM   10  C19 UNK     1      28.758  -5.184  38.495  1.00  0.00     0.014 A 
HETATM   11  C20 UNK     1      29.904  -5.978  38.482  1.00  0.00    -0.059 A 
HETATM   12  C21 UNK     1      26.357  -4.797  38.626  1.00  0.00     0.049 C 
HETATM   13  C22 UNK     1      31.249  -5.348  38.342  1.00  0.00     0.048 C 
ENDROOT
BRANCH   3  14
HETATM   14  C11 UNK     1      24.764  -7.121  38.916  1.00  0.00     0.312 C 
BRANCH  14  15
HETATM   15  N2  UNK     1      23.725  -8.142  38.777  1.00  0.00     0.092 N 
HETATM   16  C4  UNK     1      22.521  -7.756  39.523  1.00  0.00     0.275 C 
HETATM   17  C2  UNK     1      21.443  -8.841  39.433  1.00  0.00     0.066 C 
HETATM   18  C1  UNK     1      21.096  -9.189  37.983  1.00  0.00     0.226 C 
HETATM   19  C3  UNK     1      22.374  -9.483  37.193  1.00  0.00     0.066 C 
HETATM   20  C5  UNK     1      23.421  -8.377  37.360  1.00  0.00     0.275 C 
BRANCH  18  21
HETATM   21  N1  UNK     1      20.320  -8.121  37.355  1.00  0.00     0.093 N 
HETATM   22  C6  UNK     1      20.173  -8.372  35.914  1.00  0.00     0.273 C 
HETATM   23  C8  UNK     1      19.406  -7.238  35.232  1.00  0.00     0.030 C 
HETATM   24  C10 UNK     1      18.047  -7.015  35.887  1.00  0.00     0.003 C 
HETATM   25  C9  UNK     1      18.205  -6.837  37.393  1.00  0.00     0.030 C 
HETATM   26  C7  UNK     1      19.011  -7.984  38.006  1.00  0.00     0.273 C 
ENDBRANCH  18  21
ENDBRANCH  14  15
ENDBRANCH   3  14
TORSDOF 3
ENDMDL
MODEL 9
REMARK VINA RESULT:      -7.7      4.039      6.756
REMARK  3 active torsions:
REMARK  status: ('A' for Active; 'I' for Inactive)
REMARK    1  A    between atoms: C1_5  and  N1_3 
REMARK    2  A    between atoms: C11_15  and  N2_4 
REMARK    3  A    between atoms: C11_15  and  C12_16 
ROOT
HETATM    1  O1  UNK     1      33.808  -3.981  35.868  1.00  0.00    -0.275 OA
HETATM    2  O2  UNK     1      32.273  -2.397  36.471  1.00  0.00    -0.260 OA
HETATM    3  C12 UNK     1      31.652  -5.755  35.411  1.00  0.00    -0.011 A 
HETATM    4  C13 UNK     1      33.036  -6.196  35.190  1.00  0.00     0.012 A 
HETATM    5  C14 UNK     1      31.431  -4.501  35.833  1.00  0.00     0.092 A 
HETATM    6  C15 UNK     1      34.072  -5.293  35.426  1.00  0.00     0.091 A 
HETATM    7  C16 UNK     1      33.381  -7.481  34.750  1.00  0.00    -0.048 A 
HETATM    8  C17 UNK     1      32.514  -3.536  36.087  1.00  0.00     0.288 A 
HETATM    9  C18 UNK     1      35.414  -5.631  35.240  1.00  0.00     0.045 A 
HETATM   10  C19 UNK     1      34.721  -7.835  34.559  1.00  0.00     0.014 A 
HETATM   11  C20 UNK     1      35.736  -6.911  34.803  1.00  0.00    -0.059 A 
HETATM   12  C21 UNK     1      32.402  -8.571  34.448  1.00  0.00     0.049 C 
HETATM   13  C22 UNK     1      37.162  -7.294  34.596  1.00  0.00     0.048 C 
ENDROOT
BRANCH   3  14
HETATM   14  C11 UNK     1      30.474  -6.635  35.196  1.00  0.00     0.312 C 
BRANCH  14  15
HETATM   15  N2  UNK     1      29.735  -6.065  34.069  1.00  0.00     0.092 N 
HETATM   16  C4  UNK     1      30.587  -6.000  32.875  1.00  0.00     0.275 C 
HETATM   17  C2  UNK     1      29.844  -5.355  31.700  1.00  0.00     0.066 C 
HETATM   18  C1  UNK     1      28.526  -6.068  31.389  1.00  0.00     0.226 C 
HETATM   19  C3  UNK     1      27.700  -6.224  32.669  1.00  0.00     0.066 C 
HETATM   20  C5  UNK     1      28.514  -6.839  33.811  1.00  0.00     0.275 C 
BRANCH  18  21
HETATM   21  N1  UNK     1      28.765  -7.363  30.754  1.00  0.00     0.093 N 
HETATM   22  C6  UNK     1      27.492  -7.990  30.370  1.00  0.00     0.273 C 
HETATM   23  C8  UNK     1      27.721  -9.368  29.748  1.00  0.00     0.030 C 
HETATM   24  C10 UNK     1      28.669  -9.289  28.556  1.00  0.00     0.003 C 
HETATM   25  C9  UNK     1      29.953  -8.565  28.946  1.00  0.00     0.030 C 
HETATM   26  C7  UNK     1      29.653  -7.211  29.593  1.00  0.00     0.273 C 
ENDBRANCH  18  21
ENDBRANCH  14  15
ENDBRANCH   3  14
TORSDOF 3
ENDMDL
MODEL 10
REMARK VINA RESULT:      -7.7      5.338      7.402
REMARK  3 active torsions:
REMARK  status: ('A' for Active; 'I' for Inactive)
REMARK    1  A    between atoms: C1_5  and  N1_3 
REMARK    2  A    between atoms: C11_15  and  N2_4 
REMARK    3  A    between atoms: C11_15  and  C12_16 
ROOT
HETATM    1  O1  UNK     1      29.194  -9.392  28.877  1.00  0.00    -0.275 OA
HETATM    2  O2  UNK     1      30.874 -10.719  28.076  1.00  0.00    -0.260 OA
HETATM    3  C12 UNK     1      31.178  -7.781  30.090  1.00  0.00    -0.011 A 
HETATM    4  C13 UNK     1      29.755  -7.442  30.236  1.00  0.00     0.012 A 
HETATM    5  C14 UNK     1      31.516  -8.863  29.375  1.00  0.00     0.092 A 
HETATM    6  C15 UNK     1      28.806  -8.260  29.623  1.00  0.00     0.091 A 
HETATM    7  C16 UNK     1      29.289  -6.335  30.959  1.00  0.00    -0.048 A 
HETATM    8  C17 UNK     1      30.527  -9.737  28.722  1.00  0.00     0.288 A 
HETATM    9  C18 UNK     1      27.436  -8.010  29.712  1.00  0.00     0.045 A 
HETATM   10  C19 UNK     1      27.919  -6.071  31.057  1.00  0.00     0.014 A 
HETATM   11  C20 UNK     1      26.994  -6.907  30.434  1.00  0.00    -0.059 A 
HETATM   12  C21 UNK     1      30.164  -5.355  31.674  1.00  0.00     0.049 C 
HETATM   13  C22 UNK     1      25.534  -6.618  30.541  1.00  0.00     0.048 C 
ENDROOT
BRANCH   3  14
HETATM   14  C11 UNK     1      32.270  -6.981  30.704  1.00  0.00     0.312 C 
BRANCH  14  15
HETATM   15  N2  UNK     1      32.961  -7.875  31.633  1.00  0.00     0.092 N 
HETATM   16  C4  UNK     1      34.228  -7.278  32.074  1.00  0.00     0.275 C 
HETATM   17  C2  UNK     1      34.991  -8.225  33.007  1.00  0.00     0.066 C 
HETATM   18  C1  UNK     1      34.146  -8.656  34.207  1.00  0.00     0.226 C 
HETATM   19  C3  UNK     1      32.785  -9.174  33.733  1.00  0.00     0.066 C 
HETATM   20  C5  UNK     1      32.097  -8.195  32.777  1.00  0.00     0.275 C 
BRANCH  18  21
HETATM   21  N1  UNK     1      33.990  -7.561  35.163  1.00  0.00     0.093 N 
HETATM   22  C6  UNK     1      33.289  -8.026  36.369  1.00  0.00     0.273 C 
HETATM   23  C8  UNK     1      33.074  -6.880  37.359  1.00  0.00     0.030 C 
HETATM   24  C10 UNK     1      34.392  -6.205  37.722  1.00  0.00     0.003 C 
HETATM   25  C9  UNK     1      35.147  -5.800  36.461  1.00  0.00     0.030 C 
HETATM   26  C7  UNK     1      35.297  -6.981  35.499  1.00  0.00     0.273 C 
ENDBRANCH  18  21
ENDBRANCH  14  15
ENDBRANCH   3  14
TORSDOF 3
ENDMDL
