MODEL 1
REMARK VINA RESULT:      -9.3      0.000      0.000
REMARK  6 active torsions:
REMARK  status: ('A' for Active; 'I' for Inactive)
REMARK    1  A    between atoms: C9_14  and  O3_3 
REMARK    2  A    between atoms: C10_15  and  O4_4 
REMARK    3  A    between atoms: C18_23  and  O5_5 
REMARK    4  A    between atoms: C1_6  and  C7_12 
REMARK    5  A    between atoms: C6_11  and  C8_13 
REMARK    6  A    between atoms: C14_19  and  C8_13 
ROOT
HETATM    1  O1  UNK     1      18.901   0.404  32.746  1.00  0.00    -0.339 OA
HETATM    2  O2  UNK     1      20.877  -3.114  32.005  1.00  0.00    -0.292 OA
HETATM    3  C1  UNK     1      18.769  -0.713  33.638  1.00  0.00     0.169 C 
HETATM    4  C2  UNK     1      20.035  -1.569  33.636  1.00  0.00     0.121 C 
HETATM    5  C3  UNK     1      19.209   0.030  31.463  1.00  0.00     0.095 A 
HETATM    6  C4  UNK     1      19.861  -1.165  31.144  1.00  0.00     0.077 A 
HETATM    7  C5  UNK     1      20.292  -2.062  32.236  1.00  0.00     0.167 C 
HETATM    8  C6  UNK     1      18.864   0.925  30.449  1.00  0.00     0.013 A 
HETATM    9  C9  UNK     1      20.139  -1.484  29.813  1.00  0.00     0.085 A 
HETATM   10  C10 UNK     1      19.141   0.609  29.119  1.00  0.00     0.077 A 
HETATM   11  C11 UNK     1      19.773  -0.594  28.801  1.00  0.00     0.074 A 
ENDROOT
BRANCH   3  12
HETATM   12  C7  UNK     1      18.469  -0.186  35.025  1.00  0.00    -0.028 A 
HETATM   13  C12 UNK     1      18.498   1.187  35.270  1.00  0.00     0.012 A 
HETATM   14  C15 UNK     1      18.223   1.672  36.548  1.00  0.00     0.037 A 
HETATM   15  C18 UNK     1      17.918   0.785  37.580  1.00  0.00     0.065 A 
HETATM   16  C16 UNK     1      17.889  -0.588  37.335  1.00  0.00     0.037 A 
HETATM   17  C13 UNK     1      18.165  -1.073  36.057  1.00  0.00     0.012 A 
BRANCH  15  18
HETATM   18  O5  UNK     1      17.649   1.260  38.827  1.00  0.00    -0.361 OA
HETATM   19  H20 UNK     1      17.936   2.188  38.880  1.00  0.00     0.217 HD
ENDBRANCH  15  18
ENDBRANCH   3  12
BRANCH   8  20
HETATM   20  C8  UNK     1      18.186   2.217  30.777  1.00  0.00     0.072 C 
BRANCH  20  21
HETATM   21  C14 UNK     1      18.995   3.422  30.367  1.00  0.00    -0.020 C 
HETATM   22  C17 UNK     1      18.958   4.663  30.888  1.00  0.00    -0.091 C 
HETATM   23  C19 UNK     1      19.797   5.823  30.430  1.00  0.00     0.042 C 
HETATM   24  C20 UNK     1      18.015   4.986  32.018  1.00  0.00     0.042 C 
ENDBRANCH  20  21
ENDBRANCH   8  20
BRANCH   9  25
HETATM   25  O3  UNK     1      20.767  -2.635  29.447  1.00  0.00    -0.360 OA
HETATM   26  H12 UNK     1      21.373  -2.914  30.155  1.00  0.00     0.217 HD
ENDBRANCH   9  25
BRANCH  10  27
HETATM   27  O4  UNK     1      18.803   1.466  28.114  1.00  0.00    -0.360 OA
HETATM   28  H13 UNK     1      18.592   0.952  27.315  1.00  0.00     0.217 HD
ENDBRANCH  10  27
TORSDOF 6
ENDMDL
MODEL 2
REMARK VINA RESULT:      -9.1      2.048      5.783
REMARK  6 active torsions:
REMARK  status: ('A' for Active; 'I' for Inactive)
REMARK    1  A    between atoms: C9_14  and  O3_3 
REMARK    2  A    between atoms: C10_15  and  O4_4 
REMARK    3  A    between atoms: C18_23  and  O5_5 
REMARK    4  A    between atoms: C1_6  and  C7_12 
REMARK    5  A    between atoms: C6_11  and  C8_13 
REMARK    6  A    between atoms: C14_19  and  C8_13 
ROOT
HETATM    1  O1  UNK     1      18.576   1.957  31.925  1.00  0.00    -0.339 OA
HETATM    2  O2  UNK     1      19.340   0.311  28.245  1.00  0.00    -0.292 OA
HETATM    3  C1  UNK     1      19.063   2.768  30.845  1.00  0.00     0.169 C 
HETATM    4  C2  UNK     1      18.601   2.221  29.496  1.00  0.00     0.121 C 
HETATM    5  C3  UNK     1      18.937   0.639  31.808  1.00  0.00     0.095 A 
HETATM    6  C4  UNK     1      19.231   0.026  30.587  1.00  0.00     0.077 A 
HETATM    7  C5  UNK     1      19.104   0.809  29.341  1.00  0.00     0.167 C 
HETATM    8  C6  UNK     1      18.977  -0.107  32.987  1.00  0.00     0.013 A 
HETATM    9  C9  UNK     1      19.597  -1.322  30.543  1.00  0.00     0.085 A 
HETATM   10  C10 UNK     1      19.341  -1.453  32.946  1.00  0.00     0.077 A 
HETATM   11  C11 UNK     1      19.655  -2.057  31.728  1.00  0.00     0.074 A 
ENDROOT
BRANCH   3  12
HETATM   12  C7  UNK     1      18.576   4.187  31.054  1.00  0.00    -0.028 A 
HETATM   13  C12 UNK     1      18.947   5.190  30.158  1.00  0.00     0.012 A 
HETATM   14  C15 UNK     1      18.499   6.496  30.351  1.00  0.00     0.037 A 
HETATM   15  C18 UNK     1      17.680   6.799  31.439  1.00  0.00     0.065 A 
HETATM   16  C16 UNK     1      17.310   5.795  32.335  1.00  0.00     0.037 A 
HETATM   17  C13 UNK     1      17.759   4.490  32.142  1.00  0.00     0.012 A 
BRANCH  15  18
HETATM   18  O5  UNK     1      17.243   8.075  31.626  1.00  0.00    -0.361 OA
HETATM   19  H20 UNK     1      17.867   8.688  31.200  1.00  0.00     0.217 HD
ENDBRANCH  15  18
ENDBRANCH   3  12
BRANCH   8  20
HETATM   20  C8  UNK     1      18.644   0.530  34.299  1.00  0.00     0.072 C 
BRANCH  20  21
HETATM   21  C14 UNK     1      17.203   0.327  34.697  1.00  0.00    -0.020 C 
HETATM   22  C17 UNK     1      16.621   0.613  35.877  1.00  0.00    -0.091 C 
HETATM   23  C19 UNK     1      15.173   0.384  36.208  1.00  0.00     0.042 C 
HETATM   24  C20 UNK     1      17.430   1.202  37.003  1.00  0.00     0.042 C 
ENDBRANCH  20  21
ENDBRANCH   8  20
BRANCH   9  25
HETATM   25  O3  UNK     1      19.898  -1.965  29.382  1.00  0.00    -0.360 OA
HETATM   26  H12 UNK     1      20.531  -2.681  29.561  1.00  0.00     0.217 HD
ENDBRANCH   9  25
BRANCH  10  27
HETATM   27  O4  UNK     1      19.396  -2.196  34.088  1.00  0.00    -0.360 OA
HETATM   28  H13 UNK     1      20.288  -2.129  34.469  1.00  0.00     0.217 HD
ENDBRANCH  10  27
TORSDOF 6
ENDMDL
MODEL 3
REMARK VINA RESULT:      -8.5      1.445      1.954
REMARK  6 active torsions:
REMARK  status: ('A' for Active; 'I' for Inactive)
REMARK    1  A    between atoms: C9_14  and  O3_3 
REMARK    2  A    between atoms: C10_15  and  O4_4 
REMARK    3  A    between atoms: C18_23  and  O5_5 
REMARK    4  A    between atoms: C1_6  and  C7_12 
REMARK    5  A    between atoms: C6_11  and  C8_13 
REMARK    6  A    between atoms: C14_19  and  C8_13 
ROOT
HETATM    1  O1  UNK     1      19.040   0.187  32.763  1.00  0.00    -0.339 OA
HETATM    2  O2  UNK     1      20.730  -2.536  30.201  1.00  0.00    -0.292 OA
HETATM    3  C1  UNK     1      18.985  -1.219  33.046  1.00  0.00     0.169 C 
HETATM    4  C2  UNK     1      20.197  -1.944  32.464  1.00  0.00     0.121 C 
HETATM    5  C3  UNK     1      19.147   0.458  31.423  1.00  0.00     0.095 A 
HETATM    6  C4  UNK     1      19.692  -0.436  30.497  1.00  0.00     0.077 A 
HETATM    7  C5  UNK     1      20.232  -1.725  30.974  1.00  0.00     0.167 C 
HETATM    8  C6  UNK     1      18.702   1.711  30.999  1.00  0.00     0.013 A 
HETATM    9  C9  UNK     1      19.764  -0.095  29.144  1.00  0.00     0.085 A 
HETATM   10  C10 UNK     1      18.774   2.055  29.649  1.00  0.00     0.077 A 
HETATM   11  C11 UNK     1      19.300   1.152  28.724  1.00  0.00     0.074 A 
ENDROOT
BRANCH   3  12
HETATM   12  C7  UNK     1      18.909  -1.403  34.548  1.00  0.00    -0.028 A 
HETATM   13  C12 UNK     1      19.873  -2.166  35.206  1.00  0.00     0.012 A 
HETATM   14  C15 UNK     1      19.802  -2.336  36.588  1.00  0.00     0.037 A 
HETATM   15  C18 UNK     1      18.768  -1.741  37.312  1.00  0.00     0.065 A 
HETATM   16  C16 UNK     1      17.804  -0.978  36.653  1.00  0.00     0.037 A 
HETATM   17  C13 UNK     1      17.875  -0.810  35.271  1.00  0.00     0.012 A 
BRANCH  15  18
HETATM   18  O5  UNK     1      18.700  -1.907  38.661  1.00  0.00    -0.361 OA
HETATM   19  H20 UNK     1      19.324  -2.605  38.926  1.00  0.00     0.217 HD
ENDBRANCH  15  18
ENDBRANCH   3  12
BRANCH   8  20
HETATM   20  C8  UNK     1      18.137   2.687  31.982  1.00  0.00     0.072 C 
BRANCH  20  21
HETATM   21  C14 UNK     1      18.441   4.120  31.624  1.00  0.00    -0.020 C 
HETATM   22  C17 UNK     1      18.654   5.156  32.457  1.00  0.00    -0.091 C 
HETATM   23  C19 UNK     1      18.955   6.565  32.031  1.00  0.00     0.042 C 
HETATM   24  C20 UNK     1      18.591   4.959  33.949  1.00  0.00     0.042 C 
ENDBRANCH  20  21
ENDBRANCH   8  20
BRANCH   9  25
HETATM   25  O3  UNK     1      20.281  -0.930  28.201  1.00  0.00    -0.360 OA
HETATM   26  H12 UNK     1      19.787  -0.826  27.370  1.00  0.00     0.217 HD
ENDBRANCH   9  25
BRANCH  10  27
HETATM   27  O4  UNK     1      18.336   3.271  29.215  1.00  0.00    -0.360 OA
HETATM   28  H13 UNK     1      18.342   3.896  29.959  1.00  0.00     0.217 HD
ENDBRANCH  10  27
TORSDOF 6
ENDMDL
MODEL 4
REMARK VINA RESULT:      -8.4      6.766     10.195
REMARK  6 active torsions:
REMARK  status: ('A' for Active; 'I' for Inactive)
REMARK    1  A    between atoms: C9_14  and  O3_3 
REMARK    2  A    between atoms: C10_15  and  O4_4 
REMARK    3  A    between atoms: C18_23  and  O5_5 
REMARK    4  A    between atoms: C1_6  and  C7_12 
REMARK    5  A    between atoms: C6_11  and  C8_13 
REMARK    6  A    between atoms: C14_19  and  C8_13 
ROOT
HETATM    1  O1  UNK     1      17.769   8.689  32.887  1.00  0.00    -0.339 OA
HETATM    2  O2  UNK     1      14.322   7.070  31.359  1.00  0.00    -0.292 OA
HETATM    3  C1  UNK     1      17.695   7.293  32.562  1.00  0.00     0.169 C 
HETATM    4  C2  UNK     1      16.721   7.047  31.412  1.00  0.00     0.121 C 
HETATM    5  C3  UNK     1      16.546   9.233  33.187  1.00  0.00     0.095 A 
HETATM    6  C4  UNK     1      15.336   8.715  32.716  1.00  0.00     0.077 A 
HETATM    7  C5  UNK     1      15.357   7.551  31.807  1.00  0.00     0.167 C 
HETATM    8  C6  UNK     1      16.547  10.378  33.985  1.00  0.00     0.013 A 
HETATM    9  C9  UNK     1      14.125   9.318  33.068  1.00  0.00     0.085 A 
HETATM   10  C10 UNK     1      15.341  10.983  34.336  1.00  0.00     0.077 A 
HETATM   11  C11 UNK     1      14.133  10.451  33.882  1.00  0.00     0.074 A 
ENDROOT
BRANCH   3  12
HETATM   12  C7  UNK     1      19.087   6.809  32.211  1.00  0.00    -0.028 A 
HETATM   13  C12 UNK     1      19.328   6.224  30.968  1.00  0.00     0.012 A 
HETATM   14  C15 UNK     1      20.609   5.778  30.645  1.00  0.00     0.037 A 
HETATM   15  C18 UNK     1      21.648   5.917  31.565  1.00  0.00     0.065 A 
HETATM   16  C16 UNK     1      21.406   6.501  32.809  1.00  0.00     0.037 A 
HETATM   17  C13 UNK     1      20.125   6.946  33.131  1.00  0.00     0.012 A 
BRANCH  15  18
HETATM   18  O5  UNK     1      22.899   5.481  31.249  1.00  0.00    -0.361 OA
HETATM   19  H20 UNK     1      23.455   6.249  31.033  1.00  0.00     0.217 HD
ENDBRANCH  15  18
ENDBRANCH   3  12
BRANCH   8  20
HETATM   20  C8  UNK     1      17.836  10.956  34.478  1.00  0.00     0.072 C 
BRANCH  20  21
HETATM   21  C14 UNK     1      18.452  11.925  33.501  1.00  0.00    -0.020 C 
HETATM   22  C17 UNK     1      18.419  13.272  33.535  1.00  0.00    -0.091 C 
HETATM   23  C19 UNK     1      19.058  14.181  32.524  1.00  0.00     0.042 C 
HETATM   24  C20 UNK     1      17.692  13.987  34.642  1.00  0.00     0.042 C 
ENDBRANCH  20  21
ENDBRANCH   8  20
BRANCH   9  25
HETATM   25  O3  UNK     1      12.920   8.852  32.641  1.00  0.00    -0.360 OA
HETATM   26  H12 UNK     1      12.243   9.537  32.767  1.00  0.00     0.217 HD
ENDBRANCH   9  25
BRANCH  10  27
HETATM   27  O4  UNK     1      15.321  12.096  35.122  1.00  0.00    -0.360 OA
HETATM   28  H13 UNK     1      15.110  11.837  36.036  1.00  0.00     0.217 HD
ENDBRANCH  10  27
TORSDOF 6
ENDMDL
MODEL 5
REMARK VINA RESULT:      -8.2      2.546      5.888
REMARK  6 active torsions:
REMARK  status: ('A' for Active; 'I' for Inactive)
REMARK    1  A    between atoms: C9_14  and  O3_3 
REMARK    2  A    between atoms: C10_15  and  O4_4 
REMARK    3  A    between atoms: C18_23  and  O5_5 
REMARK    4  A    between atoms: C1_6  and  C7_12 
REMARK    5  A    between atoms: C6_11  and  C8_13 
REMARK    6  A    between atoms: C14_19  and  C8_13 
ROOT
HETATM    1  O1  UNK     1      18.193   2.868  33.077  1.00  0.00    -0.339 OA
HETATM    2  O2  UNK     1      18.802   2.245  29.068  1.00  0.00    -0.292 OA
HETATM    3  C1  UNK     1      18.655   3.932  32.231  1.00  0.00     0.169 C 
HETATM    4  C2  UNK     1      18.138   3.762  30.804  1.00  0.00     0.121 C 
HETATM    5  C3  UNK     1      18.529   1.626  32.604  1.00  0.00     0.095 A 
HETATM    6  C4  UNK     1      18.771   1.354  31.254  1.00  0.00     0.077 A 
HETATM    7  C5  UNK     1      18.613   2.438  30.264  1.00  0.00     0.167 C 
HETATM    8  C6  UNK     1      18.599   0.595  33.542  1.00  0.00     0.013 A 
HETATM    9  C9  UNK     1      19.115   0.064  30.844  1.00  0.00     0.085 A 
HETATM   10  C10 UNK     1      18.941  -0.695  33.135  1.00  0.00     0.077 A 
HETATM   11  C11 UNK     1      19.202  -0.959  31.790  1.00  0.00     0.074 A 
ENDROOT
BRANCH   3  12
HETATM   12  C7  UNK     1      18.197   5.248  32.824  1.00  0.00    -0.028 A 
HETATM   13  C12 UNK     1      18.985   5.894  33.777  1.00  0.00     0.012 A 
HETATM   14  C15 UNK     1      18.563   7.106  34.323  1.00  0.00     0.037 A 
HETATM   15  C18 UNK     1      17.355   7.671  33.917  1.00  0.00     0.065 A 
HETATM   16  C16 UNK     1      16.567   7.024  32.964  1.00  0.00     0.037 A 
HETATM   17  C13 UNK     1      16.989   5.813  32.419  1.00  0.00     0.012 A 
BRANCH  15  18
HETATM   18  O5  UNK     1      16.944   8.854  34.451  1.00  0.00    -0.361 OA
HETATM   19  H20 UNK     1      16.840   8.747  35.412  1.00  0.00     0.217 HD
ENDBRANCH  15  18
ENDBRANCH   3  12
BRANCH   8  20
HETATM   20  C8  UNK     1      18.322   0.866  34.987  1.00  0.00     0.072 C 
BRANCH  20  21
HETATM   21  C14 UNK     1      16.858   0.753  35.332  1.00  0.00    -0.020 C 
HETATM   22  C17 UNK     1      16.276   0.894  36.538  1.00  0.00    -0.091 C 
HETATM   23  C19 UNK     1      14.804   0.768  36.812  1.00  0.00     0.042 C 
HETATM   24  C20 UNK     1      17.111   1.192  37.756  1.00  0.00     0.042 C 
ENDBRANCH  20  21
ENDBRANCH   8  20
BRANCH   9  25
HETATM   25  O3  UNK     1      19.364  -0.253  29.543  1.00  0.00    -0.360 OA
HETATM   26  H12 UNK     1      18.589  -0.033  29.000  1.00  0.00     0.217 HD
ENDBRANCH   9  25
BRANCH  10  27
HETATM   27  O4  UNK     1      19.024  -1.713  34.038  1.00  0.00    -0.360 OA
HETATM   28  H13 UNK     1      18.385  -2.405  33.797  1.00  0.00     0.217 HD
ENDBRANCH  10  27
TORSDOF 6
ENDMDL
MODEL 6
REMARK VINA RESULT:      -8.1     12.071     14.666
REMARK  6 active torsions:
REMARK  status: ('A' for Active; 'I' for Inactive)
REMARK    1  A    between atoms: C9_14  and  O3_3 
REMARK    2  A    between atoms: C10_15  and  O4_4 
REMARK    3  A    between atoms: C18_23  and  O5_5 
REMARK    4  A    between atoms: C1_6  and  C7_12 
REMARK    5  A    between atoms: C6_11  and  C8_13 
REMARK    6  A    between atoms: C14_19  and  C8_13 
ROOT
HETATM    1  O1  UNK     1      27.912  -8.487  35.523  1.00  0.00    -0.339 OA
HETATM    2  O2  UNK     1      29.574  -5.214  37.355  1.00  0.00    -0.292 OA
HETATM    3  C1  UNK     1      28.087  -7.255  34.807  1.00  0.00     0.169 C 
HETATM    4  C2  UNK     1      29.291  -6.479  35.336  1.00  0.00     0.121 C 
HETATM    5  C3  UNK     1      27.791  -8.305  36.877  1.00  0.00     0.095 A 
HETATM    6  C4  UNK     1      28.315  -7.201  37.556  1.00  0.00     0.077 A 
HETATM    7  C5  UNK     1      29.085  -6.192  36.801  1.00  0.00     0.167 C 
HETATM    8  C6  UNK     1      27.127  -9.306  37.588  1.00  0.00     0.013 A 
HETATM    9  C9  UNK     1      28.149  -7.078  38.938  1.00  0.00     0.085 A 
HETATM   10  C10 UNK     1      26.960  -9.186  38.967  1.00  0.00     0.077 A 
HETATM   11  C11 UNK     1      27.466  -8.073  39.640  1.00  0.00     0.074 A 
ENDROOT
BRANCH   3  12
HETATM   12  C7  UNK     1      28.249  -7.576  33.335  1.00  0.00    -0.028 A 
HETATM   13  C12 UNK     1      28.770  -8.809  32.944  1.00  0.00     0.012 A 
HETATM   14  C15 UNK     1      28.920  -9.104  31.590  1.00  0.00     0.037 A 
HETATM   15  C18 UNK     1      28.547  -8.166  30.627  1.00  0.00     0.065 A 
HETATM   16  C16 UNK     1      28.026  -6.933  31.019  1.00  0.00     0.037 A 
HETATM   17  C13 UNK     1      27.877  -6.639  32.373  1.00  0.00     0.012 A 
BRANCH  15  18
HETATM   18  O5  UNK     1      28.693  -8.455  29.305  1.00  0.00    -0.361 OA
HETATM   19  H20 UNK     1      27.858  -8.261  28.845  1.00  0.00     0.217 HD
ENDBRANCH  15  18
ENDBRANCH   3  12
BRANCH   8  20
HETATM   20  C8  UNK     1      26.579 -10.503  36.877  1.00  0.00     0.072 C 
BRANCH  20  21
HETATM   21  C14 UNK     1      25.135 -10.335  36.477  1.00  0.00    -0.020 C 
HETATM   22  C17 UNK     1      24.267 -11.286  36.083  1.00  0.00    -0.091 C 
HETATM   23  C19 UNK     1      22.834 -11.048  35.698  1.00  0.00     0.042 C 
HETATM   24  C20 UNK     1      24.704 -12.724  35.990  1.00  0.00     0.042 C 
ENDBRANCH  20  21
ENDBRANCH   8  20
BRANCH   9  25
HETATM   25  O3  UNK     1      28.635  -6.022  39.646  1.00  0.00    -0.360 OA
HETATM   26  H12 UNK     1      28.530  -6.193  40.598  1.00  0.00     0.217 HD
ENDBRANCH   9  25
BRANCH  10  27
HETATM   27  O4  UNK     1      26.306 -10.148  39.678  1.00  0.00    -0.360 OA
HETATM   28  H13 UNK     1      26.910 -10.895  39.833  1.00  0.00     0.217 HD
ENDBRANCH  10  27
TORSDOF 6
ENDMDL
MODEL 7
REMARK VINA RESULT:      -8.0      1.858      5.107
REMARK  6 active torsions:
REMARK  status: ('A' for Active; 'I' for Inactive)
REMARK    1  A    between atoms: C9_14  and  O3_3 
REMARK    2  A    between atoms: C10_15  and  O4_4 
REMARK    3  A    between atoms: C18_23  and  O5_5 
REMARK    4  A    between atoms: C1_6  and  C7_12 
REMARK    5  A    between atoms: C6_11  and  C8_13 
REMARK    6  A    between atoms: C14_19  and  C8_13 
ROOT
HETATM    1  O1  UNK     1      18.750   1.625  31.693  1.00  0.00    -0.339 OA
HETATM    2  O2  UNK     1      18.073   1.934  27.658  1.00  0.00    -0.292 OA
HETATM    3  C1  UNK     1      18.725   2.908  31.049  1.00  0.00     0.169 C 
HETATM    4  C2  UNK     1      17.794   2.897  29.838  1.00  0.00     0.121 C 
HETATM    5  C3  UNK     1      19.102   0.608  30.843  1.00  0.00     0.095 A 
HETATM    6  C4  UNK     1      18.917   0.661  29.459  1.00  0.00     0.077 A 
HETATM    7  C5  UNK     1      18.266   1.847  28.866  1.00  0.00     0.167 C 
HETATM    8  C6  UNK     1      19.646  -0.538  31.427  1.00  0.00     0.013 A 
HETATM    9  C9  UNK     1      19.306  -0.412  28.652  1.00  0.00     0.085 A 
HETATM   10  C10 UNK     1      20.033  -1.611  30.625  1.00  0.00     0.077 A 
HETATM   11  C11 UNK     1      19.867  -1.546  29.240  1.00  0.00     0.074 A 
ENDROOT
BRANCH   3  12
HETATM   12  C7  UNK     1      18.289   3.944  32.064  1.00  0.00    -0.028 A 
HETATM   13  C12 UNK     1      17.808   5.181  31.633  1.00  0.00     0.012 A 
HETATM   14  C15 UNK     1      17.407   6.135  32.567  1.00  0.00     0.037 A 
HETATM   15  C18 UNK     1      17.485   5.853  33.931  1.00  0.00     0.065 A 
HETATM   16  C16 UNK     1      17.966   4.615  34.361  1.00  0.00     0.037 A 
HETATM   17  C13 UNK     1      18.368   3.662  33.426  1.00  0.00     0.012 A 
BRANCH  15  18
HETATM   18  O5  UNK     1      17.093   6.785  34.842  1.00  0.00    -0.361 OA
HETATM   19  H20 UNK     1      16.270   6.487  35.265  1.00  0.00     0.217 HD
ENDBRANCH  15  18
ENDBRANCH   3  12
BRANCH   8  20
HETATM   20  C8  UNK     1      19.828  -0.618  32.910  1.00  0.00     0.072 C 
BRANCH  20  21
HETATM   21  C14 UNK     1      18.568  -1.022  33.632  1.00  0.00    -0.020 C 
HETATM   22  C17 UNK     1      18.034  -0.473  34.740  1.00  0.00    -0.091 C 
HETATM   23  C19 UNK     1      16.768  -0.926  35.410  1.00  0.00     0.042 C 
HETATM   24  C20 UNK     1      18.716   0.687  35.418  1.00  0.00     0.042 C 
ENDBRANCH  20  21
ENDBRANCH   8  20
BRANCH   9  25
HETATM   25  O3  UNK     1      19.153  -0.408  27.299  1.00  0.00    -0.360 OA
HETATM   26  H12 UNK     1      18.388  -0.958  27.057  1.00  0.00     0.217 HD
ENDBRANCH   9  25
BRANCH  10  27
HETATM   27  O4  UNK     1      20.574  -2.734  31.175  1.00  0.00    -0.360 OA
HETATM   28  H13 UNK     1      20.098  -3.514  30.842  1.00  0.00     0.217 HD
ENDBRANCH  10  27
TORSDOF 6
ENDMDL
MODEL 8
REMARK VINA RESULT:      -7.9     17.233     19.916
REMARK  6 active torsions:
REMARK  status: ('A' for Active; 'I' for Inactive)
REMARK    1  A    between atoms: C9_14  and  O3_3 
REMARK    2  A    between atoms: C10_15  and  O4_4 
REMARK    3  A    between atoms: C18_23  and  O5_5 
REMARK    4  A    between atoms: C1_6  and  C7_12 
REMARK    5  A    between atoms: C6_11  and  C8_13 
REMARK    6  A    between atoms: C14_19  and  C8_13 
ROOT
HETATM    1  O1  UNK     1      18.178  -4.301  13.762  1.00  0.00    -0.339 OA
HETATM    2  O2  UNK     1      19.329  -0.802  15.569  1.00  0.00    -0.292 OA
HETATM    3  C1  UNK     1      18.201  -4.187  15.193  1.00  0.00     0.169 C 
HETATM    4  C2  UNK     1      17.930  -2.749  15.634  1.00  0.00     0.121 C 
HETATM    5  C3  UNK     1      19.058  -3.450  13.145  1.00  0.00     0.095 A 
HETATM    6  C4  UNK     1      19.505  -2.255  13.717  1.00  0.00     0.077 A 
HETATM    7  C5  UNK     1      18.975  -1.846  15.033  1.00  0.00     0.167 C 
HETATM    8  C6  UNK     1      19.490  -3.812  11.868  1.00  0.00     0.013 A 
HETATM    9  C9  UNK     1      20.408  -1.438  13.031  1.00  0.00     0.085 A 
HETATM   10  C10 UNK     1      20.391  -2.998  11.181  1.00  0.00     0.077 A 
HETATM   11  C11 UNK     1      20.852  -1.816  11.763  1.00  0.00     0.074 A 
ENDROOT
BRANCH   3  12
HETATM   12  C7  UNK     1      17.169  -5.137  15.765  1.00  0.00    -0.028 A 
HETATM   13  C12 UNK     1      16.375  -4.737  16.841  1.00  0.00     0.012 A 
HETATM   14  C15 UNK     1      15.426  -5.612  17.368  1.00  0.00     0.037 A 
HETATM   15  C18 UNK     1      15.271  -6.885  16.820  1.00  0.00     0.065 A 
HETATM   16  C16 UNK     1      16.066  -7.285  15.745  1.00  0.00     0.037 A 
HETATM   17  C13 UNK     1      17.015  -6.410  15.219  1.00  0.00     0.012 A 
BRANCH  15  18
HETATM   18  O5  UNK     1      14.344  -7.739  17.336  1.00  0.00    -0.361 OA
HETATM   19  H20 UNK     1      14.702  -8.643  17.316  1.00  0.00     0.217 HD
ENDBRANCH  15  18
ENDBRANCH   3  12
BRANCH   8  20
HETATM   20  C8  UNK     1      19.004  -5.077  11.234  1.00  0.00     0.072 C 
BRANCH  20  21
HETATM   21  C14 UNK     1      19.799  -6.286  11.658  1.00  0.00    -0.020 C 
HETATM   22  C17 UNK     1      19.341  -7.516  11.959  1.00  0.00    -0.091 C 
HETATM   23  C19 UNK     1      20.193  -8.682  12.376  1.00  0.00     0.042 C 
HETATM   24  C20 UNK     1      17.866  -7.814  11.901  1.00  0.00     0.042 C 
ENDBRANCH  20  21
ENDBRANCH   8  20
BRANCH   9  25
HETATM   25  O3  UNK     1      20.878  -0.268  13.545  1.00  0.00    -0.360 OA
HETATM   26  H12 UNK     1      21.818  -0.168  13.318  1.00  0.00     0.217 HD
ENDBRANCH   9  25
BRANCH  10  27
HETATM   27  O4  UNK     1      20.832  -3.340   9.937  1.00  0.00    -0.360 OA
HETATM   28  H13 UNK     1      20.487  -4.219   9.707  1.00  0.00     0.217 HD
ENDBRANCH  10  27
TORSDOF 6
ENDMDL
MODEL 9
REMARK VINA RESULT:      -7.9     12.350     15.482
REMARK  6 active torsions:
REMARK  status: ('A' for Active; 'I' for Inactive)
REMARK    1  A    between atoms: C9_14  and  O3_3 
REMARK    2  A    between atoms: C10_15  and  O4_4 
REMARK    3  A    between atoms: C18_23  and  O5_5 
REMARK    4  A    between atoms: C1_6  and  C7_12 
REMARK    5  A    between atoms: C6_11  and  C8_13 
REMARK    6  A    between atoms: C14_19  and  C8_13 
ROOT
HETATM    1  O1  UNK     1      29.972  -7.428  37.379  1.00  0.00    -0.339 OA
HETATM    2  O2  UNK     1      28.684  -3.962  39.159  1.00  0.00    -0.292 OA
HETATM    3  C1  UNK     1      30.629  -6.179  37.115  1.00  0.00     0.169 C 
HETATM    4  C2  UNK     1      30.531  -5.242  38.318  1.00  0.00     0.121 C 
HETATM    5  C3  UNK     1      28.659  -7.273  37.744  1.00  0.00     0.095 A 
HETATM    6  C4  UNK     1      28.155  -6.110  38.334  1.00  0.00     0.077 A 
HETATM    7  C5  UNK     1      29.078  -4.997  38.632  1.00  0.00     0.167 C 
HETATM    8  C6  UNK     1      27.815  -8.363  37.526  1.00  0.00     0.013 A 
HETATM    9  C9  UNK     1      26.803  -6.021  38.675  1.00  0.00     0.085 A 
HETATM   10  C10 UNK     1      26.465  -8.277  37.867  1.00  0.00     0.077 A 
HETATM   11  C11 UNK     1      25.960  -7.107  38.436  1.00  0.00     0.074 A 
ENDROOT
BRANCH   3  12
HETATM   12  C7  UNK     1      32.074  -6.464  36.762  1.00  0.00    -0.028 A 
HETATM   13  C12 UNK     1      33.100  -5.933  37.544  1.00  0.00     0.012 A 
HETATM   14  C15 UNK     1      34.430  -6.194  37.218  1.00  0.00     0.037 A 
HETATM   15  C18 UNK     1      34.735  -6.987  36.112  1.00  0.00     0.065 A 
HETATM   16  C16 UNK     1      33.708  -7.518  35.330  1.00  0.00     0.037 A 
HETATM   17  C13 UNK     1      32.378  -7.255  35.656  1.00  0.00     0.012 A 
BRANCH  15  18
HETATM   18  O5  UNK     1      36.034  -7.242  35.795  1.00  0.00    -0.361 OA
HETATM   19  H20 UNK     1      36.297  -8.088  36.197  1.00  0.00     0.217 HD
ENDBRANCH  15  18
ENDBRANCH   3  12
BRANCH   8  20
HETATM   20  C8  UNK     1      28.345  -9.622  36.916  1.00  0.00     0.072 C 
BRANCH  20  21
HETATM   21  C14 UNK     1      28.240  -9.631  35.412  1.00  0.00    -0.020 C 
HETATM   22  C17 UNK     1      29.195  -9.942  34.514  1.00  0.00    -0.091 C 
HETATM   23  C19 UNK     1      29.021  -9.931  33.022  1.00  0.00     0.042 C 
HETATM   24  C20 UNK     1      30.574 -10.332  34.976  1.00  0.00     0.042 C 
ENDBRANCH  20  21
ENDBRANCH   8  20
BRANCH   9  25
HETATM   25  O3  UNK     1      26.260  -4.911  39.246  1.00  0.00    -0.360 OA
HETATM   26  H12 UNK     1      25.370  -4.761  38.885  1.00  0.00     0.217 HD
ENDBRANCH   9  25
BRANCH  10  27
HETATM   27  O4  UNK     1      25.623  -9.327  37.653  1.00  0.00    -0.360 OA
HETATM   28  H13 UNK     1      24.713  -9.052  37.856  1.00  0.00     0.217 HD
ENDBRANCH  10  27
TORSDOF 6
ENDMDL
MODEL 10
REMARK VINA RESULT:      -7.9     23.706     25.608
REMARK  6 active torsions:
REMARK  status: ('A' for Active; 'I' for Inactive)
REMARK    1  A    between atoms: C9_14  and  O3_3 
REMARK    2  A    between atoms: C10_15  and  O4_4 
REMARK    3  A    between atoms: C18_23  and  O5_5 
REMARK    4  A    between atoms: C1_6  and  C7_12 
REMARK    5  A    between atoms: C6_11  and  C8_13 
REMARK    6  A    between atoms: C14_19  and  C8_13 
ROOT
HETATM    1  O1  UNK     1      13.156   8.145   9.108  1.00  0.00    -0.339 OA
HETATM    2  O2  UNK     1      15.613   4.861   9.220  1.00  0.00    -0.292 OA
HETATM    3  C1  UNK     1      12.926   7.026   8.238  1.00  0.00     0.169 C 
HETATM    4  C2  UNK     1      13.400   5.725   8.882  1.00  0.00     0.121 C 
HETATM    5  C3  UNK     1      14.468   8.264   9.488  1.00  0.00     0.095 A 
HETATM    6  C4  UNK     1      15.361   7.189   9.526  1.00  0.00     0.077 A 
HETATM    7  C5  UNK     1      14.871   5.837   9.189  1.00  0.00     0.167 C 
HETATM    8  C6  UNK     1      14.896   9.535   9.877  1.00  0.00     0.013 A 
HETATM    9  C9  UNK     1      16.687   7.385   9.919  1.00  0.00     0.085 A 
HETATM   10  C10 UNK     1      16.219   9.733  10.270  1.00  0.00     0.077 A 
HETATM   11  C11 UNK     1      17.113   8.662  10.287  1.00  0.00     0.074 A 
ENDROOT
BRANCH   3  12
HETATM   12  C7  UNK     1      11.447   6.968   7.915  1.00  0.00    -0.028 A 
HETATM   13  C12 UNK     1      11.025   6.538   6.657  1.00  0.00     0.012 A 
HETATM   14  C15 UNK     1       9.664   6.485   6.360  1.00  0.00     0.037 A 
HETATM   15  C18 UNK     1       8.725   6.860   7.320  1.00  0.00     0.065 A 
HETATM   16  C16 UNK     1       9.148   7.290   8.578  1.00  0.00     0.037 A 
HETATM   17  C13 UNK     1      10.509   7.344   8.875  1.00  0.00     0.012 A 
BRANCH  15  18
HETATM   18  O5  UNK     1       7.396   6.808   7.029  1.00  0.00    -0.361 OA
HETATM   19  H20 UNK     1       7.218   6.004   6.511  1.00  0.00     0.217 HD
ENDBRANCH  15  18
ENDBRANCH   3  12
BRANCH   8  20
HETATM   20  C8  UNK     1      13.947  10.691   9.862  1.00  0.00     0.072 C 
BRANCH  20  21
HETATM   21  C14 UNK     1      13.259  10.898  11.188  1.00  0.00    -0.020 C 
HETATM   22  C17 UNK     1      11.938  10.890  11.448  1.00  0.00    -0.091 C 
HETATM   23  C19 UNK     1      11.317  11.104  12.799  1.00  0.00     0.042 C 
HETATM   24  C20 UNK     1      10.946  10.665  10.337  1.00  0.00     0.042 C 
ENDBRANCH  20  21
ENDBRANCH   8  20
BRANCH   9  25
HETATM   25  O3  UNK     1      17.597   6.374   9.969  1.00  0.00    -0.360 OA
HETATM   26  H12 UNK     1      17.150   5.545  10.212  1.00  0.00     0.217 HD
ENDBRANCH   9  25
BRANCH  10  27
HETATM   27  O4  UNK     1      16.658  10.968  10.645  1.00  0.00    -0.360 OA
HETATM   28  H13 UNK     1      16.927  10.941  11.579  1.00  0.00     0.217 HD
ENDBRANCH  10  27
TORSDOF 6
ENDMDL
