MODEL 1
REMARK VINA RESULT:      -8.6      0.000      0.000
REMARK  6 active torsions:
REMARK  status: ('A' for Active; 'I' for Inactive)
REMARK    1  A    between atoms: C12_20  and  O2_2 
REMARK    2  A    between atoms: C14_22  and  O5_5 
REMARK    3  A    between atoms: C23_31  and  O5_5 
REMARK    4  A    between atoms: C12_20  and  C2_10 
REMARK    5  A    between atoms: C11_19  and  C6_14 
REMARK    6  A    between atoms: C14_22  and  C8_16 
ROOT
HETATM    1  O1  UNK     1      29.005  -9.524  36.479  1.00  0.00    -0.292 OA
HETATM    2  N1  UNK     1      30.489  -5.182  37.650  1.00  0.00    -0.362 N 
HETATM    3  C1  UNK     1      27.749  -7.347  39.094  1.00  0.00     0.008 C 
HETATM    4  C2  UNK     1      28.299  -8.702  38.625  1.00  0.00     0.164 C 
HETATM    5  C3  UNK     1      28.898  -6.328  39.128  1.00  0.00     0.063 C 
HETATM    6  C4  UNK     1      29.730  -7.319  36.968  1.00  0.00     0.025 C 
HETATM    7  C5  UNK     1      29.717  -6.308  37.862  1.00  0.00     0.020 C 
HETATM    8  C6  UNK     1      30.528  -7.216  35.669  1.00  0.00     0.104 C 
HETATM    9  C7  UNK     1      28.990  -8.586  37.276  1.00  0.00     0.172 C 
HETATM   10  C8  UNK     1      31.474  -6.012  35.664  1.00  0.00     0.052 C 
HETATM   11  C9  UNK     1      26.580  -6.835  38.239  1.00  0.00     0.011 C 
HETATM   12  C10 UNK     1      31.397  -5.049  36.613  1.00  0.00     0.018 C 
HETATM   13  C13 UNK     1      32.239  -3.803  36.659  1.00  0.00     0.069 C 
HETATM   14  H9  UNK     1      30.457  -4.447  38.348  1.00  0.00     0.165 HD
ENDROOT
BRANCH   8  15
HETATM   15  C11 UNK     1      29.600  -7.153  34.483  1.00  0.00     0.029 A 
HETATM   16  C15 UNK     1      29.789  -8.132  33.381  1.00  0.00     0.194 A 
HETATM   17  O7  UNK     1      30.670  -8.981  33.410  1.00  0.00    -0.287 OA
HETATM   18  C17 UNK     1      28.856  -8.026  32.244  1.00  0.00     0.049 A 
HETATM   19  C18 UNK     1      27.871  -7.037  32.265  1.00  0.00     0.089 A 
HETATM   20  C19 UNK     1      28.952  -8.900  31.160  1.00  0.00     0.025 A 
HETATM   21  O3  UNK     1      27.732  -6.151  33.304  1.00  0.00    -0.321 OA
HETATM   22  C21 UNK     1      26.978  -6.918  31.200  1.00  0.00     0.039 A 
HETATM   23  C16 UNK     1      28.608  -6.263  34.356  1.00  0.00     0.154 A 
HETATM   24  C24 UNK     1      27.072  -7.791  30.116  1.00  0.00     0.009 A 
HETATM   25  C22 UNK     1      28.057  -8.779  30.096  1.00  0.00    -0.061 A 
HETATM   26  C25 UNK     1      28.152  -9.709  28.934  1.00  0.00     0.048 C 
ENDBRANCH   8  15
BRANCH  10  27
HETATM   27  C14 UNK     1      32.505  -5.985  34.615  1.00  0.00     0.292 C 
HETATM   28  O6  UNK     1      32.377  -5.381  33.566  1.00  0.00    -0.259 OA
BRANCH  27  29
HETATM   29  O5  UNK     1      33.561  -6.723  35.034  1.00  0.00    -0.318 OA
BRANCH  29  30
HETATM   30  C23 UNK     1      34.818  -6.036  35.040  1.00  0.00     0.174 C 
HETATM   31  C26 UNK     1      35.250  -5.814  36.473  1.00  0.00     0.034 C 
ENDBRANCH  29  30
ENDBRANCH  27  29
ENDBRANCH  10  27
BRANCH   4  32
HETATM   32  C12 UNK     1      27.232  -9.753  38.669  1.00  0.00     0.270 C 
HETATM   33  O4  UNK     1      26.560 -10.089  37.704  1.00  0.00    -0.264 OA
BRANCH  32  34
HETATM   34  O2  UNK     1      27.142 -10.256  39.933  1.00  0.00    -0.326 OA
HETATM   35  C20 UNK     1      28.391 -10.514  40.582  1.00  0.00     0.213 C 
ENDBRANCH  32  34
ENDBRANCH   4  32
TORSDOF 6
ENDMDL
MODEL 2
REMARK VINA RESULT:      -8.5      1.152      1.263
REMARK  6 active torsions:
REMARK  status: ('A' for Active; 'I' for Inactive)
REMARK    1  A    between atoms: C12_20  and  O2_2 
REMARK    2  A    between atoms: C14_22  and  O5_5 
REMARK    3  A    between atoms: C23_31  and  O5_5 
REMARK    4  A    between atoms: C12_20  and  C2_10 
REMARK    5  A    between atoms: C11_19  and  C6_14 
REMARK    6  A    between atoms: C14_22  and  C8_16 
ROOT
HETATM    1  O1  UNK     1      28.512  -9.375  36.687  1.00  0.00    -0.292 OA
HETATM    2  N1  UNK     1      31.185  -5.545  37.472  1.00  0.00    -0.362 N 
HETATM    3  C1  UNK     1      28.008  -6.743  39.132  1.00  0.00     0.008 C 
HETATM    4  C2  UNK     1      28.143  -8.229  38.768  1.00  0.00     0.164 C 
HETATM    5  C3  UNK     1      29.395  -6.086  39.064  1.00  0.00     0.063 C 
HETATM    6  C4  UNK     1      29.838  -7.431  36.981  1.00  0.00     0.025 C 
HETATM    7  C5  UNK     1      30.140  -6.392  37.788  1.00  0.00     0.020 C 
HETATM    8  C6  UNK     1      30.584  -7.653  35.666  1.00  0.00     0.104 C 
HETATM    9  C7  UNK     1      28.788  -8.413  37.403  1.00  0.00     0.172 C 
HETATM   10  C8  UNK     1      31.826  -6.765  35.548  1.00  0.00     0.052 C 
HETATM   11  C9  UNK     1      26.996  -5.991  38.254  1.00  0.00     0.011 C 
HETATM   12  C10 UNK     1      32.055  -5.750  36.414  1.00  0.00     0.018 C 
HETATM   13  C13 UNK     1      33.211  -4.789  36.345  1.00  0.00     0.069 C 
HETATM   14  H9  UNK     1      31.385  -4.781  38.107  1.00  0.00     0.165 HD
ENDROOT
BRANCH   8  15
HETATM   15  C11 UNK     1      29.666  -7.423  34.493  1.00  0.00     0.029 A 
HETATM   16  C15 UNK     1      29.680  -8.405  33.378  1.00  0.00     0.194 A 
HETATM   17  O7  UNK     1      30.409  -9.387  33.387  1.00  0.00    -0.287 OA
HETATM   18  C17 UNK     1      28.764  -8.132  32.255  1.00  0.00     0.049 A 
HETATM   19  C18 UNK     1      27.956  -6.995  32.299  1.00  0.00     0.089 A 
HETATM   20  C19 UNK     1      28.704  -8.996  31.160  1.00  0.00     0.025 A 
HETATM   21  O3  UNK     1      27.976  -6.112  33.350  1.00  0.00    -0.321 OA
HETATM   22  C21 UNK     1      27.083  -6.717  31.247  1.00  0.00     0.039 A 
HETATM   23  C16 UNK     1      28.833  -6.380  34.389  1.00  0.00     0.154 A 
HETATM   24  C24 UNK     1      27.020  -7.579  30.153  1.00  0.00     0.009 A 
HETATM   25  C22 UNK     1      27.829  -8.716  30.108  1.00  0.00    -0.061 A 
HETATM   26  C25 UNK     1      27.756  -9.634  28.935  1.00  0.00     0.048 C 
ENDBRANCH   8  15
BRANCH  10  27
HETATM   27  C14 UNK     1      32.785  -7.106  34.484  1.00  0.00     0.292 C 
HETATM   28  O6  UNK     1      32.848  -6.511  33.425  1.00  0.00    -0.259 OA
BRANCH  27  29
HETATM   29  O5  UNK     1      33.535  -8.152  34.906  1.00  0.00    -0.318 OA
BRANCH  29  30
HETATM   30  C23 UNK     1      34.379  -8.735  33.906  1.00  0.00     0.174 C 
HETATM   31  C26 UNK     1      33.858 -10.115  33.566  1.00  0.00     0.034 C 
ENDBRANCH  29  30
ENDBRANCH  27  29
ENDBRANCH  10  27
BRANCH   4  32
HETATM   32  C12 UNK     1      26.829  -8.934  38.915  1.00  0.00     0.270 C 
HETATM   33  O4  UNK     1      25.904  -8.832  38.121  1.00  0.00    -0.264 OA
BRANCH  32  34
HETATM   34  O2  UNK     1      26.841  -9.685  40.053  1.00  0.00    -0.326 OA
HETATM   35  C20 UNK     1      28.082 -10.337  40.345  1.00  0.00     0.213 C 
ENDBRANCH  32  34
ENDBRANCH   4  32
TORSDOF 6
ENDMDL
MODEL 3
REMARK VINA RESULT:      -8.3      2.112      3.000
REMARK  6 active torsions:
REMARK  status: ('A' for Active; 'I' for Inactive)
REMARK    1  A    between atoms: C12_20  and  O2_2 
REMARK    2  A    between atoms: C14_22  and  O5_5 
REMARK    3  A    between atoms: C23_31  and  O5_5 
REMARK    4  A    between atoms: C12_20  and  C2_10 
REMARK    5  A    between atoms: C11_19  and  C6_14 
REMARK    6  A    between atoms: C14_22  and  C8_16 
ROOT
HETATM    1  O1  UNK     1      29.491  -7.917  36.702  1.00  0.00    -0.292 OA
HETATM    2  N1  UNK     1      33.757  -5.860  36.680  1.00  0.00    -0.362 N 
HETATM    3  C1  UNK     1      30.625  -5.071  38.644  1.00  0.00     0.008 C 
HETATM    4  C2  UNK     1      29.979  -6.461  38.552  1.00  0.00     0.164 C 
HETATM    5  C3  UNK     1      32.137  -5.209  38.408  1.00  0.00     0.063 C 
HETATM    6  C4  UNK     1      31.617  -6.872  36.590  1.00  0.00     0.025 C 
HETATM    7  C5  UNK     1      32.480  -6.020  37.183  1.00  0.00     0.020 C 
HETATM    8  C6  UNK     1      31.996  -7.618  35.311  1.00  0.00     0.104 C 
HETATM    9  C7  UNK     1      30.283  -7.131  37.221  1.00  0.00     0.172 C 
HETATM   10  C8  UNK     1      33.487  -7.493  34.988  1.00  0.00     0.052 C 
HETATM   11  C9  UNK     1      30.006  -4.046  37.682  1.00  0.00     0.011 C 
HETATM   12  C10 UNK     1      34.283  -6.617  35.646  1.00  0.00     0.018 C 
HETATM   13  C13 UNK     1      35.741  -6.380  35.361  1.00  0.00     0.069 C 
HETATM   14  H9  UNK     1      34.377  -5.217  37.158  1.00  0.00     0.165 HD
ENDROOT
BRANCH   8  15
HETATM   15  C11 UNK     1      31.169  -7.128  34.149  1.00  0.00     0.029 A 
HETATM   16  C15 UNK     1      30.399  -8.122  33.358  1.00  0.00     0.194 A 
HETATM   17  O7  UNK     1      30.416  -9.317  33.621  1.00  0.00    -0.287 OA
HETATM   18  C17 UNK     1      29.609  -7.590  32.232  1.00  0.00     0.049 A 
HETATM   19  C18 UNK     1      29.627  -6.218  31.978  1.00  0.00     0.089 A 
HETATM   20  C19 UNK     1      28.851  -8.444  31.428  1.00  0.00     0.025 A 
HETATM   21  O3  UNK     1      30.355  -5.334  32.735  1.00  0.00    -0.321 OA
HETATM   22  C21 UNK     1      28.888  -5.694  30.917  1.00  0.00     0.039 A 
HETATM   23  C16 UNK     1      31.085  -5.843  33.780  1.00  0.00     0.154 A 
HETATM   24  C24 UNK     1      28.130  -6.545  30.114  1.00  0.00     0.009 A 
HETATM   25  C22 UNK     1      28.111  -7.917  30.368  1.00  0.00    -0.061 A 
HETATM   26  C25 UNK     1      27.298  -8.821  29.505  1.00  0.00     0.048 C 
ENDBRANCH   8  15
BRANCH  10  27
HETATM   27  C14 UNK     1      34.023  -8.411  33.970  1.00  0.00     0.292 C 
HETATM   28  O6  UNK     1      34.265  -9.584  34.188  1.00  0.00    -0.259 OA
BRANCH  27  29
HETATM   29  O5  UNK     1      34.179  -7.724  32.814  1.00  0.00    -0.318 OA
BRANCH  29  30
HETATM   30  C23 UNK     1      33.735  -8.407  31.636  1.00  0.00     0.174 C 
HETATM   31  C26 UNK     1      32.989  -7.432  30.752  1.00  0.00     0.034 C 
ENDBRANCH  29  30
ENDBRANCH  27  29
ENDBRANCH  10  27
BRANCH   4  32
HETATM   32  C12 UNK     1      28.517  -6.389  38.872  1.00  0.00     0.270 C 
HETATM   33  O4  UNK     1      27.734  -5.618  38.335  1.00  0.00    -0.264 OA
BRANCH  32  34
HETATM   34  O2  UNK     1      28.217  -7.305  39.838  1.00  0.00    -0.326 OA
HETATM   35  C20 UNK     1      27.371  -8.381  39.421  1.00  0.00     0.213 C 
ENDBRANCH  32  34
ENDBRANCH   4  32
TORSDOF 6
ENDMDL
MODEL 4
REMARK VINA RESULT:      -8.2      2.757      3.737
REMARK  6 active torsions:
REMARK  status: ('A' for Active; 'I' for Inactive)
REMARK    1  A    between atoms: C12_20  and  O2_2 
REMARK    2  A    between atoms: C14_22  and  O5_5 
REMARK    3  A    between atoms: C23_31  and  O5_5 
REMARK    4  A    between atoms: C12_20  and  C2_10 
REMARK    5  A    between atoms: C11_19  and  C6_14 
REMARK    6  A    between atoms: C14_22  and  C8_16 
ROOT
HETATM    1  O1  UNK     1      30.973 -10.113  35.586  1.00  0.00    -0.292 OA
HETATM    2  N1  UNK     1      34.758  -7.317  36.124  1.00  0.00    -0.362 N 
HETATM    3  C1  UNK     1      31.591  -7.634  38.161  1.00  0.00     0.008 C 
HETATM    4  C2  UNK     1      31.222  -9.063  37.734  1.00  0.00     0.164 C 
HETATM    5  C3  UNK     1      33.093  -7.416  37.926  1.00  0.00     0.063 C 
HETATM    6  C4  UNK     1      32.852  -8.677  35.760  1.00  0.00     0.025 C 
HETATM    7  C5  UNK     1      33.551  -7.836  36.551  1.00  0.00     0.020 C 
HETATM    8  C6  UNK     1      33.331  -9.015  34.349  1.00  0.00     0.104 C 
HETATM    9  C7  UNK     1      31.612  -9.331  36.289  1.00  0.00     0.172 C 
HETATM   10  C8  UNK     1      34.761  -8.530  34.091  1.00  0.00     0.052 C 
HETATM   11  C9  UNK     1      30.757  -6.553  37.456  1.00  0.00     0.011 C 
HETATM   12  C10 UNK     1      35.390  -7.695  34.950  1.00  0.00     0.018 C 
HETATM   13  C13 UNK     1      36.766  -7.118  34.755  1.00  0.00     0.069 C 
HETATM   14  H9  UNK     1      35.255  -6.695  36.750  1.00  0.00     0.165 HD
ENDROOT
BRANCH   8  15
HETATM   15  C11 UNK     1      32.393  -8.438  33.320  1.00  0.00     0.029 A 
HETATM   16  C15 UNK     1      31.721  -9.366  32.374  1.00  0.00     0.194 A 
HETATM   17  O7  UNK     1      31.907 -10.575  32.406  1.00  0.00    -0.287 OA
HETATM   18  C17 UNK     1      30.815  -8.750  31.386  1.00  0.00     0.049 A 
HETATM   19  C18 UNK     1      30.642  -7.365  31.396  1.00  0.00     0.089 A 
HETATM   20  C19 UNK     1      30.137  -9.537  30.454  1.00  0.00     0.025 A 
HETATM   21  O3  UNK     1      31.284  -6.544  32.289  1.00  0.00    -0.321 OA
HETATM   22  C21 UNK     1      29.790  -6.761  30.470  1.00  0.00     0.039 A 
HETATM   23  C16 UNK     1      32.125  -7.132  33.202  1.00  0.00     0.154 A 
HETATM   24  C24 UNK     1      29.111  -7.546  29.539  1.00  0.00     0.009 A 
HETATM   25  C22 UNK     1      29.284  -8.930  29.529  1.00  0.00    -0.061 A 
HETATM   26  C25 UNK     1      28.555  -9.764  28.531  1.00  0.00     0.048 C 
ENDBRANCH   8  15
BRANCH  10  27
HETATM   27  C14 UNK     1      35.435  -9.063  32.896  1.00  0.00     0.292 C 
HETATM   28  O6  UNK     1      35.921 -10.178  32.843  1.00  0.00    -0.259 OA
BRANCH  27  29
HETATM   29  O5  UNK     1      35.401  -8.116  31.928  1.00  0.00    -0.318 OA
BRANCH  29  30
HETATM   30  C23 UNK     1      35.007  -8.585  30.634  1.00  0.00     0.174 C 
HETATM   31  C26 UNK     1      34.093  -7.560  29.996  1.00  0.00     0.034 C 
ENDBRANCH  29  30
ENDBRANCH  27  29
ENDBRANCH  10  27
BRANCH   4  32
HETATM   32  C12 UNK     1      29.784  -9.354  38.036  1.00  0.00     0.270 C 
HETATM   33  O4  UNK     1      28.844  -8.896  37.401  1.00  0.00    -0.264 OA
BRANCH  32  34
HETATM   34  O2  UNK     1      29.705 -10.192  39.109  1.00  0.00    -0.326 OA
HETATM   35  C20 UNK     1      28.446 -10.202  39.789  1.00  0.00     0.213 C 
ENDBRANCH  32  34
ENDBRANCH   4  32
TORSDOF 6
ENDMDL
MODEL 5
REMARK VINA RESULT:      -8.1      2.449      6.479
REMARK  6 active torsions:
REMARK  status: ('A' for Active; 'I' for Inactive)
REMARK    1  A    between atoms: C12_20  and  O2_2 
REMARK    2  A    between atoms: C14_22  and  O5_5 
REMARK    3  A    between atoms: C23_31  and  O5_5 
REMARK    4  A    between atoms: C12_20  and  C2_10 
REMARK    5  A    between atoms: C11_19  and  C6_14 
REMARK    6  A    between atoms: C14_22  and  C8_16 
ROOT
HETATM    1  O1  UNK     1      30.183  -9.247  31.824  1.00  0.00    -0.292 OA
HETATM    2  N1  UNK     1      28.197  -6.377  35.025  1.00  0.00    -0.362 N 
HETATM    3  C1  UNK     1      27.858  -6.520  31.264  1.00  0.00     0.008 C 
HETATM    4  C2  UNK     1      28.274  -7.987  31.084  1.00  0.00     0.164 C 
HETATM    5  C3  UNK     1      27.382  -6.312  32.710  1.00  0.00     0.063 C 
HETATM    6  C4  UNK     1      29.283  -7.783  33.459  1.00  0.00     0.025 C 
HETATM    7  C5  UNK     1      28.338  -6.862  33.739  1.00  0.00     0.020 C 
HETATM    8  C6  UNK     1      30.268  -8.255  34.528  1.00  0.00     0.104 C 
HETATM    9  C7  UNK     1      29.338  -8.393  32.092  1.00  0.00     0.172 C 
HETATM   10  C8  UNK     1      29.872  -7.785  35.930  1.00  0.00     0.052 C 
HETATM   11  C9  UNK     1      28.967  -5.522  30.898  1.00  0.00     0.011 C 
HETATM   12  C10 UNK     1      28.898  -6.862  36.117  1.00  0.00     0.018 C 
HETATM   13  C13 UNK     1      28.479  -6.295  37.446  1.00  0.00     0.069 C 
HETATM   14  H9  UNK     1      27.471  -5.691  35.197  1.00  0.00     0.165 HD
ENDROOT
BRANCH   8  15
HETATM   15  C11 UNK     1      31.665  -7.792  34.200  1.00  0.00     0.029 A 
HETATM   16  C15 UNK     1      32.729  -8.814  34.024  1.00  0.00     0.194 A 
HETATM   17  O7  UNK     1      32.504 -10.011  34.137  1.00  0.00    -0.287 OA
HETATM   18  C17 UNK     1      34.077  -8.307  33.706  1.00  0.00     0.049 A 
HETATM   19  C18 UNK     1      34.274  -6.931  33.590  1.00  0.00     0.089 A 
HETATM   20  C19 UNK     1      35.144  -9.189  33.522  1.00  0.00     0.025 A 
HETATM   21  O3  UNK     1      33.262  -6.019  33.762  1.00  0.00    -0.321 OA
HETATM   22  C21 UNK     1      35.541  -6.429  33.291  1.00  0.00     0.039 A 
HETATM   23  C16 UNK     1      32.012  -6.506  34.057  1.00  0.00     0.154 A 
HETATM   24  C24 UNK     1      36.608  -7.308  33.106  1.00  0.00     0.009 A 
HETATM   25  C22 UNK     1      36.411  -8.685  33.222  1.00  0.00    -0.061 A 
HETATM   26  C25 UNK     1      37.556  -9.619  33.022  1.00  0.00     0.048 C 
ENDBRANCH   8  15
BRANCH  10  27
HETATM   27  C14 UNK     1      30.558  -8.427  37.063  1.00  0.00     0.292 C 
HETATM   28  O6  UNK     1      30.281  -9.540  37.468  1.00  0.00    -0.259 OA
BRANCH  27  29
HETATM   29  O5  UNK     1      31.503  -7.575  37.528  1.00  0.00    -0.318 OA
BRANCH  29  30
HETATM   30  C23 UNK     1      32.796  -8.156  37.730  1.00  0.00     0.174 C 
HETATM   31  C26 UNK     1      33.854  -7.165  37.295  1.00  0.00     0.034 C 
ENDBRANCH  29  30
ENDBRANCH  27  29
ENDBRANCH  10  27
BRANCH   4  32
HETATM   32  C12 UNK     1      28.655  -8.261  29.660  1.00  0.00     0.270 C 
HETATM   33  O4  UNK     1      29.567  -7.695  29.074  1.00  0.00    -0.264 OA
BRANCH  32  34
HETATM   34  O2  UNK     1      27.832  -9.219  29.146  1.00  0.00    -0.326 OA
HETATM   35  C20 UNK     1      28.470 -10.189  28.309  1.00  0.00     0.213 C 
ENDBRANCH  32  34
ENDBRANCH   4  32
TORSDOF 6
ENDMDL
MODEL 6
REMARK VINA RESULT:      -8.0      2.840      6.989
REMARK  6 active torsions:
REMARK  status: ('A' for Active; 'I' for Inactive)
REMARK    1  A    between atoms: C12_20  and  O2_2 
REMARK    2  A    between atoms: C14_22  and  O5_5 
REMARK    3  A    between atoms: C23_31  and  O5_5 
REMARK    4  A    between atoms: C12_20  and  C2_10 
REMARK    5  A    between atoms: C11_19  and  C6_14 
REMARK    6  A    between atoms: C14_22  and  C8_16 
ROOT
HETATM    1  O1  UNK     1      30.476  -6.767  31.873  1.00  0.00    -0.292 OA
HETATM    2  N1  UNK     1      34.645  -8.999  32.131  1.00  0.00    -0.362 N 
HETATM    3  C1  UNK     1      31.369 -10.024  30.550  1.00  0.00     0.008 C 
HETATM    4  C2  UNK     1      30.788  -8.615  30.366  1.00  0.00     0.164 C 
HETATM    5  C3  UNK     1      32.897  -9.921  30.673  1.00  0.00     0.063 C 
HETATM    6  C4  UNK     1      32.559  -7.877  32.105  1.00  0.00     0.025 C 
HETATM    7  C5  UNK     1      33.347  -8.883  31.671  1.00  0.00     0.020 C 
HETATM    8  C6  UNK     1      33.046  -6.893  33.167  1.00  0.00     0.104 C 
HETATM    9  C7  UNK     1      31.201  -7.689  31.500  1.00  0.00     0.172 C 
HETATM   10  C8  UNK     1      34.548  -7.025  33.434  1.00  0.00     0.052 C 
HETATM   11  C9  UNK     1      30.767 -10.781  31.744  1.00  0.00     0.011 C 
HETATM   12  C10 UNK     1      35.264  -8.065  32.945  1.00  0.00     0.018 C 
HETATM   13  C13 UNK     1      36.726  -8.314  33.201  1.00  0.00     0.069 C 
HETATM   14  H9  UNK     1      35.207  -9.764  31.776  1.00  0.00     0.165 HD
ENDROOT
BRANCH   8  15
HETATM   15  C11 UNK     1      32.273  -7.072  34.449  1.00  0.00     0.029 A 
HETATM   16  C15 UNK     1      31.738  -5.865  35.130  1.00  0.00     0.194 A 
HETATM   17  O7  UNK     1      31.907  -4.739  34.683  1.00  0.00    -0.287 OA
HETATM   18  C17 UNK     1      30.991  -6.097  36.380  1.00  0.00     0.049 A 
HETATM   19  C18 UNK     1      30.830  -7.404  36.842  1.00  0.00     0.089 A 
HETATM   20  C19 UNK     1      30.449  -5.026  37.094  1.00  0.00     0.025 A 
HETATM   21  O3  UNK     1      31.342  -8.492  36.181  1.00  0.00    -0.321 OA
HETATM   22  C21 UNK     1      30.127  -7.646  38.023  1.00  0.00     0.039 A 
HETATM   23  C16 UNK     1      32.035  -8.261  35.018  1.00  0.00     0.154 A 
HETATM   24  C24 UNK     1      29.584  -6.578  38.737  1.00  0.00     0.009 A 
HETATM   25  C22 UNK     1      29.745  -5.271  38.275  1.00  0.00    -0.061 A 
HETATM   26  C25 UNK     1      29.162  -4.134  39.044  1.00  0.00     0.048 C 
ENDBRANCH   8  15
BRANCH  10  27
HETATM   27  C14 UNK     1      35.184  -5.938  34.196  1.00  0.00     0.292 C 
HETATM   28  O6  UNK     1      35.308  -4.806  33.769  1.00  0.00    -0.259 OA
BRANCH  27  29
HETATM   29  O5  UNK     1      35.573  -6.429  35.397  1.00  0.00    -0.318 OA
BRANCH  29  30
HETATM   30  C23 UNK     1      35.147  -5.667  36.532  1.00  0.00     0.174 C 
HETATM   31  C26 UNK     1      34.444  -6.586  37.507  1.00  0.00     0.034 C 
ENDBRANCH  29  30
ENDBRANCH  27  29
ENDBRANCH  10  27
BRANCH   4  32
HETATM   32  C12 UNK     1      29.307  -8.675  30.144  1.00  0.00     0.270 C 
HETATM   33  O4  UNK     1      28.476  -8.602  31.038  1.00  0.00    -0.264 OA
BRANCH  32  34
HETATM   34  O2  UNK     1      29.053  -8.820  28.812  1.00  0.00    -0.326 OA
HETATM   35  C20 UNK     1      28.223  -9.933  28.463  1.00  0.00     0.213 C 
ENDBRANCH  32  34
ENDBRANCH   4  32
TORSDOF 6
ENDMDL
MODEL 7
REMARK VINA RESULT:      -8.0      2.384      6.688
REMARK  6 active torsions:
REMARK  status: ('A' for Active; 'I' for Inactive)
REMARK    1  A    between atoms: C12_20  and  O2_2 
REMARK    2  A    between atoms: C14_22  and  O5_5 
REMARK    3  A    between atoms: C23_31  and  O5_5 
REMARK    4  A    between atoms: C12_20  and  C2_10 
REMARK    5  A    between atoms: C11_19  and  C6_14 
REMARK    6  A    between atoms: C14_22  and  C8_16 
ROOT
HETATM    1  O1  UNK     1      30.195  -9.221  31.935  1.00  0.00    -0.292 OA
HETATM    2  N1  UNK     1      28.373  -6.264  35.155  1.00  0.00    -0.362 N 
HETATM    3  C1  UNK     1      27.951  -6.421  31.403  1.00  0.00     0.008 C 
HETATM    4  C2  UNK     1      28.314  -7.903  31.224  1.00  0.00     0.164 C 
HETATM    5  C3  UNK     1      27.513  -6.187  32.856  1.00  0.00     0.063 C 
HETATM    6  C4  UNK     1      29.379  -7.717  33.577  1.00  0.00     0.025 C 
HETATM    7  C5  UNK     1      28.471  -6.762  33.870  1.00  0.00     0.020 C 
HETATM    8  C6  UNK     1      30.369  -8.214  34.629  1.00  0.00     0.104 C 
HETATM    9  C7  UNK     1      29.384  -8.338  32.213  1.00  0.00     0.172 C 
HETATM   10  C8  UNK     1      30.018  -7.722  36.036  1.00  0.00     0.052 C 
HETATM   11  C9  UNK     1      29.086  -5.464  31.007  1.00  0.00     0.011 C 
HETATM   12  C10 UNK     1      29.080  -6.766  36.236  1.00  0.00     0.018 C 
HETATM   13  C13 UNK     1      28.708  -6.176  37.569  1.00  0.00     0.069 C 
HETATM   14  H9  UNK     1      27.674  -5.553  35.336  1.00  0.00     0.165 HD
ENDROOT
BRANCH   8  15
HETATM   15  C11 UNK     1      31.774  -7.801  34.269  1.00  0.00     0.029 A 
HETATM   16  C15 UNK     1      32.798  -8.860  34.078  1.00  0.00     0.194 A 
HETATM   17  O7  UNK     1      32.536 -10.048  34.205  1.00  0.00    -0.287 OA
HETATM   18  C17 UNK     1      34.156  -8.401  33.730  1.00  0.00     0.049 A 
HETATM   19  C18 UNK     1      34.397  -7.032  33.600  1.00  0.00     0.089 A 
HETATM   20  C19 UNK     1      35.189  -9.319  33.530  1.00  0.00     0.025 A 
HETATM   21  O3  UNK     1      33.420  -6.087  33.785  1.00  0.00    -0.321 OA
HETATM   22  C21 UNK     1      35.674  -6.576  33.271  1.00  0.00     0.039 A 
HETATM   23  C16 UNK     1      32.160  -6.529  34.110  1.00  0.00     0.154 A 
HETATM   24  C24 UNK     1      36.706  -7.491  33.071  1.00  0.00     0.009 A 
HETATM   25  C22 UNK     1      36.465  -8.860  33.200  1.00  0.00    -0.061 A 
HETATM   26  C25 UNK     1      37.574  -9.834  32.984  1.00  0.00     0.048 C 
ENDBRANCH   8  15
BRANCH  10  27
HETATM   27  C14 UNK     1      30.705  -8.379  37.158  1.00  0.00     0.292 C 
HETATM   28  O6  UNK     1      31.678  -7.907  37.716  1.00  0.00    -0.259 OA
BRANCH  27  29
HETATM   29  O5  UNK     1      30.068  -9.544  37.426  1.00  0.00    -0.318 OA
BRANCH  29  30
HETATM   30  C23 UNK     1      29.505  -9.640  38.740  1.00  0.00     0.174 C 
HETATM   31  C26 UNK     1      27.996  -9.604  38.633  1.00  0.00     0.034 C 
ENDBRANCH  29  30
ENDBRANCH  27  29
ENDBRANCH  10  27
BRANCH   4  32
HETATM   32  C12 UNK     1      28.656  -8.198  29.796  1.00  0.00     0.270 C 
HETATM   33  O4  UNK     1      29.569  -7.662  29.184  1.00  0.00    -0.264 OA
BRANCH  32  34
HETATM   34  O2  UNK     1      27.798  -9.140  29.309  1.00  0.00    -0.326 OA
HETATM   35  C20 UNK     1      28.358 -10.043  28.350  1.00  0.00     0.213 C 
ENDBRANCH  32  34
ENDBRANCH   4  32
TORSDOF 6
ENDMDL
MODEL 8
REMARK VINA RESULT:      -7.8      1.879      5.840
REMARK  6 active torsions:
REMARK  status: ('A' for Active; 'I' for Inactive)
REMARK    1  A    between atoms: C12_20  and  O2_2 
REMARK    2  A    between atoms: C14_22  and  O5_5 
REMARK    3  A    between atoms: C23_31  and  O5_5 
REMARK    4  A    between atoms: C12_20  and  C2_10 
REMARK    5  A    between atoms: C11_19  and  C6_14 
REMARK    6  A    between atoms: C14_22  and  C8_16 
ROOT
HETATM    1  O1  UNK     1      30.602  -5.951  34.616  1.00  0.00    -0.292 OA
HETATM    2  N1  UNK     1      30.118  -8.621  38.497  1.00  0.00    -0.362 N 
HETATM    3  C1  UNK     1      33.005  -6.510  37.275  1.00  0.00     0.008 C 
HETATM    4  C2  UNK     1      32.193  -5.566  36.376  1.00  0.00     0.164 C 
HETATM    5  C3  UNK     1      32.066  -7.136  38.317  1.00  0.00     0.063 C 
HETATM    6  C4  UNK     1      30.340  -7.369  36.498  1.00  0.00     0.025 C 
HETATM    7  C5  UNK     1      30.806  -7.710  37.718  1.00  0.00     0.020 C 
HETATM    8  C6  UNK     1      29.093  -8.032  35.915  1.00  0.00     0.104 C 
HETATM    9  C7  UNK     1      31.024  -6.285  35.722  1.00  0.00     0.172 C 
HETATM   10  C8  UNK     1      28.338  -8.865  36.956  1.00  0.00     0.052 C 
HETATM   11  C9  UNK     1      33.763  -7.594  36.492  1.00  0.00     0.011 C 
HETATM   12  C10 UNK     1      28.881  -9.147  38.163  1.00  0.00     0.018 C 
HETATM   13  C13 UNK     1      28.246 -10.003  39.225  1.00  0.00     0.069 C 
HETATM   14  H9  UNK     1      30.497  -8.845  39.410  1.00  0.00     0.165 HD
ENDROOT
BRANCH   8  15
HETATM   15  C11 UNK     1      29.457  -8.889  34.728  1.00  0.00     0.029 A 
HETATM   16  C15 UNK     1      28.893  -8.537  33.400  1.00  0.00     0.194 A 
HETATM   17  O7  UNK     1      28.147  -7.580  33.243  1.00  0.00    -0.287 OA
HETATM   18  C17 UNK     1      29.279  -9.408  32.274  1.00  0.00     0.049 A 
HETATM   19  C18 UNK     1      30.132 -10.487  32.513  1.00  0.00     0.089 A 
HETATM   20  C19 UNK     1      28.800  -9.161  30.986  1.00  0.00     0.025 A 
HETATM   21  O3  UNK     1      30.630 -10.777  33.758  1.00  0.00    -0.321 OA
HETATM   22  C21 UNK     1      30.509 -11.324  31.462  1.00  0.00     0.039 A 
HETATM   23  C16 UNK     1      30.262  -9.957  34.797  1.00  0.00     0.154 A 
HETATM   24  C24 UNK     1      30.034 -11.078  30.175  1.00  0.00     0.009 A 
HETATM   25  C22 UNK     1      29.181  -9.999  29.937  1.00  0.00    -0.061 A 
HETATM   26  C25 UNK     1      28.676  -9.742  28.557  1.00  0.00     0.048 C 
ENDBRANCH   8  15
BRANCH  10  27
HETATM   27  C14 UNK     1      26.975  -9.290  36.600  1.00  0.00     0.292 C 
HETATM   28  O6  UNK     1      26.725 -10.353  36.062  1.00  0.00    -0.259 OA
BRANCH  27  29
HETATM   29  O5  UNK     1      26.112  -8.317  36.977  1.00  0.00    -0.318 OA
BRANCH  29  30
HETATM   30  C23 UNK     1      24.935  -8.776  37.651  1.00  0.00     0.174 C 
HETATM   31  C26 UNK     1      24.701  -7.917  38.874  1.00  0.00     0.034 C 
ENDBRANCH  29  30
ENDBRANCH  27  29
ENDBRANCH  10  27
BRANCH   4  32
HETATM   32  C12 UNK     1      33.087  -4.857  35.405  1.00  0.00     0.270 C 
HETATM   33  O4  UNK     1      33.557  -5.376  34.401  1.00  0.00    -0.264 OA
BRANCH  32  34
HETATM   34  O2  UNK     1      33.282  -3.573  35.819  1.00  0.00    -0.326 OA
HETATM   35  C20 UNK     1      32.156  -2.954  36.450  1.00  0.00     0.213 C 
ENDBRANCH  32  34
ENDBRANCH   4  32
TORSDOF 6
ENDMDL
MODEL 9
REMARK VINA RESULT:      -7.7      2.459      6.367
REMARK  6 active torsions:
REMARK  status: ('A' for Active; 'I' for Inactive)
REMARK    1  A    between atoms: C12_20  and  O2_2 
REMARK    2  A    between atoms: C14_22  and  O5_5 
REMARK    3  A    between atoms: C23_31  and  O5_5 
REMARK    4  A    between atoms: C12_20  and  C2_10 
REMARK    5  A    between atoms: C11_19  and  C6_14 
REMARK    6  A    between atoms: C14_22  and  C8_16 
ROOT
HETATM    1  O1  UNK     1      29.761  -8.864  33.297  1.00  0.00    -0.292 OA
HETATM    2  N1  UNK     1      34.125  -8.174  35.003  1.00  0.00    -0.362 N 
HETATM    3  C1  UNK     1      32.705 -10.934  32.847  1.00  0.00     0.008 C 
HETATM    4  C2  UNK     1      31.518 -10.147  32.274  1.00  0.00     0.164 C 
HETATM    5  C3  UNK     1      33.771  -9.942  33.336  1.00  0.00     0.063 C 
HETATM    6  C4  UNK     1      31.906  -8.516  34.246  1.00  0.00     0.025 C 
HETATM    7  C5  UNK     1      33.214  -8.849  34.214  1.00  0.00     0.020 C 
HETATM    8  C6  UNK     1      31.388  -7.445  35.205  1.00  0.00     0.104 C 
HETATM    9  C7  UNK     1      30.953  -9.168  33.292  1.00  0.00     0.172 C 
HETATM   10  C8  UNK     1      32.524  -6.659  35.866  1.00  0.00     0.052 C 
HETATM   11  C9  UNK     1      32.306 -11.912  33.963  1.00  0.00     0.011 C 
HETATM   12  C10 UNK     1      33.812  -7.063  35.769  1.00  0.00     0.018 C 
HETATM   13  C13 UNK     1      34.987  -6.394  36.429  1.00  0.00     0.069 C 
HETATM   14  H9  UNK     1      35.098  -8.450  34.945  1.00  0.00     0.165 HD
ENDROOT
BRANCH   8  15
HETATM   15  C11 UNK     1      30.502  -8.062  36.258  1.00  0.00     0.029 A 
HETATM   16  C15 UNK     1      29.108  -7.567  36.392  1.00  0.00     0.194 A 
HETATM   17  O7  UNK     1      28.662  -6.679  35.678  1.00  0.00    -0.287 OA
HETATM   18  C17 UNK     1      28.286  -8.204  37.438  1.00  0.00     0.049 A 
HETATM   19  C18 UNK     1      28.848  -9.211  38.223  1.00  0.00     0.089 A 
HETATM   20  C19 UNK     1      26.963  -7.807  37.643  1.00  0.00     0.025 A 
HETATM   21  O3  UNK     1      30.142  -9.639  38.066  1.00  0.00    -0.321 OA
HETATM   22  C21 UNK     1      28.088  -9.827  39.219  1.00  0.00     0.039 A 
HETATM   23  C16 UNK     1      30.896  -9.037  37.088  1.00  0.00     0.154 A 
HETATM   24  C24 UNK     1      26.766  -9.433  39.424  1.00  0.00     0.009 A 
HETATM   25  C22 UNK     1      26.204  -8.426  38.639  1.00  0.00    -0.061 A 
HETATM   26  C25 UNK     1      24.790  -8.010  38.864  1.00  0.00     0.048 C 
ENDBRANCH   8  15
BRANCH  10  27
HETATM   27  C14 UNK     1      32.152  -5.415  36.559  1.00  0.00     0.292 C 
HETATM   28  O6  UNK     1      32.094  -4.333  36.005  1.00  0.00    -0.259 OA
BRANCH  27  29
HETATM   29  O5  UNK     1      31.902  -5.707  37.857  1.00  0.00    -0.318 OA
BRANCH  29  30
HETATM   30  C23 UNK     1      31.248  -4.671  38.598  1.00  0.00     0.174 C 
HETATM   31  C26 UNK     1      29.782  -5.020  38.742  1.00  0.00     0.034 C 
ENDBRANCH  29  30
ENDBRANCH  27  29
ENDBRANCH  10  27
BRANCH   4  32
HETATM   32  C12 UNK     1      30.494 -11.075  31.695  1.00  0.00     0.270 C 
HETATM   33  O4  UNK     1      29.802 -11.833  32.361  1.00  0.00    -0.264 OA
BRANCH  32  34
HETATM   34  O2  UNK     1      30.467 -10.934  30.339  1.00  0.00    -0.326 OA
HETATM   35  C20 UNK     1      29.527  -9.978  29.840  1.00  0.00     0.213 C 
ENDBRANCH  32  34
ENDBRANCH   4  32
TORSDOF 6
ENDMDL
MODEL 10
REMARK VINA RESULT:      -7.7      3.265      5.560
REMARK  6 active torsions:
REMARK  status: ('A' for Active; 'I' for Inactive)
REMARK    1  A    between atoms: C12_20  and  O2_2 
REMARK    2  A    between atoms: C14_22  and  O5_5 
REMARK    3  A    between atoms: C23_31  and  O5_5 
REMARK    4  A    between atoms: C12_20  and  C2_10 
REMARK    5  A    between atoms: C11_19  and  C6_14 
REMARK    6  A    between atoms: C14_22  and  C8_16 
ROOT
HETATM    1  O1  UNK     1      31.228  -6.785  35.932  1.00  0.00    -0.292 OA
HETATM    2  N1  UNK     1      35.240  -8.620  34.211  1.00  0.00    -0.362 N 
HETATM    3  C1  UNK     1      34.581  -5.412  36.097  1.00  0.00     0.008 C 
HETATM    4  C2  UNK     1      33.274  -5.846  36.776  1.00  0.00     0.164 C 
HETATM    5  C3  UNK     1      35.372  -6.665  35.691  1.00  0.00     0.063 C 
HETATM    6  C4  UNK     1      33.193  -7.706  34.977  1.00  0.00     0.025 C 
HETATM    7  C5  UNK     1      34.542  -7.680  34.945  1.00  0.00     0.020 C 
HETATM    8  C6  UNK     1      32.403  -8.717  34.147  1.00  0.00     0.104 C 
HETATM    9  C7  UNK     1      32.457  -6.763  35.879  1.00  0.00     0.172 C 
HETATM   10  C8  UNK     1      33.300  -9.803  33.547  1.00  0.00     0.052 C 
HETATM   11  C9  UNK     1      34.363  -4.482  34.894  1.00  0.00     0.011 C 
HETATM   12  C10 UNK     1      34.650  -9.698  33.573  1.00  0.00     0.018 C 
HETATM   13  C13 UNK     1      35.612 -10.680  32.960  1.00  0.00     0.069 C 
HETATM   14  H9  UNK     1      36.252  -8.571  34.218  1.00  0.00     0.165 HD
ENDROOT
BRANCH   8  15
HETATM   15  C11 UNK     1      31.633  -8.018  33.055  1.00  0.00     0.029 A 
HETATM   16  C15 UNK     1      30.153  -8.149  33.035  1.00  0.00     0.194 A 
HETATM   17  O7  UNK     1      29.547  -8.803  33.872  1.00  0.00    -0.287 OA
HETATM   18  C17 UNK     1      29.449  -7.447  31.946  1.00  0.00     0.049 A 
HETATM   19  C18 UNK     1      30.193  -6.716  31.018  1.00  0.00     0.089 A 
HETATM   20  C19 UNK     1      28.058  -7.509  31.840  1.00  0.00     0.025 A 
HETATM   21  O3  UNK     1      31.561  -6.621  31.074  1.00  0.00    -0.321 OA
HETATM   22  C21 UNK     1      29.548  -6.044  29.979  1.00  0.00     0.039 A 
HETATM   23  C16 UNK     1      32.203  -7.280  32.094  1.00  0.00     0.154 A 
HETATM   24  C24 UNK     1      28.159  -6.104  29.873  1.00  0.00     0.009 A 
HETATM   25  C22 UNK     1      27.415  -6.835  30.800  1.00  0.00    -0.061 A 
HETATM   26  C25 UNK     1      25.930  -6.896  30.680  1.00  0.00     0.048 C 
ENDBRANCH   8  15
BRANCH  10  27
HETATM   27  C14 UNK     1      32.626 -10.990  32.997  1.00  0.00     0.292 C 
HETATM   28  O6  UNK     1      32.231 -11.914  33.684  1.00  0.00    -0.259 OA
BRANCH  27  29
HETATM   29  O5  UNK     1      32.539 -10.847  31.653  1.00  0.00    -0.318 OA
BRANCH  29  30
HETATM   30  C23 UNK     1      31.258 -11.154  31.091  1.00  0.00     0.174 C 
HETATM   31  C26 UNK     1      30.981 -10.203  29.947  1.00  0.00     0.034 C 
ENDBRANCH  29  30
ENDBRANCH  27  29
ENDBRANCH  10  27
BRANCH   4  32
HETATM   32  C12 UNK     1      32.514  -4.656  37.276  1.00  0.00     0.270 C 
HETATM   33  O4  UNK     1      32.342  -3.632  36.631  1.00  0.00    -0.264 OA
BRANCH  32  34
HETATM   34  O2  UNK     1      32.060  -4.904  38.538  1.00  0.00    -0.326 OA
HETATM   35  C20 UNK     1      30.640  -4.835  38.705  1.00  0.00     0.213 C 
ENDBRANCH  32  34
ENDBRANCH   4  32
TORSDOF 6
ENDMDL
