MODEL 1
REMARK VINA RESULT:     -11.3      0.000      0.000
REMARK  5 active torsions:
REMARK  status: ('A' for Active; 'I' for Inactive)
REMARK       I    between atoms: C11_19  and  N1_7 
REMARK    1  A    between atoms: C6_14  and  N1_7 
REMARK       I    between atoms: C12_20  and  N2_8 
REMARK    2  A    between atoms: C7_15  and  N2_8 
REMARK    3  A    between atoms: C1_9  and  C7_15 
REMARK    4  A    between atoms: C11_19  and  C13_21 
REMARK    5  A    between atoms: C12_20  and  C14_22 
ROOT
HETATM    1  C1  UNK     1      18.229   1.453  34.863  1.00  0.00    -0.025 C 
HETATM    2  C2  UNK     1      16.456   0.690  36.680  1.00  0.00    -0.045 C 
HETATM    3  C3  UNK     1      16.793   1.559  35.440  1.00  0.00     0.019 C 
HETATM    4  C4  UNK     1      18.659  -0.025  34.756  1.00  0.00     0.036 C 
HETATM    5  C5  UNK     1      16.971  -0.751  36.486  1.00  0.00     0.034 C 
HETATM    6  C6  UNK     1      18.436  -0.821  36.044  1.00  0.00     0.086 C 
HETATM    7  C8  UNK     1      19.249   2.259  35.686  1.00  0.00     0.017 C 
HETATM    8  C9  UNK     1      17.010   1.295  37.984  1.00  0.00     0.015 C 
HETATM    9  C10 UNK     1      14.918   0.645  36.831  1.00  0.00     0.015 C 
ENDROOT
BRANCH   1  10
HETATM   10  C7  UNK     1      18.220   2.065  33.443  1.00  0.00     0.132 C 
BRANCH  10  11
HETATM   11  N2  UNK     1      18.139   3.485  33.518  1.00  0.00    -0.356 N 
HETATM   12  C12 UNK     1      18.196   4.317  32.402  1.00  0.00     0.257 C 
HETATM   13  O2  UNK     1      18.319   3.954  31.238  1.00  0.00    -0.267 OA
HETATM   14  H20 UNK     1      18.124   3.904  34.442  1.00  0.00     0.162 HD
BRANCH  12  15
HETATM   15  C14 UNK     1      18.088   5.749  32.736  1.00  0.00     0.108 A 
HETATM   16  C17 UNK     1      19.187   6.325  33.236  1.00  0.00     0.037 A 
HETATM   17  C21 UNK     1      19.179   7.734  33.597  1.00  0.00    -0.001 A 
HETATM   18  C22 UNK     1      18.012   8.468  33.412  1.00  0.00     0.089 A 
HETATM   19  C25 UNK     1      20.303   8.376  34.122  1.00  0.00     0.014 A 
HETATM   20  O4  UNK     1      16.857   7.857  32.886  1.00  0.00    -0.274 OA
HETATM   21  C27 UNK     1      17.937   9.821  33.738  1.00  0.00     0.038 A 
HETATM   22  C18 UNK     1      16.836   6.511  32.531  1.00  0.00     0.304 A 
HETATM   23  O6  UNK     1      15.826   5.987  32.074  1.00  0.00    -0.259 OA
HETATM   24  C30 UNK     1      19.063  10.453  34.261  1.00  0.00     0.003 A 
HETATM   25  C29 UNK     1      20.244   9.732  34.452  1.00  0.00     0.001 A 
ENDBRANCH  12  15
ENDBRANCH  10  11
ENDBRANCH   1  10
BRANCH   6  26
HETATM   26  N1  UNK     1      18.836  -2.198  35.851  1.00  0.00    -0.352 N 
HETATM   27  C11 UNK     1      19.490  -2.928  36.824  1.00  0.00     0.258 C 
HETATM   28  O1  UNK     1      19.814  -2.539  37.940  1.00  0.00    -0.267 OA
HETATM   29  H19 UNK     1      18.631  -2.617  34.950  1.00  0.00     0.163 HD
BRANCH  27  30
HETATM   30  C13 UNK     1      19.789  -4.306  36.392  1.00  0.00     0.108 A 
HETATM   31  C15 UNK     1      19.584  -5.267  37.300  1.00  0.00     0.037 A 
HETATM   32  C19 UNK     1      19.851  -6.658  36.969  1.00  0.00    -0.001 A 
HETATM   33  C20 UNK     1      20.321  -6.969  35.696  1.00  0.00     0.089 A 
HETATM   34  C23 UNK     1      19.651  -7.694  37.885  1.00  0.00     0.014 A 
HETATM   35  O3  UNK     1      20.535  -5.952  34.745  1.00  0.00    -0.274 OA
HETATM   36  C24 UNK     1      20.596  -8.280  35.315  1.00  0.00     0.038 A 
HETATM   37  C16 UNK     1      20.289  -4.612  35.033  1.00  0.00     0.304 A 
HETATM   38  O5  UNK     1      20.479  -3.734  34.199  1.00  0.00    -0.259 OA
HETATM   39  C28 UNK     1      20.394  -9.307  36.235  1.00  0.00     0.003 A 
HETATM   40  C26 UNK     1      19.922  -9.015  37.517  1.00  0.00     0.001 A 
ENDBRANCH  27  30
ENDBRANCH   6  26
TORSDOF 5
ENDMDL
MODEL 2
REMARK VINA RESULT:     -11.3      5.563     12.577
REMARK  5 active torsions:
REMARK  status: ('A' for Active; 'I' for Inactive)
REMARK       I    between atoms: C11_19  and  N1_7 
REMARK    1  A    between atoms: C6_14  and  N1_7 
REMARK       I    between atoms: C12_20  and  N2_8 
REMARK    2  A    between atoms: C7_15  and  N2_8 
REMARK    3  A    between atoms: C1_9  and  C7_15 
REMARK    4  A    between atoms: C11_19  and  C13_21 
REMARK    5  A    between atoms: C12_20  and  C14_22 
ROOT
HETATM    1  C1  UNK     1      22.543  -8.175  38.337  1.00  0.00    -0.025 C 
HETATM    2  C2  UNK     1      19.999  -8.898  38.170  1.00  0.00    -0.045 C 
HETATM    3  C3  UNK     1      21.359  -8.999  38.907  1.00  0.00     0.019 C 
HETATM    4  C4  UNK     1      22.091  -6.738  38.005  1.00  0.00     0.036 C 
HETATM    5  C5  UNK     1      19.668  -7.426  37.847  1.00  0.00     0.034 C 
HETATM    6  C6  UNK     1      20.815  -6.678  37.160  1.00  0.00     0.086 C 
HETATM    7  C8  UNK     1      23.179  -8.844  37.105  1.00  0.00     0.017 C 
HETATM    8  C9  UNK     1      19.962  -9.757  36.892  1.00  0.00     0.015 C 
HETATM    9  C10 UNK     1      18.902  -9.453  39.108  1.00  0.00     0.015 C 
ENDROOT
BRANCH   1  10
HETATM   10  C7  UNK     1      23.643  -8.105  39.421  1.00  0.00     0.132 C 
BRANCH  10  11
HETATM   11  N2  UNK     1      24.857  -7.609  38.864  1.00  0.00    -0.356 N 
HETATM   12  C12 UNK     1      26.089  -8.237  39.026  1.00  0.00     0.257 C 
HETATM   13  O2  UNK     1      26.294  -9.271  39.651  1.00  0.00    -0.267 OA
HETATM   14  H20 UNK     1      24.822  -6.708  38.398  1.00  0.00     0.162 HD
BRANCH  12  15
HETATM   15  C14 UNK     1      27.195  -7.533  38.351  1.00  0.00     0.108 A 
HETATM   16  C17 UNK     1      27.717  -6.488  39.004  1.00  0.00     0.037 A 
HETATM   17  C21 UNK     1      28.812  -5.730  38.420  1.00  0.00    -0.001 A 
HETATM   18  C22 UNK     1      29.305  -6.110  37.176  1.00  0.00     0.089 A 
HETATM   19  C25 UNK     1      29.387  -4.633  39.066  1.00  0.00     0.014 A 
HETATM   20  O4  UNK     1      28.751  -7.211  36.493  1.00  0.00    -0.274 OA
HETATM   21  C27 UNK     1      30.351  -5.426  36.560  1.00  0.00     0.038 A 
HETATM   22  C18 UNK     1      27.703  -7.955  37.027  1.00  0.00     0.304 A 
HETATM   23  O6  UNK     1      27.228  -8.912  36.425  1.00  0.00    -0.259 OA
HETATM   24  C30 UNK     1      30.919  -4.333  37.211  1.00  0.00     0.003 A 
HETATM   25  C29 UNK     1      30.438  -3.937  38.461  1.00  0.00     0.001 A 
ENDBRANCH  12  15
ENDBRANCH  10  11
ENDBRANCH   1  10
BRANCH   6  26
HETATM   26  N1  UNK     1      20.443  -5.302  36.920  1.00  0.00    -0.352 N 
HETATM   27  C11 UNK     1      20.164  -4.814  35.659  1.00  0.00     0.258 C 
HETATM   28  O1  UNK     1      20.187  -5.443  34.606  1.00  0.00    -0.267 OA
HETATM   29  H19 UNK     1      20.409  -4.685  37.725  1.00  0.00     0.163 HD
BRANCH  27  30
HETATM   30  C13 UNK     1      19.808  -3.383  35.671  1.00  0.00     0.108 A 
HETATM   31  C15 UNK     1      19.087  -2.963  36.717  1.00  0.00     0.037 A 
HETATM   32  C19 UNK     1      18.686  -1.567  36.818  1.00  0.00    -0.001 A 
HETATM   33  C20 UNK     1      19.065  -0.684  35.812  1.00  0.00     0.089 A 
HETATM   34  C23 UNK     1      17.933  -1.084  37.891  1.00  0.00     0.014 A 
HETATM   35  O3  UNK     1      19.824  -1.133  34.714  1.00  0.00    -0.274 OA
HETATM   36  C24 UNK     1      18.714   0.664  35.849  1.00  0.00     0.038 A 
HETATM   37  C16 UNK     1      20.222  -2.461  34.589  1.00  0.00     0.304 A 
HETATM   38  O5  UNK     1      20.882  -2.844  33.629  1.00  0.00    -0.259 OA
HETATM   39  C28 UNK     1      17.963   1.137  36.923  1.00  0.00     0.003 A 
HETATM   40  C26 UNK     1      17.574   0.265  37.942  1.00  0.00     0.001 A 
ENDBRANCH  27  30
ENDBRANCH   6  26
TORSDOF 5
ENDMDL
MODEL 3
REMARK VINA RESULT:     -11.1     12.364     15.577
REMARK  5 active torsions:
REMARK  status: ('A' for Active; 'I' for Inactive)
REMARK       I    between atoms: C11_19  and  N1_7 
REMARK    1  A    between atoms: C6_14  and  N1_7 
REMARK       I    between atoms: C12_20  and  N2_8 
REMARK    2  A    between atoms: C7_15  and  N2_8 
REMARK    3  A    between atoms: C1_9  and  C7_15 
REMARK    4  A    between atoms: C11_19  and  C13_21 
REMARK    5  A    between atoms: C12_20  and  C14_22 
ROOT
HETATM    1  C1  UNK     1      29.898  -5.631  37.982  1.00  0.00    -0.025 C 
HETATM    2  C2  UNK     1      32.349  -6.277  37.205  1.00  0.00    -0.045 C 
HETATM    3  C3  UNK     1      31.294  -6.207  38.339  1.00  0.00     0.019 C 
HETATM    4  C4  UNK     1      29.388  -6.236  36.657  1.00  0.00     0.036 C 
HETATM    5  C5  UNK     1      31.722  -6.851  35.918  1.00  0.00     0.034 C 
HETATM    6  C6  UNK     1      30.410  -6.166  35.520  1.00  0.00     0.086 C 
HETATM    7  C8  UNK     1      29.903  -4.094  37.913  1.00  0.00     0.017 C 
HETATM    8  C9  UNK     1      33.001  -4.908  36.930  1.00  0.00     0.015 C 
HETATM    9  C10 UNK     1      33.483  -7.223  37.662  1.00  0.00     0.015 C 
ENDROOT
BRANCH   1  10
HETATM   10  C7  UNK     1      28.916  -6.022  39.110  1.00  0.00     0.132 C 
BRANCH  10  11
HETATM   11  N2  UNK     1      27.806  -6.736  38.575  1.00  0.00    -0.356 N 
HETATM   12  C12 UNK     1      27.586  -8.092  38.798  1.00  0.00     0.257 C 
HETATM   13  O2  UNK     1      28.295  -8.838  39.465  1.00  0.00    -0.267 OA
HETATM   14  H20 UNK     1      27.198  -6.239  37.932  1.00  0.00     0.162 HD
BRANCH  12  15
HETATM   15  C14 UNK     1      26.368  -8.602  38.141  1.00  0.00     0.108 A 
HETATM   16  C17 UNK     1      26.471  -9.799  37.551  1.00  0.00     0.037 A 
HETATM   17  C21 UNK     1      25.324 -10.386  36.876  1.00  0.00    -0.001 A 
HETATM   18  C22 UNK     1      24.124  -9.683  36.856  1.00  0.00     0.089 A 
HETATM   19  C25 UNK     1      25.386 -11.631  36.247  1.00  0.00     0.014 A 
HETATM   20  O4  UNK     1      24.021  -8.423  37.479  1.00  0.00    -0.274 OA
HETATM   21  C27 UNK     1      22.988 -10.188  36.226  1.00  0.00     0.038 A 
HETATM   22  C18 UNK     1      25.102  -7.837  38.132  1.00  0.00     0.304 A 
HETATM   23  O6  UNK     1      25.003  -6.740  38.671  1.00  0.00    -0.259 OA
HETATM   24  C30 UNK     1      23.058 -11.431  35.601  1.00  0.00     0.003 A 
HETATM   25  C29 UNK     1      24.255 -12.151  35.612  1.00  0.00     0.001 A 
ENDBRANCH  12  15
ENDBRANCH  10  11
ENDBRANCH   1  10
BRANCH   6  26
HETATM   26  N1  UNK     1      29.868  -6.778  34.327  1.00  0.00    -0.352 N 
HETATM   27  C11 UNK     1      30.164  -6.328  33.056  1.00  0.00     0.258 C 
HETATM   28  O1  UNK     1      30.895  -5.388  32.762  1.00  0.00    -0.267 OA
HETATM   29  H19 UNK     1      29.232  -7.559  34.456  1.00  0.00     0.163 HD
BRANCH  27  30
HETATM   30  C13 UNK     1      29.493  -7.114  32.005  1.00  0.00     0.108 A 
HETATM   31  C15 UNK     1      30.276  -7.921  31.280  1.00  0.00     0.037 A 
HETATM   32  C19 UNK     1      29.705  -8.738  30.219  1.00  0.00    -0.001 A 
HETATM   33  C20 UNK     1      28.338  -8.663  29.974  1.00  0.00     0.089 A 
HETATM   34  C23 UNK     1      30.485  -9.594  29.438  1.00  0.00     0.014 A 
HETATM   35  O3  UNK     1      27.519  -7.812  30.742  1.00  0.00    -0.274 OA
HETATM   36  C24 UNK     1      27.729  -9.418  28.974  1.00  0.00     0.038 A 
HETATM   37  C16 UNK     1      28.035  -7.019  31.763  1.00  0.00     0.304 A 
HETATM   38  O5  UNK     1      27.315  -6.279  32.425  1.00  0.00    -0.259 OA
HETATM   39  C28 UNK     1      28.514 -10.269  28.199  1.00  0.00     0.003 A 
HETATM   40  C26 UNK     1      29.889 -10.358  28.430  1.00  0.00     0.001 A 
ENDBRANCH  27  30
ENDBRANCH   6  26
TORSDOF 5
ENDMDL
MODEL 4
REMARK VINA RESULT:     -11.1     12.446     15.675
REMARK  5 active torsions:
REMARK  status: ('A' for Active; 'I' for Inactive)
REMARK       I    between atoms: C11_19  and  N1_7 
REMARK    1  A    between atoms: C6_14  and  N1_7 
REMARK       I    between atoms: C12_20  and  N2_8 
REMARK    2  A    between atoms: C7_15  and  N2_8 
REMARK    3  A    between atoms: C1_9  and  C7_15 
REMARK    4  A    between atoms: C11_19  and  C13_21 
REMARK    5  A    between atoms: C12_20  and  C14_22 
ROOT
HETATM    1  C1  UNK     1      32.109  -4.653  36.609  1.00  0.00    -0.025 C 
HETATM    2  C2  UNK     1      34.278  -5.204  35.188  1.00  0.00    -0.045 C 
HETATM    3  C3  UNK     1      33.599  -5.086  36.577  1.00  0.00     0.019 C 
HETATM    4  C4  UNK     1      31.297  -5.434  35.555  1.00  0.00     0.036 C 
HETATM    5  C5  UNK     1      33.362  -5.959  34.201  1.00  0.00     0.034 C 
HETATM    6  C6  UNK     1      31.930  -5.417  34.161  1.00  0.00     0.086 C 
HETATM    7  C8  UNK     1      31.939  -3.136  36.413  1.00  0.00     0.017 C 
HETATM    8  C9  UNK     1      34.679  -3.831  34.615  1.00  0.00     0.015 C 
HETATM    9  C10 UNK     1      35.585  -6.012  35.359  1.00  0.00     0.015 C 
ENDROOT
BRANCH   1  10
HETATM   10  C7  UNK     1      31.544  -4.987  38.009  1.00  0.00     0.132 C 
BRANCH  10  11
HETATM   11  N2  UNK     1      30.317  -5.700  37.890  1.00  0.00    -0.356 N 
HETATM   12  C12 UNK     1      29.190  -5.420  38.658  1.00  0.00     0.257 C 
HETATM   13  O2  UNK     1      29.099  -4.548  39.515  1.00  0.00    -0.267 OA
HETATM   14  H20 UNK     1      30.303  -6.504  37.272  1.00  0.00     0.162 HD
BRANCH  12  15
HETATM   15  C14 UNK     1      28.042  -6.293  38.349  1.00  0.00     0.108 A 
HETATM   16  C17 UNK     1      28.330  -7.467  37.774  1.00  0.00     0.037 A 
HETATM   17  C21 UNK     1      27.265  -8.396  37.431  1.00  0.00    -0.001 A 
HETATM   18  C22 UNK     1      25.948  -8.043  37.710  1.00  0.00     0.089 A 
HETATM   19  C25 UNK     1      27.518  -9.631  36.830  1.00  0.00     0.014 A 
HETATM   20  O4  UNK     1      25.652  -6.806  38.314  1.00  0.00    -0.274 OA
HETATM   21  C27 UNK     1      24.882  -8.887  37.405  1.00  0.00     0.038 A 
HETATM   22  C18 UNK     1      26.649  -5.897  38.655  1.00  0.00     0.304 A 
HETATM   23  O6  UNK     1      26.381  -4.822  39.181  1.00  0.00    -0.259 OA
HETATM   24  C30 UNK     1      25.144 -10.117  36.806  1.00  0.00     0.003 A 
HETATM   25  C29 UNK     1      26.459 -10.489  36.520  1.00  0.00     0.001 A 
ENDBRANCH  12  15
ENDBRANCH  10  11
ENDBRANCH   1  10
BRANCH   6  26
HETATM   26  N1  UNK     1      31.127  -6.193  33.242  1.00  0.00    -0.352 N 
HETATM   27  C11 UNK     1      30.324  -5.614  32.279  1.00  0.00     0.258 C 
HETATM   28  O1  UNK     1      30.180  -4.414  32.069  1.00  0.00    -0.267 OA
HETATM   29  H19 UNK     1      31.158  -7.203  33.339  1.00  0.00     0.163 HD
BRANCH  27  30
HETATM   30  C13 UNK     1      29.606  -6.611  31.464  1.00  0.00     0.108 A 
HETATM   31  C15 UNK     1      30.328  -7.240  30.530  1.00  0.00     0.037 A 
HETATM   32  C19 UNK     1      29.707  -8.241  29.675  1.00  0.00    -0.001 A 
HETATM   33  C20 UNK     1      28.357  -8.531  29.848  1.00  0.00     0.089 A 
HETATM   34  C23 UNK     1      30.422  -8.922  28.686  1.00  0.00     0.014 A 
HETATM   35  O3  UNK     1      27.604  -7.865  30.834  1.00  0.00    -0.274 OA
HETATM   36  C24 UNK     1      27.704  -9.478  29.063  1.00  0.00     0.038 A 
HETATM   37  C16 UNK     1      28.169  -6.903  31.666  1.00  0.00     0.304 A 
HETATM   38  O5  UNK     1      27.505  -6.327  32.522  1.00  0.00    -0.259 OA
HETATM   39  C28 UNK     1      28.424 -10.152  28.079  1.00  0.00     0.003 A 
HETATM   40  C26 UNK     1      29.780  -9.876  27.891  1.00  0.00     0.001 A 
ENDBRANCH  27  30
ENDBRANCH   6  26
TORSDOF 5
ENDMDL
MODEL 5
REMARK VINA RESULT:     -11.1      3.349      7.568
REMARK  5 active torsions:
REMARK  status: ('A' for Active; 'I' for Inactive)
REMARK       I    between atoms: C11_19  and  N1_7 
REMARK    1  A    between atoms: C6_14  and  N1_7 
REMARK       I    between atoms: C12_20  and  N2_8 
REMARK    2  A    between atoms: C7_15  and  N2_8 
REMARK    3  A    between atoms: C1_9  and  C7_15 
REMARK    4  A    between atoms: C11_19  and  C13_21 
REMARK    5  A    between atoms: C12_20  and  C14_22 
ROOT
HETATM    1  C1  UNK     1      19.056   5.315  31.259  1.00  0.00    -0.025 C 
HETATM    2  C2  UNK     1      17.496   6.691  32.902  1.00  0.00    -0.045 C 
HETATM    3  C3  UNK     1      17.847   6.268  31.452  1.00  0.00     0.019 C 
HETATM    4  C4  UNK     1      18.997   4.156  32.276  1.00  0.00     0.036 C 
HETATM    5  C5  UNK     1      17.512   5.466  33.840  1.00  0.00     0.034 C 
HETATM    6  C6  UNK     1      18.783   4.620  33.719  1.00  0.00     0.086 C 
HETATM    7  C8  UNK     1      20.402   6.055  31.353  1.00  0.00     0.017 C 
HETATM    8  C9  UNK     1      18.432   7.794  33.431  1.00  0.00     0.015 C 
HETATM    9  C10 UNK     1      16.069   7.287  32.896  1.00  0.00     0.015 C 
ENDROOT
BRANCH   1  10
HETATM   10  C7  UNK     1      18.974   4.722  29.834  1.00  0.00     0.132 C 
BRANCH  10  11
HETATM   11  N2  UNK     1      19.323   3.341  29.852  1.00  0.00    -0.356 N 
HETATM   12  C12 UNK     1      18.385   2.312  29.817  1.00  0.00     0.257 C 
HETATM   13  O2  UNK     1      17.168   2.447  29.767  1.00  0.00    -0.267 OA
HETATM   14  H20 UNK     1      20.302   3.109  29.981  1.00  0.00     0.162 HD
BRANCH  12  15
HETATM   15  C14 UNK     1      18.992   0.968  29.841  1.00  0.00     0.108 A 
HETATM   16  C17 UNK     1      19.391   0.521  31.038  1.00  0.00     0.037 A 
HETATM   17  C21 UNK     1      20.002  -0.793  31.165  1.00  0.00    -0.001 A 
HETATM   18  C22 UNK     1      20.163  -1.572  30.023  1.00  0.00     0.089 A 
HETATM   19  C25 UNK     1      20.432  -1.300  32.393  1.00  0.00     0.014 A 
HETATM   20  O4  UNK     1      19.742  -1.096  28.766  1.00  0.00    -0.274 OA
HETATM   21  C27 UNK     1      20.742  -2.839  30.076  1.00  0.00     0.038 A 
HETATM   22  C18 UNK     1      19.154   0.157  28.615  1.00  0.00     0.304 A 
HETATM   23  O6  UNK     1      18.790   0.562  27.516  1.00  0.00    -0.259 OA
HETATM   24  C30 UNK     1      21.168  -3.336  31.305  1.00  0.00     0.003 A 
HETATM   25  C29 UNK     1      21.014  -2.569  32.461  1.00  0.00     0.001 A 
ENDBRANCH  12  15
ENDBRANCH  10  11
ENDBRANCH   1  10
BRANCH   6  26
HETATM   26  N1  UNK     1      18.710   3.477  34.602  1.00  0.00    -0.352 N 
HETATM   27  C11 UNK     1      18.058   2.310  34.259  1.00  0.00     0.258 C 
HETATM   28  O1  UNK     1      17.472   2.078  33.207  1.00  0.00    -0.267 OA
HETATM   29  H19 UNK     1      19.150   3.567  35.512  1.00  0.00     0.163 HD
BRANCH  27  30
HETATM   30  C13 UNK     1      18.124   1.290  35.322  1.00  0.00     0.108 A 
HETATM   31  C15 UNK     1      18.841   0.194  35.046  1.00  0.00     0.037 A 
HETATM   32  C19 UNK     1      18.964  -0.869  36.032  1.00  0.00    -0.001 A 
HETATM   33  C20 UNK     1      18.327  -0.724  37.261  1.00  0.00     0.089 A 
HETATM   34  C23 UNK     1      19.702  -2.030  35.787  1.00  0.00     0.014 A 
HETATM   35  O3  UNK     1      17.575   0.432  37.545  1.00  0.00    -0.274 OA
HETATM   36  C24 UNK     1      18.406  -1.704  38.248  1.00  0.00     0.038 A 
HETATM   37  C16 UNK     1      17.438   1.465  36.622  1.00  0.00     0.304 A 
HETATM   38  O5  UNK     1      16.779   2.468  36.877  1.00  0.00    -0.259 OA
HETATM   39  C28 UNK     1      19.143  -2.859  37.995  1.00  0.00     0.003 A 
HETATM   40  C26 UNK     1      19.790  -3.022  36.768  1.00  0.00     0.001 A 
ENDBRANCH  27  30
ENDBRANCH   6  26
TORSDOF 5
ENDMDL
MODEL 6
REMARK VINA RESULT:     -10.9      5.336     13.258
REMARK  5 active torsions:
REMARK  status: ('A' for Active; 'I' for Inactive)
REMARK       I    between atoms: C11_19  and  N1_7 
REMARK    1  A    between atoms: C6_14  and  N1_7 
REMARK       I    between atoms: C12_20  and  N2_8 
REMARK    2  A    between atoms: C7_15  and  N2_8 
REMARK    3  A    between atoms: C1_9  and  C7_15 
REMARK    4  A    between atoms: C11_19  and  C13_21 
REMARK    5  A    between atoms: C12_20  and  C14_22 
ROOT
HETATM    1  C1  UNK     1      22.488  -8.174  38.389  1.00  0.00    -0.025 C 
HETATM    2  C2  UNK     1      19.960  -8.916  38.096  1.00  0.00    -0.045 C 
HETATM    3  C3  UNK     1      21.286  -9.015  38.894  1.00  0.00     0.019 C 
HETATM    4  C4  UNK     1      22.038  -6.736  38.055  1.00  0.00     0.036 C 
HETATM    5  C5  UNK     1      19.631  -7.443  37.776  1.00  0.00     0.034 C 
HETATM    6  C6  UNK     1      20.802  -6.677  37.153  1.00  0.00     0.086 C 
HETATM    7  C8  UNK     1      23.185  -8.822  37.179  1.00  0.00     0.017 C 
HETATM    8  C9  UNK     1      19.990  -9.759  36.807  1.00  0.00     0.015 C 
HETATM    9  C10 UNK     1      18.826  -9.492  38.976  1.00  0.00     0.015 C 
ENDROOT
BRANCH   1  10
HETATM   10  C7  UNK     1      23.536  -8.109  39.523  1.00  0.00     0.132 C 
BRANCH  10  11
HETATM   11  N2  UNK     1      24.849  -8.263  38.992  1.00  0.00    -0.356 N 
HETATM   12  C12 UNK     1      25.673  -7.192  38.658  1.00  0.00     0.257 C 
HETATM   13  O2  UNK     1      25.392  -6.004  38.771  1.00  0.00    -0.267 OA
HETATM   14  H20 UNK     1      25.155  -9.205  38.773  1.00  0.00     0.162 HD
BRANCH  12  15
HETATM   15  C14 UNK     1      26.987  -7.607  38.132  1.00  0.00     0.108 A 
HETATM   16  C17 UNK     1      26.968  -8.372  37.034  1.00  0.00     0.037 A 
HETATM   17  C21 UNK     1      28.214  -8.833  36.440  1.00  0.00    -0.001 A 
HETATM   18  C22 UNK     1      29.418  -8.465  37.032  1.00  0.00     0.089 A 
HETATM   19  C25 UNK     1      28.242  -9.633  35.295  1.00  0.00     0.014 A 
HETATM   20  O4  UNK     1      29.430  -7.660  38.188  1.00  0.00    -0.274 OA
HETATM   21  C27 UNK     1      30.645  -8.874  36.514  1.00  0.00     0.038 A 
HETATM   22  C18 UNK     1      28.255  -7.204  38.778  1.00  0.00     0.304 A 
HETATM   23  O6  UNK     1      28.276  -6.503  39.784  1.00  0.00    -0.259 OA
HETATM   24  C30 UNK     1      30.665  -9.671  35.372  1.00  0.00     0.003 A 
HETATM   25  C29 UNK     1      29.466 -10.050  34.763  1.00  0.00     0.001 A 
ENDBRANCH  12  15
ENDBRANCH  10  11
ENDBRANCH   1  10
BRANCH   6  26
HETATM   26  N1  UNK     1      20.429  -5.300  36.913  1.00  0.00    -0.352 N 
HETATM   27  C11 UNK     1      20.164  -4.808  35.650  1.00  0.00     0.258 C 
HETATM   28  O1  UNK     1      20.202  -5.433  34.596  1.00  0.00    -0.267 OA
HETATM   29  H19 UNK     1      20.384  -4.686  37.719  1.00  0.00     0.163 HD
BRANCH  27  30
HETATM   30  C13 UNK     1      19.804  -3.379  35.663  1.00  0.00     0.108 A 
HETATM   31  C15 UNK     1      19.087  -2.960  36.712  1.00  0.00     0.037 A 
HETATM   32  C19 UNK     1      18.682  -1.565  36.814  1.00  0.00    -0.001 A 
HETATM   33  C20 UNK     1      19.054  -0.681  35.806  1.00  0.00     0.089 A 
HETATM   34  C23 UNK     1      17.933  -1.084  37.891  1.00  0.00     0.014 A 
HETATM   35  O3  UNK     1      19.809  -1.129  34.705  1.00  0.00    -0.274 OA
HETATM   36  C24 UNK     1      18.699   0.665  35.844  1.00  0.00     0.038 A 
HETATM   37  C16 UNK     1      20.210  -2.456  34.579  1.00  0.00     0.304 A 
HETATM   38  O5  UNK     1      20.867  -2.838  33.616  1.00  0.00    -0.259 OA
HETATM   39  C28 UNK     1      17.952   1.137  36.921  1.00  0.00     0.003 A 
HETATM   40  C26 UNK     1      17.570   0.265  37.943  1.00  0.00     0.001 A 
ENDBRANCH  27  30
ENDBRANCH   6  26
TORSDOF 5
ENDMDL
MODEL 7
REMARK VINA RESULT:     -10.9     26.545     28.638
REMARK  5 active torsions:
REMARK  status: ('A' for Active; 'I' for Inactive)
REMARK       I    between atoms: C11_19  and  N1_7 
REMARK    1  A    between atoms: C6_14  and  N1_7 
REMARK       I    between atoms: C12_20  and  N2_8 
REMARK    2  A    between atoms: C7_15  and  N2_8 
REMARK    3  A    between atoms: C1_9  and  C7_15 
REMARK    4  A    between atoms: C11_19  and  C13_21 
REMARK    5  A    between atoms: C12_20  and  C14_22 
ROOT
HETATM    1  C1  UNK     1      16.741  10.585   9.762  1.00  0.00    -0.025 C 
HETATM    2  C2  UNK     1      15.914  12.645  11.210  1.00  0.00    -0.045 C 
HETATM    3  C3  UNK     1      15.710  11.175  10.760  1.00  0.00     0.019 C 
HETATM    4  C4  UNK     1      18.178  10.936  10.199  1.00  0.00     0.036 C 
HETATM    5  C5  UNK     1      17.391  12.898  11.578  1.00  0.00     0.034 C 
HETATM    6  C6  UNK     1      18.377  12.423  10.506  1.00  0.00     0.086 C 
HETATM    7  C8  UNK     1      16.482  11.046   8.317  1.00  0.00     0.017 C 
HETATM    8  C9  UNK     1      15.438  13.652  10.146  1.00  0.00     0.015 C 
HETATM    9  C10 UNK     1      15.047  12.887  12.467  1.00  0.00     0.015 C 
ENDROOT
BRANCH   1  10
HETATM   10  C7  UNK     1      16.588   9.046   9.771  1.00  0.00     0.132 C 
BRANCH  10  11
HETATM   11  N2  UNK     1      15.245   8.681   9.470  1.00  0.00    -0.356 N 
HETATM   12  C12 UNK     1      14.852   7.379   9.170  1.00  0.00     0.257 C 
HETATM   13  O2  UNK     1      15.585   6.398   9.124  1.00  0.00    -0.267 OA
HETATM   14  H20 UNK     1      14.564   9.429   9.392  1.00  0.00     0.162 HD
BRANCH  12  15
HETATM   15  C14 UNK     1      13.408   7.253   8.898  1.00  0.00     0.108 A 
HETATM   16  C17 UNK     1      13.072   6.831   7.674  1.00  0.00     0.037 A 
HETATM   17  C21 UNK     1      11.672   6.675   7.310  1.00  0.00    -0.001 A 
HETATM   18  C22 UNK     1      10.695   6.971   8.255  1.00  0.00     0.089 A 
HETATM   19  C25 UNK     1      11.275   6.238   6.044  1.00  0.00     0.014 A 
HETATM   20  O4  UNK     1      11.055   7.415   9.542  1.00  0.00    -0.274 OA
HETATM   21  C27 UNK     1       9.336   6.844   7.970  1.00  0.00     0.038 A 
HETATM   22  C18 UNK     1      12.386   7.573   9.919  1.00  0.00     0.304 A 
HETATM   23  O6  UNK     1      12.690   7.960  11.042  1.00  0.00    -0.259 OA
HETATM   24  C30 UNK     1       8.949   6.408   6.705  1.00  0.00     0.003 A 
HETATM   25  C29 UNK     1       9.916   6.105   5.744  1.00  0.00     0.001 A 
ENDBRANCH  12  15
ENDBRANCH  10  11
ENDBRANCH   1  10
BRANCH   6  26
HETATM   26  N1  UNK     1      19.737  12.663  10.935  1.00  0.00    -0.352 N 
HETATM   27  C11 UNK     1      20.780  12.839  10.048  1.00  0.00     0.258 C 
HETATM   28  O1  UNK     1      20.713  12.820   8.824  1.00  0.00    -0.267 OA
HETATM   29  H19 UNK     1      19.910  12.682  11.935  1.00  0.00     0.163 HD
BRANCH  27  30
HETATM   30  C13 UNK     1      22.068  13.071  10.726  1.00  0.00     0.108 A 
HETATM   31  C15 UNK     1      23.083  12.284  10.351  1.00  0.00     0.037 A 
HETATM   32  C19 UNK     1      24.394  12.436  10.964  1.00  0.00    -0.001 A 
HETATM   33  C20 UNK     1      24.572  13.410  11.941  1.00  0.00     0.089 A 
HETATM   34  C23 UNK     1      25.482  11.636  10.604  1.00  0.00     0.014 A 
HETATM   35  O3  UNK     1      23.499  14.236  12.330  1.00  0.00    -0.274 OA
HETATM   36  C24 UNK     1      25.801  13.607  12.566  1.00  0.00     0.038 A 
HETATM   37  C16 UNK     1      22.234  14.114  11.763  1.00  0.00     0.304 A 
HETATM   38  O5  UNK     1      21.305  14.836  12.109  1.00  0.00    -0.259 OA
HETATM   39  C28 UNK     1      26.880  12.805  12.201  1.00  0.00     0.003 A 
HETATM   40  C26 UNK     1      26.722  11.822  11.222  1.00  0.00     0.001 A 
ENDBRANCH  27  30
ENDBRANCH   6  26
TORSDOF 5
ENDMDL
MODEL 8
REMARK VINA RESULT:     -10.8     11.277     14.879
REMARK  5 active torsions:
REMARK  status: ('A' for Active; 'I' for Inactive)
REMARK       I    between atoms: C11_19  and  N1_7 
REMARK    1  A    between atoms: C6_14  and  N1_7 
REMARK       I    between atoms: C12_20  and  N2_8 
REMARK    2  A    between atoms: C7_15  and  N2_8 
REMARK    3  A    between atoms: C1_9  and  C7_15 
REMARK    4  A    between atoms: C11_19  and  C13_21 
REMARK    5  A    between atoms: C12_20  and  C14_22 
ROOT
HETATM    1  C1  UNK     1      29.438  -5.959  38.199  1.00  0.00    -0.025 C 
HETATM    2  C2  UNK     1      31.935  -6.148  37.333  1.00  0.00    -0.045 C 
HETATM    3  C3  UNK     1      30.916  -6.331  38.487  1.00  0.00     0.019 C 
HETATM    4  C4  UNK     1      28.990  -6.538  36.841  1.00  0.00     0.036 C 
HETATM    5  C5  UNK     1      31.368  -6.718  36.016  1.00  0.00     0.034 C 
HETATM    6  C6  UNK     1      29.955  -6.223  35.695  1.00  0.00     0.086 C 
HETATM    7  C8  UNK     1      29.198  -4.439  38.249  1.00  0.00     0.017 C 
HETATM    8  C9  UNK     1      32.355  -4.677  37.153  1.00  0.00     0.015 C 
HETATM    9  C10 UNK     1      33.217  -6.933  37.696  1.00  0.00     0.015 C 
ENDROOT
BRANCH   1  10
HETATM   10  C7  UNK     1      28.562  -6.583  39.310  1.00  0.00     0.132 C 
BRANCH  10  11
HETATM   11  N2  UNK     1      27.307  -6.995  38.779  1.00  0.00    -0.356 N 
HETATM   12  C12 UNK     1      26.703  -8.211  39.090  1.00  0.00     0.257 C 
HETATM   13  O2  UNK     1      27.155  -9.069  39.840  1.00  0.00    -0.267 OA
HETATM   14  H20 UNK     1      26.881  -6.401  38.075  1.00  0.00     0.162 HD
BRANCH  12  15
HETATM   15  C14 UNK     1      25.405  -8.407  38.418  1.00  0.00     0.108 A 
HETATM   16  C17 UNK     1      24.350  -7.809  38.984  1.00  0.00     0.037 A 
HETATM   17  C21 UNK     1      23.027  -7.944  38.395  1.00  0.00    -0.001 A 
HETATM   18  C22 UNK     1      22.880  -8.702  37.238  1.00  0.00     0.089 A 
HETATM   19  C25 UNK     1      21.898  -7.337  38.951  1.00  0.00     0.014 A 
HETATM   20  O4  UNK     1      23.994  -9.330  36.647  1.00  0.00    -0.274 OA
HETATM   21  C27 UNK     1      21.640  -8.872  36.625  1.00  0.00     0.038 A 
HETATM   22  C18 UNK     1      25.272  -9.218  37.188  1.00  0.00     0.304 A 
HETATM   23  O6  UNK     1      26.236  -9.768  36.666  1.00  0.00    -0.259 OA
HETATM   24  C30 UNK     1      20.520  -8.264  37.186  1.00  0.00     0.003 A 
HETATM   25  C29 UNK     1      20.648  -7.498  38.347  1.00  0.00     0.001 A 
ENDBRANCH  12  15
ENDBRANCH  10  11
ENDBRANCH   1  10
BRANCH   6  26
HETATM   26  N1  UNK     1      29.480  -6.824  34.468  1.00  0.00    -0.352 N 
HETATM   27  C11 UNK     1      29.805  -6.329  33.220  1.00  0.00     0.258 C 
HETATM   28  O1  UNK     1      30.510  -5.356  32.977  1.00  0.00    -0.267 OA
HETATM   29  H19 UNK     1      28.872  -7.631  34.554  1.00  0.00     0.163 HD
BRANCH  27  30
HETATM   30  C13 UNK     1      29.204  -7.113  32.126  1.00  0.00     0.108 A 
HETATM   31  C15 UNK     1      30.038  -7.898  31.434  1.00  0.00     0.037 A 
HETATM   32  C19 UNK     1      29.538  -8.710  30.334  1.00  0.00    -0.001 A 
HETATM   33  C20 UNK     1      28.184  -8.655  30.018  1.00  0.00     0.089 A 
HETATM   34  C23 UNK     1      30.373  -9.543  29.585  1.00  0.00     0.014 A 
HETATM   35  O3  UNK     1      27.312  -7.827  30.751  1.00  0.00    -0.274 OA
HETATM   36  C24 UNK     1      27.643  -9.406  28.978  1.00  0.00     0.038 A 
HETATM   37  C16 UNK     1      27.760  -7.039  31.807  1.00  0.00     0.304 A 
HETATM   38  O5  UNK     1      26.993  -6.320  32.439  1.00  0.00    -0.259 OA
HETATM   39  C28 UNK     1      28.482 -10.234  28.235  1.00  0.00     0.003 A 
HETATM   40  C26 UNK     1      29.844 -10.303  28.538  1.00  0.00     0.001 A 
ENDBRANCH  27  30
ENDBRANCH   6  26
TORSDOF 5
ENDMDL
MODEL 9
REMARK VINA RESULT:     -10.7     12.617     16.444
REMARK  5 active torsions:
REMARK  status: ('A' for Active; 'I' for Inactive)
REMARK       I    between atoms: C11_19  and  N1_7 
REMARK    1  A    between atoms: C6_14  and  N1_7 
REMARK       I    between atoms: C12_20  and  N2_8 
REMARK    2  A    between atoms: C7_15  and  N2_8 
REMARK    3  A    between atoms: C1_9  and  C7_15 
REMARK    4  A    between atoms: C11_19  and  C13_21 
REMARK    5  A    between atoms: C12_20  and  C14_22 
ROOT
HETATM    1  C1  UNK     1      32.478  -4.316  35.954  1.00  0.00    -0.025 C 
HETATM    2  C2  UNK     1      34.063  -6.367  36.508  1.00  0.00    -0.045 C 
HETATM    3  C3  UNK     1      33.103  -5.259  37.015  1.00  0.00     0.019 C 
HETATM    4  C4  UNK     1      31.955  -5.127  34.750  1.00  0.00     0.036 C 
HETATM    5  C5  UNK     1      33.464  -7.080  35.279  1.00  0.00     0.034 C 
HETATM    6  C6  UNK     1      32.979  -6.118  34.190  1.00  0.00     0.086 C 
HETATM    7  C8  UNK     1      33.463  -3.228  35.490  1.00  0.00     0.017 C 
HETATM    8  C9  UNK     1      35.467  -5.820  36.189  1.00  0.00     0.015 C 
HETATM    9  C10 UNK     1      34.239  -7.405  37.640  1.00  0.00     0.015 C 
ENDROOT
BRANCH   1  10
HETATM   10  C7  UNK     1      31.284  -3.583  36.608  1.00  0.00     0.132 C 
BRANCH  10  11
HETATM   11  N2  UNK     1      30.317  -4.524  37.066  1.00  0.00    -0.356 N 
HETATM   12  C12 UNK     1      29.772  -4.503  38.347  1.00  0.00     0.257 C 
HETATM   13  O2  UNK     1      30.041  -3.697  39.231  1.00  0.00    -0.267 OA
HETATM   14  H20 UNK     1      30.085  -5.292  36.446  1.00  0.00     0.162 HD
BRANCH  12  15
HETATM   15  C14 UNK     1      28.789  -5.577  38.580  1.00  0.00     0.108 A 
HETATM   16  C17 UNK     1      29.280  -6.819  38.666  1.00  0.00     0.037 A 
HETATM   17  C21 UNK     1      28.389  -7.946  38.894  1.00  0.00    -0.001 A 
HETATM   18  C22 UNK     1      27.024  -7.709  39.022  1.00  0.00     0.089 A 
HETATM   19  C25 UNK     1      28.857  -9.259  38.991  1.00  0.00     0.014 A 
HETATM   20  O4  UNK     1      26.514  -6.399  38.931  1.00  0.00    -0.274 OA
HETATM   21  C27 UNK     1      26.117  -8.744  39.241  1.00  0.00     0.038 A 
HETATM   22  C18 UNK     1      27.342  -5.301  38.713  1.00  0.00     0.304 A 
HETATM   23  O6  UNK     1      26.888  -4.165  38.635  1.00  0.00    -0.259 OA
HETATM   24  C30 UNK     1      26.592 -10.050  39.336  1.00  0.00     0.003 A 
HETATM   25  C29 UNK     1      27.959 -10.307  39.211  1.00  0.00     0.001 A 
ENDBRANCH  12  15
ENDBRANCH  10  11
ENDBRANCH   1  10
BRANCH   6  26
HETATM   26  N1  UNK     1      32.402  -6.856  33.088  1.00  0.00    -0.352 N 
HETATM   27  C11 UNK     1      33.155  -7.329  32.032  1.00  0.00     0.258 C 
HETATM   28  O1  UNK     1      34.364  -7.200  31.876  1.00  0.00    -0.267 OA
HETATM   29  H19 UNK     1      31.399  -7.007  33.107  1.00  0.00     0.163 HD
BRANCH  27  30
HETATM   30  C13 UNK     1      32.342  -8.052  31.036  1.00  0.00     0.108 A 
HETATM   31  C15 UNK     1      31.015  -7.934  31.158  1.00  0.00     0.037 A 
HETATM   32  C19 UNK     1      30.129  -8.611  30.223  1.00  0.00    -0.001 A 
HETATM   33  C20 UNK     1      30.686  -9.380  29.206  1.00  0.00     0.089 A 
HETATM   34  C23 UNK     1      28.738  -8.516  30.312  1.00  0.00     0.014 A 
HETATM   35  O3  UNK     1      32.084  -9.501  29.083  1.00  0.00    -0.274 OA
HETATM   36  C24 UNK     1      29.894 -10.054  28.279  1.00  0.00     0.038 A 
HETATM   37  C16 UNK     1      32.956  -8.865  29.962  1.00  0.00     0.304 A 
HETATM   38  O5  UNK     1      34.172  -8.977  29.849  1.00  0.00    -0.259 OA
HETATM   39  C28 UNK     1      28.508  -9.954  28.375  1.00  0.00     0.003 A 
HETATM   40  C26 UNK     1      27.931  -9.186  29.389  1.00  0.00     0.001 A 
ENDBRANCH  27  30
ENDBRANCH   6  26
TORSDOF 5
ENDMDL
MODEL 10
REMARK VINA RESULT:     -10.6      5.086     13.772
REMARK  5 active torsions:
REMARK  status: ('A' for Active; 'I' for Inactive)
REMARK       I    between atoms: C11_19  and  N1_7 
REMARK    1  A    between atoms: C6_14  and  N1_7 
REMARK       I    between atoms: C12_20  and  N2_8 
REMARK    2  A    between atoms: C7_15  and  N2_8 
REMARK    3  A    between atoms: C1_9  and  C7_15 
REMARK    4  A    between atoms: C11_19  and  C13_21 
REMARK    5  A    between atoms: C12_20  and  C14_22 
ROOT
HETATM    1  C1  UNK     1      18.193   6.789  32.538  1.00  0.00    -0.025 C 
HETATM    2  C2  UNK     1      19.486   8.409  34.191  1.00  0.00    -0.045 C 
HETATM    3  C3  UNK     1      19.539   7.388  33.025  1.00  0.00     0.019 C 
HETATM    4  C4  UNK     1      17.133   7.900  32.381  1.00  0.00     0.036 C 
HETATM    5  C5  UNK     1      18.364   9.442  33.955  1.00  0.00     0.034 C 
HETATM    6  C6  UNK     1      17.013   8.808  33.607  1.00  0.00     0.086 C 
HETATM    7  C8  UNK     1      17.681   5.675  33.469  1.00  0.00     0.017 C 
HETATM    8  C9  UNK     1      19.313   7.722  35.560  1.00  0.00     0.015 C 
HETATM    9  C10 UNK     1      20.839   9.156  34.238  1.00  0.00     0.015 C 
ENDROOT
BRANCH   1  10
HETATM   10  C7  UNK     1      18.431   6.139  31.156  1.00  0.00     0.132 C 
BRANCH  10  11
HETATM   11  N2  UNK     1      18.643   4.738  31.298  1.00  0.00    -0.356 N 
HETATM   12  C12 UNK     1      18.580   3.840  30.236  1.00  0.00     0.257 C 
HETATM   13  O2  UNK     1      18.342   4.122  29.067  1.00  0.00    -0.267 OA
HETATM   14  H20 UNK     1      18.761   4.377  32.239  1.00  0.00     0.162 HD
BRANCH  12  15
HETATM   15  C14 UNK     1      18.839   2.444  30.635  1.00  0.00     0.108 A 
HETATM   16  C17 UNK     1      19.504   1.690  29.751  1.00  0.00     0.037 A 
HETATM   17  C21 UNK     1      19.807   0.300  30.053  1.00  0.00    -0.001 A 
HETATM   18  C22 UNK     1      19.394  -0.228  31.273  1.00  0.00     0.089 A 
HETATM   19  C25 UNK     1      20.499  -0.523  29.162  1.00  0.00     0.014 A 
HETATM   20  O4  UNK     1      18.694   0.570  32.198  1.00  0.00    -0.274 OA
HETATM   21  C27 UNK     1      19.652  -1.552  31.623  1.00  0.00     0.038 A 
HETATM   22  C18 UNK     1      18.391   1.903  31.937  1.00  0.00     0.304 A 
HETATM   23  O6  UNK     1      17.780   2.590  32.749  1.00  0.00    -0.259 OA
HETATM   24  C30 UNK     1      20.342  -2.366  30.728  1.00  0.00     0.003 A 
HETATM   25  C29 UNK     1      20.765  -1.853  29.500  1.00  0.00     0.001 A 
ENDBRANCH  12  15
ENDBRANCH  10  11
ENDBRANCH   1  10
BRANCH   6  26
HETATM   26  N1  UNK     1      16.024   9.835  33.369  1.00  0.00    -0.352 N 
HETATM   27  C11 UNK     1      15.362  10.486  34.391  1.00  0.00     0.258 C 
HETATM   28  O1  UNK     1      15.505  10.299  35.594  1.00  0.00    -0.267 OA
HETATM   29  H19 UNK     1      15.814  10.059  32.401  1.00  0.00     0.163 HD
BRANCH  27  30
HETATM   30  C13 UNK     1      14.405  11.492  33.895  1.00  0.00     0.108 A 
HETATM   31  C15 UNK     1      14.629  12.756  34.272  1.00  0.00     0.037 A 
HETATM   32  C19 UNK     1      13.739  13.821  33.835  1.00  0.00    -0.001 A 
HETATM   33  C20 UNK     1      12.656  13.501  33.021  1.00  0.00     0.089 A 
HETATM   34  C23 UNK     1      13.934  15.154  34.204  1.00  0.00     0.014 A 
HETATM   35  O3  UNK     1      12.426  12.168  32.628  1.00  0.00    -0.274 OA
HETATM   36  C24 UNK     1      11.767  14.473  32.568  1.00  0.00     0.038 A 
HETATM   37  C16 UNK     1      13.260  11.129  33.030  1.00  0.00     0.304 A 
HETATM   38  O5  UNK     1      13.051   9.971  32.684  1.00  0.00    -0.259 OA
HETATM   39  C28 UNK     1      11.969  15.800  32.941  1.00  0.00     0.003 A 
HETATM   40  C26 UNK     1      13.050  16.140  33.757  1.00  0.00     0.001 A 
ENDBRANCH  27  30
ENDBRANCH   6  26
TORSDOF 5
ENDMDL
