MODEL 1
REMARK VINA RESULT:      -8.9      0.000      0.000
REMARK  3 active torsions:
REMARK  status: ('A' for Active; 'I' for Inactive)
REMARK       I    between atoms: C10_15  and  N1_5 
REMARK    1  A    between atoms: C8_13  and  N1_5 
REMARK    2  A    between atoms: C3_8  and  C8_13 
REMARK    3  A    between atoms: C10_15  and  C11_16 
ROOT
HETATM    1  O1  UNK     1      17.658   2.909  30.441  1.00  0.00    -0.267 OA
HETATM    2  N1  UNK     1      18.704   4.349  31.947  1.00  0.00    -0.352 N 
HETATM    3  C10 UNK     1      18.185   3.141  31.523  1.00  0.00     0.258 C 
HETATM    4  H16 UNK     1      19.189   4.406  32.837  1.00  0.00     0.163 HD
ENDROOT
BRANCH   3   5
HETATM    5  C11 UNK     1      18.321   2.078  32.535  1.00  0.00     0.108 A 
HETATM    6  C13 UNK     1      18.728   0.700  32.176  1.00  0.00     0.304 A 
HETATM    7  O2  UNK     1      18.821  -0.216  33.220  1.00  0.00    -0.274 OA
HETATM    8  O3  UNK     1      18.972   0.377  31.018  1.00  0.00    -0.259 OA
HETATM    9  C15 UNK     1      18.543   0.145  34.553  1.00  0.00     0.089 A 
HETATM   10  C14 UNK     1      18.163   1.445  34.868  1.00  0.00     0.001 A 
HETATM   11  C17 UNK     1      18.665  -0.842  35.529  1.00  0.00     0.040 A 
HETATM   12  C12 UNK     1      18.055   2.426  33.799  1.00  0.00     0.037 A 
HETATM   13  C16 UNK     1      17.895   1.765  36.201  1.00  0.00     0.038 A 
HETATM   14  C18 UNK     1      18.012   0.785  37.192  1.00  0.00     0.035 A 
HETATM   15 Cl1  UNK     1      17.682   1.183  38.834  1.00  0.00    -0.084 Cl
HETATM   16  C19 UNK     1      18.397  -0.515  36.856  1.00  0.00     0.026 A 
ENDBRANCH   3   5
BRANCH   2  17
HETATM   17  C8  UNK     1      18.688   5.539  31.128  1.00  0.00     0.085 C 
HETATM   18  C9  UNK     1      19.755   5.444  30.043  1.00  0.00     0.032 C 
BRANCH  17  19
HETATM   19  C3  UNK     1      18.876   6.781  31.982  1.00  0.00     0.012 C 
HETATM   20  C1  UNK     1      17.606   7.631  32.224  1.00  0.00    -0.008 C 
HETATM   21  C4  UNK     1      18.051   8.476  33.422  1.00  0.00     0.010 C 
HETATM   22  C6  UNK     1      16.475   6.799  32.853  1.00  0.00     0.005 C 
HETATM   23  C2  UNK     1      18.352   7.253  34.288  1.00  0.00    -0.014 C 
HETATM   24  C5  UNK     1      19.357   6.477  33.416  1.00  0.00     0.011 C 
HETATM   25  C7  UNK     1      17.005   6.511  34.265  1.00  0.00     0.005 C 
ENDBRANCH  17  19
ENDBRANCH   2  17
TORSDOF 3
ENDMDL
MODEL 2
REMARK VINA RESULT:      -8.9      4.949      7.306
REMARK  3 active torsions:
REMARK  status: ('A' for Active; 'I' for Inactive)
REMARK       I    between atoms: C10_15  and  N1_5 
REMARK    1  A    between atoms: C8_13  and  N1_5 
REMARK    2  A    between atoms: C3_8  and  C8_13 
REMARK    3  A    between atoms: C10_15  and  C11_16 
ROOT
HETATM    1  O1  UNK     1      21.323  -2.430  35.027  1.00  0.00    -0.267 OA
HETATM    2  N1  UNK     1      19.048  -1.923  35.024  1.00  0.00    -0.352 N 
HETATM    3  C10 UNK     1      20.286  -2.127  34.447  1.00  0.00     0.258 C 
HETATM    4  H16 UNK     1      18.239  -1.751  34.435  1.00  0.00     0.163 HD
ENDROOT
BRANCH   3   5
HETATM    5  C11 UNK     1      20.269  -1.944  32.985  1.00  0.00     0.108 A 
HETATM    6  C13 UNK     1      20.899  -2.919  32.064  1.00  0.00     0.304 A 
HETATM    7  O2  UNK     1      20.818  -2.637  30.703  1.00  0.00    -0.274 OA
HETATM    8  O3  UNK     1      21.466  -3.926  32.476  1.00  0.00    -0.259 OA
HETATM    9  C15 UNK     1      20.170  -1.483  30.221  1.00  0.00     0.089 A 
HETATM   10  C14 UNK     1      19.584  -0.580  31.104  1.00  0.00     0.001 A 
HETATM   11  C17 UNK     1      20.138  -1.286  28.842  1.00  0.00     0.040 A 
HETATM   12  C12 UNK     1      19.653  -0.846  32.532  1.00  0.00     0.037 A 
HETATM   13  C16 UNK     1      18.950   0.553  30.587  1.00  0.00     0.038 A 
HETATM   14  C18 UNK     1      18.912   0.764  29.206  1.00  0.00     0.035 A 
HETATM   15 Cl1  UNK     1      18.130   2.161  28.573  1.00  0.00    -0.084 Cl
HETATM   16  C19 UNK     1      19.504  -0.154  28.336  1.00  0.00     0.026 A 
ENDBRANCH   3   5
BRANCH   2  17
HETATM   17  C8  UNK     1      18.815  -2.047  36.444  1.00  0.00     0.085 C 
HETATM   18  C9  UNK     1      18.682  -3.516  36.828  1.00  0.00     0.032 C 
BRANCH  17  19
HETATM   19  C3  UNK     1      17.588  -1.253  36.859  1.00  0.00     0.012 C 
HETATM   20  C1  UNK     1      17.853   0.192  37.345  1.00  0.00    -0.008 C 
HETATM   21  C4  UNK     1      16.447   0.793  37.238  1.00  0.00     0.010 C 
HETATM   22  C6  UNK     1      18.608   1.019  36.292  1.00  0.00     0.005 C 
HETATM   23  C2  UNK     1      16.329   0.478  35.746  1.00  0.00    -0.014 C 
HETATM   24  C5  UNK     1      16.573  -1.043  35.714  1.00  0.00     0.011 C 
HETATM   25  C7  UNK     1      17.569   1.187  35.175  1.00  0.00     0.005 C 
ENDBRANCH  17  19
ENDBRANCH   2  17
TORSDOF 3
ENDMDL
MODEL 3
REMARK VINA RESULT:      -8.9      5.657     10.696
REMARK  3 active torsions:
REMARK  status: ('A' for Active; 'I' for Inactive)
REMARK       I    between atoms: C10_15  and  N1_5 
REMARK    1  A    between atoms: C8_13  and  N1_5 
REMARK    2  A    between atoms: C3_8  and  C8_13 
REMARK    3  A    between atoms: C10_15  and  C11_16 
ROOT
HETATM    1  O1  UNK     1      21.337  -4.306  37.154  1.00  0.00    -0.267 OA
HETATM    2  N1  UNK     1      20.005  -5.467  35.632  1.00  0.00    -0.352 N 
HETATM    3  C10 UNK     1      20.500  -4.339  36.259  1.00  0.00     0.258 C 
HETATM    4  H16 UNK     1      19.370  -5.370  34.846  1.00  0.00     0.163 HD
ENDROOT
BRANCH   3   5
HETATM    5  C11 UNK     1      19.911  -3.094  35.736  1.00  0.00     0.108 A 
HETATM    6  C13 UNK     1      20.150  -2.633  34.349  1.00  0.00     0.304 A 
HETATM    7  O2  UNK     1      19.539  -1.441  33.971  1.00  0.00    -0.274 OA
HETATM    8  O3  UNK     1      20.852  -3.268  33.568  1.00  0.00    -0.259 OA
HETATM    9  C15 UNK     1      18.733  -0.705  34.861  1.00  0.00     0.089 A 
HETATM   10  C14 UNK     1      18.520  -1.156  36.160  1.00  0.00     0.001 A 
HETATM   11  C17 UNK     1      18.163   0.477  34.392  1.00  0.00     0.040 A 
HETATM   12  C12 UNK     1      19.145  -2.398  36.585  1.00  0.00     0.037 A 
HETATM   13  C16 UNK     1      17.714  -0.398  37.014  1.00  0.00     0.038 A 
HETATM   14  C18 UNK     1      17.136   0.790  36.557  1.00  0.00     0.035 A 
HETATM   15 Cl1  UNK     1      16.143   1.721  37.611  1.00  0.00    -0.084 Cl
HETATM   16  C19 UNK     1      17.360   1.226  35.249  1.00  0.00     0.026 A 
ENDBRANCH   3   5
BRANCH   2  17
HETATM   17  C8  UNK     1      20.434  -6.803  35.972  1.00  0.00     0.085 C 
HETATM   18  C9  UNK     1      20.627  -7.631  34.707  1.00  0.00     0.032 C 
BRANCH  17  19
HETATM   19  C3  UNK     1      19.443  -7.461  36.918  1.00  0.00     0.012 C 
HETATM   20  C1  UNK     1      19.574  -8.995  37.071  1.00  0.00    -0.008 C 
HETATM   21  C4  UNK     1      18.780  -9.223  38.362  1.00  0.00     0.010 C 
HETATM   22  C6  UNK     1      20.987  -9.405  37.518  1.00  0.00     0.005 C 
HETATM   23  C2  UNK     1      19.662  -8.277  39.177  1.00  0.00    -0.014 C 
HETATM   24  C5  UNK     1      19.560  -6.965  38.375  1.00  0.00     0.011 C 
HETATM   25  C7  UNK     1      21.060  -8.880  38.958  1.00  0.00     0.005 C 
ENDBRANCH  17  19
ENDBRANCH   2  17
TORSDOF 3
ENDMDL
MODEL 4
REMARK VINA RESULT:      -8.9     11.915     14.290
REMARK  3 active torsions:
REMARK  status: ('A' for Active; 'I' for Inactive)
REMARK       I    between atoms: C10_15  and  N1_5 
REMARK    1  A    between atoms: C8_13  and  N1_5 
REMARK    2  A    between atoms: C3_8  and  C8_13 
REMARK    3  A    between atoms: C10_15  and  C11_16 
ROOT
HETATM    1  O1  UNK     1      22.946  -8.619  40.000  1.00  0.00    -0.267 OA
HETATM    2  N1  UNK     1      22.878  -8.568  37.670  1.00  0.00    -0.352 N 
HETATM    3  C10 UNK     1      23.400  -8.274  38.915  1.00  0.00     0.258 C 
HETATM    4  H16 UNK     1      23.383  -8.294  36.834  1.00  0.00     0.163 HD
ENDROOT
BRANCH   3   5
HETATM    5  C11 UNK     1      24.628  -7.463  38.840  1.00  0.00     0.108 A 
HETATM    6  C13 UNK     1      24.597  -5.983  38.896  1.00  0.00     0.304 A 
HETATM    7  O2  UNK     1      25.823  -5.328  38.815  1.00  0.00    -0.274 OA
HETATM    8  O3  UNK     1      23.545  -5.361  39.007  1.00  0.00    -0.259 OA
HETATM    9  C15 UNK     1      27.035  -6.034  38.686  1.00  0.00     0.089 A 
HETATM   10  C14 UNK     1      27.042  -7.424  38.635  1.00  0.00     0.001 A 
HETATM   11  C17 UNK     1      28.212  -5.291  38.613  1.00  0.00     0.040 A 
HETATM   12  C12 UNK     1      25.777  -8.138  38.717  1.00  0.00     0.037 A 
HETATM   13  C16 UNK     1      28.265  -8.088  38.507  1.00  0.00     0.038 A 
HETATM   14  C18 UNK     1      29.453  -7.356  38.432  1.00  0.00     0.035 A 
HETATM   15 Cl1  UNK     1      30.958  -8.177  38.274  1.00  0.00    -0.084 Cl
HETATM   16  C19 UNK     1      29.426  -5.960  38.485  1.00  0.00     0.026 A 
ENDBRANCH   3   5
BRANCH   2  17
HETATM   17  C8  UNK     1      21.679  -9.352  37.489  1.00  0.00     0.085 C 
HETATM   18  C9  UNK     1      21.929 -10.468  36.481  1.00  0.00     0.032 C 
BRANCH  17  19
HETATM   19  C3  UNK     1      20.519  -8.469  37.062  1.00  0.00     0.012 C 
HETATM   20  C1  UNK     1      19.311  -8.430  38.028  1.00  0.00    -0.008 C 
HETATM   21  C4  UNK     1      18.592  -7.169  37.537  1.00  0.00     0.010 C 
HETATM   22  C6  UNK     1      19.727  -7.999  39.444  1.00  0.00     0.005 C 
HETATM   23  C2  UNK     1      19.810  -6.275  37.769  1.00  0.00    -0.014 C 
HETATM   24  C5  UNK     1      20.894  -6.978  36.930  1.00  0.00     0.011 C 
HETATM   25  C7  UNK     1      20.104  -6.522  39.259  1.00  0.00     0.005 C 
ENDBRANCH  17  19
ENDBRANCH   2  17
TORSDOF 3
ENDMDL
MODEL 5
REMARK VINA RESULT:      -8.8      5.585      9.858
REMARK  3 active torsions:
REMARK  status: ('A' for Active; 'I' for Inactive)
REMARK       I    between atoms: C10_15  and  N1_5 
REMARK    1  A    between atoms: C8_13  and  N1_5 
REMARK    2  A    between atoms: C3_8  and  C8_13 
REMARK    3  A    between atoms: C10_15  and  C11_16 
ROOT
HETATM    1  O1  UNK     1      20.281  -1.479  35.496  1.00  0.00    -0.267 OA
HETATM    2  N1  UNK     1      19.875  -3.712  34.966  1.00  0.00    -0.352 N 
HETATM    3  C10 UNK     1      20.118  -2.382  34.683  1.00  0.00     0.258 C 
HETATM    4  H16 UNK     1      19.833  -4.390  34.211  1.00  0.00     0.163 HD
ENDROOT
BRANCH   3   5
HETATM    5  C11 UNK     1      20.174  -2.109  33.236  1.00  0.00     0.108 A 
HETATM    6  C13 UNK     1      20.841  -3.031  32.288  1.00  0.00     0.304 A 
HETATM    7  O2  UNK     1      20.829  -2.664  30.945  1.00  0.00    -0.274 OA
HETATM    8  O3  UNK     1      21.380  -4.067  32.663  1.00  0.00    -0.259 OA
HETATM    9  C15 UNK     1      20.213  -1.476  30.506  1.00  0.00     0.089 A 
HETATM   10  C14 UNK     1      19.592  -0.624  31.413  1.00  0.00     0.001 A 
HETATM   11  C17 UNK     1      20.251  -1.193  29.142  1.00  0.00     0.040 A 
HETATM   12  C12 UNK     1      19.589  -0.979  32.823  1.00  0.00     0.037 A 
HETATM   13  C16 UNK     1      18.992   0.546  30.938  1.00  0.00     0.038 A 
HETATM   14  C18 UNK     1      19.023   0.843  29.572  1.00  0.00     0.035 A 
HETATM   15 Cl1  UNK     1      18.283   2.284  28.991  1.00  0.00    -0.084 Cl
HETATM   16  C19 UNK     1      19.651  -0.026  28.676  1.00  0.00     0.026 A 
ENDBRANCH   3   5
BRANCH   2  17
HETATM   17  C8  UNK     1      19.778  -4.222  36.314  1.00  0.00     0.085 C 
HETATM   18  C9  UNK     1      20.651  -3.396  37.251  1.00  0.00     0.032 C 
BRANCH  17  19
HETATM   19  C3  UNK     1      20.154  -5.694  36.360  1.00  0.00     0.012 C 
HETATM   20  C1  UNK     1      19.279  -6.584  37.273  1.00  0.00    -0.008 C 
HETATM   21  C4  UNK     1      19.633  -7.976  36.741  1.00  0.00     0.010 C 
HETATM   22  C6  UNK     1      17.790  -6.495  36.900  1.00  0.00     0.005 C 
HETATM   23  C2  UNK     1      19.190  -7.642  35.316  1.00  0.00    -0.014 C 
HETATM   24  C5  UNK     1      20.044  -6.401  34.992  1.00  0.00     0.011 C 
HETATM   25  C7  UNK     1      17.735  -7.195  35.535  1.00  0.00     0.005 C 
ENDBRANCH  17  19
ENDBRANCH   2  17
TORSDOF 3
ENDMDL
MODEL 6
REMARK VINA RESULT:      -8.8      1.676      2.670
REMARK  3 active torsions:
REMARK  status: ('A' for Active; 'I' for Inactive)
REMARK       I    between atoms: C10_15  and  N1_5 
REMARK    1  A    between atoms: C8_13  and  N1_5 
REMARK    2  A    between atoms: C3_8  and  C8_13 
REMARK    3  A    between atoms: C10_15  and  C11_16 
ROOT
HETATM    1  O1  UNK     1      18.496   5.889  31.339  1.00  0.00    -0.267 OA
HETATM    2  N1  UNK     1      18.163   6.308  33.608  1.00  0.00    -0.352 N 
HETATM    3  C10 UNK     1      18.331   5.509  32.493  1.00  0.00     0.258 C 
HETATM    4  H16 UNK     1      18.112   5.884  34.529  1.00  0.00     0.163 HD
ENDROOT
BRANCH   3   5
HETATM    5  C11 UNK     1      18.299   4.071  32.813  1.00  0.00     0.108 A 
HETATM    6  C13 UNK     1      18.358   3.031  31.761  1.00  0.00     0.304 A 
HETATM    7  O2  UNK     1      18.319   1.706  32.188  1.00  0.00    -0.274 OA
HETATM    8  O3  UNK     1      18.437   3.317  30.570  1.00  0.00    -0.259 OA
HETATM    9  C15 UNK     1      18.228   1.368  33.552  1.00  0.00     0.089 A 
HETATM   10  C14 UNK     1      18.174   2.361  34.525  1.00  0.00     0.001 A 
HETATM   11  C17 UNK     1      18.196   0.015  33.883  1.00  0.00     0.040 A 
HETATM   12  C12 UNK     1      18.212   3.755  34.111  1.00  0.00     0.037 A 
HETATM   13  C16 UNK     1      18.084   1.986  35.868  1.00  0.00     0.038 A 
HETATM   14  C18 UNK     1      18.050   0.632  36.215  1.00  0.00     0.035 A 
HETATM   15 Cl1  UNK     1      17.939   0.173  37.870  1.00  0.00    -0.084 Cl
HETATM   16  C19 UNK     1      18.107  -0.351  35.224  1.00  0.00     0.026 A 
ENDBRANCH   3   5
BRANCH   2  17
HETATM   17  C8  UNK     1      18.160   7.750  33.545  1.00  0.00     0.085 C 
HETATM   18  C9  UNK     1      19.339   8.312  34.332  1.00  0.00     0.032 C 
BRANCH  17  19
HETATM   19  C3  UNK     1      16.840   8.308  34.050  1.00  0.00     0.012 C 
HETATM   20  C1  UNK     1      16.001   9.094  33.014  1.00  0.00    -0.008 C 
HETATM   21  C4  UNK     1      14.631   9.098  33.700  1.00  0.00     0.010 C 
HETATM   22  C6  UNK     1      15.703   8.251  31.764  1.00  0.00     0.005 C 
HETATM   23  C2  UNK     1      14.561   7.572  33.769  1.00  0.00    -0.014 C 
HETATM   24  C5  UNK     1      15.854   7.221  34.528  1.00  0.00     0.011 C 
HETATM   25  C7  UNK     1      14.736   7.181  32.291  1.00  0.00     0.005 C 
ENDBRANCH  17  19
ENDBRANCH   2  17
TORSDOF 3
ENDMDL
MODEL 7
REMARK VINA RESULT:      -8.7      2.541      3.204
REMARK  3 active torsions:
REMARK  status: ('A' for Active; 'I' for Inactive)
REMARK       I    between atoms: C10_15  and  N1_5 
REMARK    1  A    between atoms: C8_13  and  N1_5 
REMARK    2  A    between atoms: C3_8  and  C8_13 
REMARK    3  A    between atoms: C10_15  and  C11_16 
ROOT
HETATM    1  O1  UNK     1      17.161   2.685  30.320  1.00  0.00    -0.267 OA
HETATM    2  N1  UNK     1      19.241   3.564  30.900  1.00  0.00    -0.352 N 
HETATM    3  C10 UNK     1      18.345   2.553  30.613  1.00  0.00     0.258 C 
HETATM    4  H16 UNK     1      20.220   3.342  31.054  1.00  0.00     0.163 HD
ENDROOT
BRANCH   3   5
HETATM    5  C11 UNK     1      18.954   1.214  30.688  1.00  0.00     0.108 A 
HETATM    6  C13 UNK     1      19.470   0.518  29.488  1.00  0.00     0.304 A 
HETATM    7  O2  UNK     1      20.024  -0.745  29.686  1.00  0.00    -0.274 OA
HETATM    8  O3  UNK     1      19.415   1.023  28.371  1.00  0.00    -0.259 OA
HETATM    9  C15 UNK     1      20.092  -1.334  30.963  1.00  0.00     0.089 A 
HETATM   10  C14 UNK     1      19.601  -0.662  32.079  1.00  0.00     0.001 A 
HETATM   11  C17 UNK     1      20.664  -2.600  31.063  1.00  0.00     0.040 A 
HETATM   12  C12 UNK     1      19.016   0.658  31.904  1.00  0.00     0.037 A 
HETATM   13  C16 UNK     1      19.687  -1.279  33.329  1.00  0.00     0.038 A 
HETATM   14  C18 UNK     1      20.258  -2.550  33.444  1.00  0.00     0.035 A 
HETATM   15 Cl1  UNK     1      20.361  -3.308  34.987  1.00  0.00    -0.084 Cl
HETATM   16  C19 UNK     1      20.746  -3.208  32.313  1.00  0.00     0.026 A 
ENDBRANCH   3   5
BRANCH   2  17
HETATM   17  C8  UNK     1      18.877   4.962  30.888  1.00  0.00     0.085 C 
HETATM   18  C9  UNK     1      19.702   5.711  29.848  1.00  0.00     0.032 C 
BRANCH  17  19
HETATM   19  C3  UNK     1      19.042   5.571  32.271  1.00  0.00     0.012 C 
HETATM   20  C1  UNK     1      18.732   7.083  32.381  1.00  0.00    -0.008 C 
HETATM   21  C4  UNK     1      18.564   7.231  33.897  1.00  0.00     0.010 C 
HETATM   22  C6  UNK     1      17.311   7.412  31.893  1.00  0.00     0.005 C 
HETATM   23  C2  UNK     1      17.442   6.195  33.964  1.00  0.00    -0.014 C 
HETATM   24  C5  UNK     1      18.105   4.956  33.331  1.00  0.00     0.011 C 
HETATM   25  C7  UNK     1      16.422   6.770  32.967  1.00  0.00     0.005 C 
ENDBRANCH  17  19
ENDBRANCH   2  17
TORSDOF 3
ENDMDL
MODEL 8
REMARK VINA RESULT:      -8.6      3.403      4.460
REMARK  3 active torsions:
REMARK  status: ('A' for Active; 'I' for Inactive)
REMARK       I    between atoms: C10_15  and  N1_5 
REMARK    1  A    between atoms: C8_13  and  N1_5 
REMARK    2  A    between atoms: C3_8  and  C8_13 
REMARK    3  A    between atoms: C10_15  and  C11_16 
ROOT
HETATM    1  O1  UNK     1      17.642   3.689  32.638  1.00  0.00    -0.267 OA
HETATM    2  N1  UNK     1      18.980   5.009  31.259  1.00  0.00    -0.352 N 
HETATM    3  C10 UNK     1      18.385   3.833  31.674  1.00  0.00     0.258 C 
HETATM    4  H16 UNK     1      19.516   5.026  30.397  1.00  0.00     0.163 HD
ENDROOT
BRANCH   3   5
HETATM    5  C11 UNK     1      18.729   2.687  30.814  1.00  0.00     0.108 A 
HETATM    6  C13 UNK     1      18.579   2.736  29.342  1.00  0.00     0.304 A 
HETATM    7  O2  UNK     1      18.937   1.590  28.637  1.00  0.00    -0.274 OA
HETATM    8  O3  UNK     1      18.159   3.735  28.766  1.00  0.00    -0.259 OA
HETATM    9  C15 UNK     1      19.419   0.438  29.289  1.00  0.00     0.089 A 
HETATM   10  C14 UNK     1      19.553   0.413  30.673  1.00  0.00     0.001 A 
HETATM   11  C17 UNK     1      19.753  -0.661  28.499  1.00  0.00     0.040 A 
HETATM   12  C12 UNK     1      19.187   1.594  31.438  1.00  0.00     0.037 A 
HETATM   13  C16 UNK     1      20.035  -0.748  31.283  1.00  0.00     0.038 A 
HETATM   14  C18 UNK     1      20.373  -1.859  30.504  1.00  0.00     0.035 A 
HETATM   15 Cl1  UNK     1      20.967  -3.288  31.258  1.00  0.00    -0.084 Cl
HETATM   16  C19 UNK     1      20.233  -1.814  29.114  1.00  0.00     0.026 A 
ENDBRANCH   3   5
BRANCH   2  17
HETATM   17  C8  UNK     1      18.790   6.267  31.942  1.00  0.00     0.085 C 
HETATM   18  C9  UNK     1      19.708   6.349  33.156  1.00  0.00     0.032 C 
BRANCH  17  19
HETATM   19  C3  UNK     1      17.333   6.450  32.335  1.00  0.00     0.012 C 
HETATM   20  C1  UNK     1      17.080   6.889  33.796  1.00  0.00    -0.008 C 
HETATM   21  C4  UNK     1      15.635   7.390  33.698  1.00  0.00     0.010 C 
HETATM   22  C6  UNK     1      17.821   8.192  34.137  1.00  0.00     0.005 C 
HETATM   23  C2  UNK     1      15.970   8.419  32.618  1.00  0.00    -0.014 C 
HETATM   24  C5  UNK     1      16.609   7.544  31.522  1.00  0.00     0.011 C 
HETATM   25  C7  UNK     1      17.078   9.241  33.299  1.00  0.00     0.005 C 
ENDBRANCH  17  19
ENDBRANCH   2  17
TORSDOF 3
ENDMDL
MODEL 9
REMARK VINA RESULT:      -8.4     24.470     26.599
REMARK  3 active torsions:
REMARK  status: ('A' for Active; 'I' for Inactive)
REMARK       I    between atoms: C10_15  and  N1_5 
REMARK    1  A    between atoms: C8_13  and  N1_5 
REMARK    2  A    between atoms: C3_8  and  C8_13 
REMARK    3  A    between atoms: C10_15  and  C11_16 
ROOT
HETATM    1  O1  UNK     1      14.188   8.212  11.027  1.00  0.00    -0.267 OA
HETATM    2  N1  UNK     1      14.861   6.874   9.241  1.00  0.00    -0.352 N 
HETATM    3  C10 UNK     1      14.855   8.017  10.017  1.00  0.00     0.258 C 
HETATM    4  H16 UNK     1      15.513   6.792   8.467  1.00  0.00     0.163 HD
ENDROOT
BRANCH   3   5
HETATM    5  C11 UNK     1      15.771   9.054   9.510  1.00  0.00     0.108 A 
HETATM    6  C13 UNK     1      17.238   8.960   9.687  1.00  0.00     0.304 A 
HETATM    7  O2  UNK     1      18.000  10.002   9.165  1.00  0.00    -0.274 OA
HETATM    8  O3  UNK     1      17.762   8.013  10.266  1.00  0.00    -0.259 OA
HETATM    9  C15 UNK     1      17.408  11.093   8.499  1.00  0.00     0.089 A 
HETATM   10  C14 UNK     1      16.027  11.161   8.343  1.00  0.00     0.001 A 
HETATM   11  C17 UNK     1      18.252  12.087   8.009  1.00  0.00     0.040 A 
HETATM   12  C12 UNK     1      15.204  10.088   8.879  1.00  0.00     0.037 A 
HETATM   13  C16 UNK     1      15.477  12.260   7.677  1.00  0.00     0.038 A 
HETATM   14  C18 UNK     1      16.311  13.266   7.181  1.00  0.00     0.035 A 
HETATM   15 Cl1  UNK     1      15.631  14.617   6.360  1.00  0.00    -0.084 Cl
HETATM   16  C19 UNK     1      17.696  13.179   7.346  1.00  0.00     0.026 A 
ENDBRANCH   3   5
BRANCH   2  17
HETATM   17  C8  UNK     1      14.046   5.720   9.540  1.00  0.00     0.085 C 
HETATM   18  C9  UNK     1      14.930   4.523   9.869  1.00  0.00     0.032 C 
BRANCH  17  19
HETATM   19  C3  UNK     1      13.105   5.413   8.386  1.00  0.00     0.012 C 
HETATM   20  C1  UNK     1      11.602   5.655   8.660  1.00  0.00    -0.008 C 
HETATM   21  C4  UNK     1      11.051   5.685   7.230  1.00  0.00     0.010 C 
HETATM   22  C6  UNK     1      11.330   7.099   9.111  1.00  0.00     0.005 C 
HETATM   23  C2  UNK     1      11.965   6.835   6.807  1.00  0.00    -0.014 C 
HETATM   24  C5  UNK     1      13.364   6.277   7.134  1.00  0.00     0.011 C 
HETATM   25  C7  UNK     1      11.613   7.916   7.843  1.00  0.00     0.005 C 
ENDBRANCH  17  19
ENDBRANCH   2  17
TORSDOF 3
ENDMDL
MODEL 10
REMARK VINA RESULT:      -8.3     12.705     15.082
REMARK  3 active torsions:
REMARK  status: ('A' for Active; 'I' for Inactive)
REMARK       I    between atoms: C10_15  and  N1_5 
REMARK    1  A    between atoms: C8_13  and  N1_5 
REMARK    2  A    between atoms: C3_8  and  C8_13 
REMARK    3  A    between atoms: C10_15  and  C11_16 
ROOT
HETATM    1  O1  UNK     1      25.845  -9.074  39.425  1.00  0.00    -0.267 OA
HETATM    2  N1  UNK     1      24.615  -7.593  38.110  1.00  0.00    -0.352 N 
HETATM    3  C10 UNK     1      25.731  -8.025  38.800  1.00  0.00     0.258 C 
HETATM    4  H16 UNK     1      24.660  -6.740  37.561  1.00  0.00     0.163 HD
ENDROOT
BRANCH   3   5
HETATM    5  C11 UNK     1      26.852  -7.072  38.724  1.00  0.00     0.108 A 
HETATM    6  C13 UNK     1      26.648  -5.610  38.837  1.00  0.00     0.304 A 
HETATM    7  O2  UNK     1      27.785  -4.811  38.749  1.00  0.00    -0.274 OA
HETATM    8  O3  UNK     1      25.535  -5.121  39.000  1.00  0.00    -0.259 OA
HETATM    9  C15 UNK     1      29.068  -5.362  38.561  1.00  0.00     0.089 A 
HETATM   10  C14 UNK     1      29.237  -6.739  38.457  1.00  0.00     0.001 A 
HETATM   11  C17 UNK     1      30.146  -4.483  38.486  1.00  0.00     0.040 A 
HETATM   12  C12 UNK     1      28.068  -7.601  38.544  1.00  0.00     0.037 A 
HETATM   13  C16 UNK     1      30.525  -7.248  38.271  1.00  0.00     0.038 A 
HETATM   14  C18 UNK     1      31.616  -6.378  38.193  1.00  0.00     0.035 A 
HETATM   15 Cl1  UNK     1      33.201  -7.008  37.964  1.00  0.00    -0.084 Cl
HETATM   16  C19 UNK     1      31.426  -4.998  38.301  1.00  0.00     0.026 A 
ENDBRANCH   3   5
BRANCH   2  17
HETATM   17  C8  UNK     1      23.393  -8.359  38.038  1.00  0.00     0.085 C 
HETATM   18  C9  UNK     1      23.391  -9.231  36.788  1.00  0.00     0.032 C 
BRANCH  17  19
HETATM   19  C3  UNK     1      22.181  -7.442  38.076  1.00  0.00     0.012 C 
HETATM   20  C1  UNK     1      20.887  -8.011  37.448  1.00  0.00    -0.008 C 
HETATM   21  C4  UNK     1      19.840  -7.065  38.046  1.00  0.00     0.010 C 
HETATM   22  C6  UNK     1      20.480  -9.346  38.092  1.00  0.00     0.005 C 
HETATM   23  C2  UNK     1      20.226  -7.403  39.486  1.00  0.00    -0.014 C 
HETATM   24  C5  UNK     1      21.731  -7.074  39.505  1.00  0.00     0.011 C 
HETATM   25  C7  UNK     1      20.056  -8.932  39.507  1.00  0.00     0.005 C 
ENDBRANCH  17  19
ENDBRANCH   2  17
TORSDOF 3
ENDMDL
