MODEL 1
REMARK VINA RESULT:      -7.1      0.000      0.000
REMARK  4 active torsions:
REMARK  status: ('A' for Active; 'I' for Inactive)
REMARK    1  A    between atoms: C14_16  and  O1_1 
REMARK    2  A    between atoms: C1_3  and  C2_4 
REMARK    3  A    between atoms: C14_16  and  C2_4 
REMARK    4  A    between atoms: C3_5  and  C4_6 
ROOT
HETATM    1  C2  UNK     1      19.066  -7.444  36.636  1.00  0.00     0.048 C 
HETATM    2  C4  UNK     1      19.479  -6.520  37.540  1.00  0.00     0.030 C 
ENDROOT
BRANCH   1   3
HETATM    3  C1  UNK     1      19.885  -8.624  36.300  1.00  0.00    -0.019 A 
HETATM    4  C5  UNK     1      19.667  -9.813  36.977  1.00  0.00     0.012 A 
HETATM    5  C9  UNK     1      20.442 -10.930  36.660  1.00  0.00     0.001 A 
HETATM    6  C11 UNK     1      21.420 -10.841  35.670  1.00  0.00     0.000 A 
HETATM    7  C10 UNK     1      21.625  -9.636  34.997  1.00  0.00     0.001 A 
HETATM    8  C6  UNK     1      20.852  -8.520  35.314  1.00  0.00     0.012 A 
ENDBRANCH   1   3
BRANCH   1   9
HETATM    9  C14 UNK     1      17.744  -7.204  35.989  1.00  0.00     0.177 C 
HETATM   10  O2  UNK     1      17.426  -7.556  34.864  1.00  0.00    -0.646 OA
BRANCH   9  11
HETATM   11  O1  UNK     1      16.916  -6.534  36.827  1.00  0.00    -0.773 OA
HETATM   12  H12 UNK     1      15.974  -6.641  36.575  1.00  0.00     0.167 HD
ENDBRANCH   9  11
ENDBRANCH   1   9
BRANCH   2  13
HETATM   13  C3  UNK     1      20.723  -6.558  38.293  1.00  0.00    -0.035 A 
HETATM   14  C7  UNK     1      20.891  -7.490  39.318  1.00  0.00     0.011 A 
HETATM   15  C12 UNK     1      22.083  -7.526  40.040  1.00  0.00     0.001 A 
HETATM   16  C15 UNK     1      23.109  -6.631  39.738  1.00  0.00     0.000 A 
HETATM   17  C13 UNK     1      22.942  -5.699  38.714  1.00  0.00     0.001 A 
HETATM   18  C8  UNK     1      21.750  -5.663  37.991  1.00  0.00     0.011 A 
ENDBRANCH   2  13
TORSDOF 4
ENDMDL
MODEL 2
REMARK VINA RESULT:      -6.9     14.873     16.333
REMARK  4 active torsions:
REMARK  status: ('A' for Active; 'I' for Inactive)
REMARK    1  A    between atoms: C14_16  and  O1_1 
REMARK    2  A    between atoms: C1_3  and  C2_4 
REMARK    3  A    between atoms: C14_16  and  C2_4 
REMARK    4  A    between atoms: C3_5  and  C4_6 
ROOT
HETATM    1  C2  UNK     1      15.985   7.413  32.828  1.00  0.00     0.048 C 
HETATM    2  C4  UNK     1      16.320   8.433  33.658  1.00  0.00     0.030 C 
ENDROOT
BRANCH   1   3
HETATM    3  C1  UNK     1      17.006   6.622  32.116  1.00  0.00    -0.019 A 
HETATM    4  C5  UNK     1      17.578   7.136  30.964  1.00  0.00     0.012 A 
HETATM    5  C9  UNK     1      18.544   6.387  30.291  1.00  0.00     0.001 A 
HETATM    6  C11 UNK     1      18.924   5.138  30.780  1.00  0.00     0.000 A 
HETATM    7  C10 UNK     1      18.338   4.635  31.941  1.00  0.00     0.001 A 
HETATM    8  C6  UNK     1      17.372   5.382  32.615  1.00  0.00     0.012 A 
ENDBRANCH   1   3
BRANCH   1   9
HETATM    9  C14 UNK     1      14.529   7.133  32.665  1.00  0.00     0.177 C 
HETATM   10  O2  UNK     1      13.995   6.699  31.655  1.00  0.00    -0.646 OA
BRANCH   9  11
HETATM   11  O1  UNK     1      13.855   7.421  33.804  1.00  0.00    -0.773 OA
HETATM   12  H12 UNK     1      14.313   7.075  34.599  1.00  0.00     0.167 HD
ENDBRANCH   9  11
ENDBRANCH   1   9
BRANCH   2  13
HETATM   13  C3  UNK     1      17.671   8.872  33.970  1.00  0.00    -0.035 A 
HETATM   14  C7  UNK     1      18.031  10.207  33.782  1.00  0.00     0.011 A 
HETATM   15  C12 UNK     1      19.328  10.629  34.080  1.00  0.00     0.001 A 
HETATM   16  C15 UNK     1      20.263   9.715  34.567  1.00  0.00     0.000 A 
HETATM   17  C13 UNK     1      19.903   8.381  34.754  1.00  0.00     0.001 A 
HETATM   18  C8  UNK     1      18.607   7.959  34.455  1.00  0.00     0.011 A 
ENDBRANCH   2  13
TORSDOF 4
ENDMDL
MODEL 3
REMARK VINA RESULT:      -6.9     31.046     33.254
REMARK  4 active torsions:
REMARK  status: ('A' for Active; 'I' for Inactive)
REMARK    1  A    between atoms: C14_16  and  O1_1 
REMARK    2  A    between atoms: C1_3  and  C2_4 
REMARK    3  A    between atoms: C14_16  and  C2_4 
REMARK    4  A    between atoms: C3_5  and  C4_6 
ROOT
HETATM    1  C2  UNK     1      14.033   5.762   9.009  1.00  0.00     0.048 C 
HETATM    2  C4  UNK     1      13.109   5.047   8.318  1.00  0.00     0.030 C 
ENDROOT
BRANCH   1   3
HETATM    3  C1  UNK     1      13.856   7.200   9.286  1.00  0.00    -0.019 A 
HETATM    4  C5  UNK     1      13.231   7.591  10.458  1.00  0.00     0.012 A 
HETATM    5  C9  UNK     1      13.065   8.952  10.720  1.00  0.00     0.001 A 
HETATM    6  C11 UNK     1      13.526   9.899   9.808  1.00  0.00     0.000 A 
HETATM    7  C10 UNK     1      14.154   9.488   8.632  1.00  0.00     0.001 A 
HETATM    8  C6  UNK     1      14.321   8.128   8.369  1.00  0.00     0.012 A 
ENDBRANCH   1   3
BRANCH   1   9
HETATM    9  C14 UNK     1      15.243   5.022   9.470  1.00  0.00     0.177 C 
HETATM   10  O2  UNK     1      16.401   5.355   9.270  1.00  0.00    -0.646 OA
BRANCH   9  11
HETATM   11  O1  UNK     1      14.891   3.911  10.160  1.00  0.00    -0.773 OA
HETATM   12  H12 UNK     1      14.594   3.190   9.567  1.00  0.00     0.167 HD
ENDBRANCH   9  11
ENDBRANCH   1   9
BRANCH   2  13
HETATM   13  C3  UNK     1      11.856   5.560   7.785  1.00  0.00    -0.035 A 
HETATM   14  C7  UNK     1      10.718   5.599   8.591  1.00  0.00     0.011 A 
HETATM   15  C12 UNK     1       9.517   6.090   8.080  1.00  0.00     0.001 A 
HETATM   16  C15 UNK     1       9.453   6.543   6.762  1.00  0.00     0.000 A 
HETATM   17  C13 UNK     1      10.591   6.503   5.956  1.00  0.00     0.001 A 
HETATM   18  C8  UNK     1      11.792   6.012   6.466  1.00  0.00     0.011 A 
ENDBRANCH   2  13
TORSDOF 4
ENDMDL
MODEL 4
REMARK VINA RESULT:      -6.9     31.046     33.274
REMARK  4 active torsions:
REMARK  status: ('A' for Active; 'I' for Inactive)
REMARK    1  A    between atoms: C14_16  and  O1_1 
REMARK    2  A    between atoms: C1_3  and  C2_4 
REMARK    3  A    between atoms: C14_16  and  C2_4 
REMARK    4  A    between atoms: C3_5  and  C4_6 
ROOT
HETATM    1  C2  UNK     1      14.026   5.758   9.009  1.00  0.00     0.048 C 
HETATM    2  C4  UNK     1      13.100   5.043   8.320  1.00  0.00     0.030 C 
ENDROOT
BRANCH   1   3
HETATM    3  C1  UNK     1      13.851   7.196   9.284  1.00  0.00    -0.019 A 
HETATM    4  C5  UNK     1      14.317   8.122   8.366  1.00  0.00     0.012 A 
HETATM    5  C9  UNK     1      14.151   9.483   8.627  1.00  0.00     0.001 A 
HETATM    6  C11 UNK     1      13.523   9.896   9.800  1.00  0.00     0.000 A 
HETATM    7  C10 UNK     1      13.059   8.950  10.715  1.00  0.00     0.001 A 
HETATM    8  C6  UNK     1      13.224   7.590  10.455  1.00  0.00     0.012 A 
ENDBRANCH   1   3
BRANCH   1   9
HETATM    9  C14 UNK     1      15.235   5.017   9.470  1.00  0.00     0.177 C 
HETATM   10  O2  UNK     1      16.394   5.348   9.269  1.00  0.00    -0.646 OA
BRANCH   9  11
HETATM   11  O1  UNK     1      14.883   3.906  10.162  1.00  0.00    -0.773 OA
HETATM   12  H12 UNK     1      13.919   3.734  10.113  1.00  0.00     0.167 HD
ENDBRANCH   9  11
ENDBRANCH   1   9
BRANCH   2  13
HETATM   13  C3  UNK     1      11.848   5.557   7.786  1.00  0.00    -0.035 A 
HETATM   14  C7  UNK     1      10.712   5.600   8.594  1.00  0.00     0.011 A 
HETATM   15  C12 UNK     1       9.510   6.092   8.083  1.00  0.00     0.001 A 
HETATM   16  C15 UNK     1       9.446   6.541   6.764  1.00  0.00     0.000 A 
HETATM   17  C13 UNK     1      10.582   6.497   5.956  1.00  0.00     0.001 A 
HETATM   18  C8  UNK     1      11.783   6.005   6.467  1.00  0.00     0.011 A 
ENDBRANCH   2  13
TORSDOF 4
ENDMDL
MODEL 5
REMARK VINA RESULT:      -6.9     14.514     16.358
REMARK  4 active torsions:
REMARK  status: ('A' for Active; 'I' for Inactive)
REMARK    1  A    between atoms: C14_16  and  O1_1 
REMARK    2  A    between atoms: C1_3  and  C2_4 
REMARK    3  A    between atoms: C14_16  and  C2_4 
REMARK    4  A    between atoms: C3_5  and  C4_6 
ROOT
HETATM    1  C2  UNK     1      18.237   8.096  33.252  1.00  0.00     0.048 C 
HETATM    2  C4  UNK     1      19.177   7.196  32.867  1.00  0.00     0.030 C 
ENDROOT
BRANCH   1   3
HETATM    3  C1  UNK     1      16.795   7.837  33.080  1.00  0.00    -0.019 A 
HETATM    4  C5  UNK     1      16.003   7.647  34.199  1.00  0.00     0.012 A 
HETATM    5  C9  UNK     1      14.638   7.403  34.035  1.00  0.00     0.001 A 
HETATM    6  C11 UNK     1      14.088   7.353  32.755  1.00  0.00     0.000 A 
HETATM    7  C10 UNK     1      14.900   7.547  31.638  1.00  0.00     0.001 A 
HETATM    8  C6  UNK     1      16.264   7.791  31.801  1.00  0.00     0.012 A 
ENDBRANCH   1   3
BRANCH   1   9
HETATM    9  C14 UNK     1      18.734   9.366  33.855  1.00  0.00     0.177 C 
HETATM   10  O2  UNK     1      18.226  10.469  33.714  1.00  0.00    -0.646 OA
BRANCH   9  11
HETATM   11  O1  UNK     1      19.842   9.141  34.602  1.00  0.00    -0.773 OA
HETATM   12  H12 UNK     1      20.645   9.049  34.047  1.00  0.00     0.167 HD
ENDBRANCH   9  11
ENDBRANCH   1   9
BRANCH   2  13
HETATM   13  C3  UNK     1      18.920   5.896  32.268  1.00  0.00    -0.035 A 
HETATM   14  C7  UNK     1      19.233   5.672  30.926  1.00  0.00     0.011 A 
HETATM   15  C12 UNK     1      18.985   4.425  30.351  1.00  0.00     0.001 A 
HETATM   16  C15 UNK     1      18.426   3.402  31.117  1.00  0.00     0.000 A 
HETATM   17  C13 UNK     1      18.113   3.626  32.457  1.00  0.00     0.001 A 
HETATM   18  C8  UNK     1      18.360   4.873  33.033  1.00  0.00     0.011 A 
ENDBRANCH   2  13
TORSDOF 4
ENDMDL
MODEL 6
REMARK VINA RESULT:      -6.6     14.959     16.847
REMARK  4 active torsions:
REMARK  status: ('A' for Active; 'I' for Inactive)
REMARK    1  A    between atoms: C14_16  and  O1_1 
REMARK    2  A    between atoms: C1_3  and  C2_4 
REMARK    3  A    between atoms: C14_16  and  C2_4 
REMARK    4  A    between atoms: C3_5  and  C4_6 
ROOT
HETATM    1  C2  UNK     1      16.393   8.176  33.750  1.00  0.00     0.048 C 
HETATM    2  C4  UNK     1      16.169   7.148  32.893  1.00  0.00     0.030 C 
ENDROOT
BRANCH   1   3
HETATM    3  C1  UNK     1      17.752   8.676  34.028  1.00  0.00    -0.019 A 
HETATM    4  C5  UNK     1      18.063   9.992  33.730  1.00  0.00     0.012 A 
HETATM    5  C9  UNK     1      19.350  10.465  33.993  1.00  0.00     0.001 A 
HETATM    6  C11 UNK     1      20.304   9.616  34.550  1.00  0.00     0.000 A 
HETATM    7  C10 UNK     1      19.974   8.293  34.845  1.00  0.00     0.001 A 
HETATM    8  C6  UNK     1      18.689   7.819  34.582  1.00  0.00     0.012 A 
ENDBRANCH   1   3
BRANCH   1   9
HETATM    9  C14 UNK     1      15.194   8.774  34.405  1.00  0.00     0.177 C 
HETATM   10  O2  UNK     1      14.085   8.879  33.903  1.00  0.00    -0.646 OA
BRANCH   9  11
HETATM   11  O1  UNK     1      15.491   9.191  35.660  1.00  0.00    -0.773 OA
HETATM   12  H12 UNK     1      14.690   9.465  36.155  1.00  0.00     0.167 HD
ENDBRANCH   9  11
ENDBRANCH   1   9
BRANCH   2  13
HETATM   13  C3  UNK     1      17.184   6.427  32.141  1.00  0.00    -0.035 A 
HETATM   14  C7  UNK     1      17.585   5.155  32.553  1.00  0.00     0.011 A 
HETATM   15  C12 UNK     1      18.560   4.463  31.833  1.00  0.00     0.001 A 
HETATM   16  C15 UNK     1      19.132   5.042  30.700  1.00  0.00     0.000 A 
HETATM   17  C13 UNK     1      18.732   6.313  30.289  1.00  0.00     0.001 A 
HETATM   18  C8  UNK     1      17.758   7.005  31.009  1.00  0.00     0.011 A 
ENDBRANCH   2  13
TORSDOF 4
ENDMDL
MODEL 7
REMARK VINA RESULT:      -6.5      7.136      8.875
REMARK  4 active torsions:
REMARK  status: ('A' for Active; 'I' for Inactive)
REMARK    1  A    between atoms: C14_16  and  O1_1 
REMARK    2  A    between atoms: C1_3  and  C2_4 
REMARK    3  A    between atoms: C14_16  and  C2_4 
REMARK    4  A    between atoms: C3_5  and  C4_6 
ROOT
HETATM    1  C2  UNK     1      27.716  -6.312  38.352  1.00  0.00     0.048 C 
HETATM    2  C4  UNK     1      28.910  -5.846  37.904  1.00  0.00     0.030 C 
ENDROOT
BRANCH   1   3
HETATM    3  C1  UNK     1      27.467  -7.753  38.544  1.00  0.00    -0.019 A 
HETATM    4  C5  UNK     1      26.945  -8.495  37.497  1.00  0.00     0.012 A 
HETATM    5  C9  UNK     1      26.710  -9.858  37.679  1.00  0.00     0.001 A 
HETATM    6  C11 UNK     1      27.000 -10.459  38.903  1.00  0.00     0.000 A 
HETATM    7  C10 UNK     1      27.525  -9.697  39.947  1.00  0.00     0.001 A 
HETATM    8  C6  UNK     1      27.761  -8.335  39.767  1.00  0.00     0.012 A 
ENDBRANCH   1   3
BRANCH   1   9
HETATM    9  C14 UNK     1      26.664  -5.295  38.636  1.00  0.00     0.177 C 
HETATM   10  O2  UNK     1      25.466  -5.515  38.729  1.00  0.00    -0.646 OA
BRANCH   9  11
HETATM   11  O1  UNK     1      27.213  -4.066  38.787  1.00  0.00    -0.773 OA
HETATM   12  H12 UNK     1      26.589  -3.432  39.198  1.00  0.00     0.167 HD
ENDBRANCH   9  11
ENDBRANCH   1   9
BRANCH   2  13
HETATM   13  C3  UNK     1      30.074  -6.654  37.576  1.00  0.00    -0.035 A 
HETATM   14  C7  UNK     1      31.061  -6.878  38.537  1.00  0.00     0.011 A 
HETATM   15  C12 UNK     1      32.178  -7.652  38.222  1.00  0.00     0.001 A 
HETATM   16  C15 UNK     1      32.308  -8.202  36.946  1.00  0.00     0.000 A 
HETATM   17  C13 UNK     1      31.322  -7.977  35.986  1.00  0.00     0.001 A 
HETATM   18  C8  UNK     1      30.205  -7.203  36.300  1.00  0.00     0.011 A 
ENDBRANCH   2  13
TORSDOF 4
ENDMDL
MODEL 8
REMARK VINA RESULT:      -6.5      7.939      9.914
REMARK  4 active torsions:
REMARK  status: ('A' for Active; 'I' for Inactive)
REMARK    1  A    between atoms: C14_16  and  O1_1 
REMARK    2  A    between atoms: C1_3  and  C2_4 
REMARK    3  A    between atoms: C14_16  and  C2_4 
REMARK    4  A    between atoms: C3_5  and  C4_6 
ROOT
HETATM    1  C2  UNK     1      29.335  -5.816  38.497  1.00  0.00     0.048 C 
HETATM    2  C4  UNK     1      28.137  -6.303  38.908  1.00  0.00     0.030 C 
ENDROOT
BRANCH   1   3
HETATM    3  C1  UNK     1      30.344  -6.676  37.852  1.00  0.00    -0.019 A 
HETATM    4  C5  UNK     1      31.384  -7.185  38.611  1.00  0.00     0.012 A 
HETATM    5  C9  UNK     1      32.339  -7.999  38.001  1.00  0.00     0.001 A 
HETATM    6  C11 UNK     1      32.239  -8.292  36.641  1.00  0.00     0.000 A 
HETATM    7  C10 UNK     1      31.185  -7.771  35.891  1.00  0.00     0.001 A 
HETATM    8  C6  UNK     1      30.230  -6.957  36.500  1.00  0.00     0.012 A 
ENDBRANCH   1   3
BRANCH   1   9
HETATM    9  C14 UNK     1      29.585  -4.365  38.736  1.00  0.00     0.177 C 
HETATM   10  O2  UNK     1      29.584  -3.812  39.825  1.00  0.00    -0.646 OA
BRANCH   9  11
HETATM   11  O1  UNK     1      29.826  -3.721  37.568  1.00  0.00    -0.773 OA
HETATM   12  H12 UNK     1      29.073  -3.799  36.945  1.00  0.00     0.167 HD
ENDBRANCH   9  11
ENDBRANCH   1   9
BRANCH   2  13
HETATM   13  C3  UNK     1      27.680  -7.677  38.769  1.00  0.00    -0.035 A 
HETATM   14  C7  UNK     1      27.035  -8.082  37.599  1.00  0.00     0.011 A 
HETATM   15  C12 UNK     1      26.596  -9.400  37.465  1.00  0.00     0.001 A 
HETATM   16  C15 UNK     1      26.802 -10.312  38.500  1.00  0.00     0.000 A 
HETATM   17  C13 UNK     1      27.446  -9.907  39.669  1.00  0.00     0.001 A 
HETATM   18  C8  UNK     1      27.884  -8.590  39.803  1.00  0.00     0.011 A 
ENDBRANCH   2  13
TORSDOF 4
ENDMDL
MODEL 9
REMARK VINA RESULT:      -6.4      9.313     11.130
REMARK  4 active torsions:
REMARK  status: ('A' for Active; 'I' for Inactive)
REMARK    1  A    between atoms: C14_16  and  O1_1 
REMARK    2  A    between atoms: C1_3  and  C2_4 
REMARK    3  A    between atoms: C14_16  and  C2_4 
REMARK    4  A    between atoms: C3_5  and  C4_6 
ROOT
HETATM    1  C2  UNK     1      30.023  -4.944  38.290  1.00  0.00     0.048 C 
HETATM    2  C4  UNK     1      31.213  -4.296  38.209  1.00  0.00     0.030 C 
ENDROOT
BRANCH   1   3
HETATM    3  C1  UNK     1      29.788  -6.228  37.604  1.00  0.00    -0.019 A 
HETATM    4  C5  UNK     1      29.915  -7.409  38.317  1.00  0.00     0.012 A 
HETATM    5  C9  UNK     1      29.692  -8.624  37.668  1.00  0.00     0.001 A 
HETATM    6  C11 UNK     1      29.345  -8.640  36.318  1.00  0.00     0.000 A 
HETATM    7  C10 UNK     1      29.221  -7.441  35.615  1.00  0.00     0.001 A 
HETATM    8  C6  UNK     1      29.444  -6.226  36.262  1.00  0.00     0.012 A 
ENDBRANCH   1   3
BRANCH   1   9
HETATM    9  C14 UNK     1      28.959  -4.289  39.104  1.00  0.00     0.177 C 
HETATM   10  O2  UNK     1      27.758  -4.357  38.894  1.00  0.00    -0.646 OA
BRANCH   9  11
HETATM   11  O1  UNK     1      29.502  -3.595  40.134  1.00  0.00    -0.773 OA
HETATM   12  H12 UNK     1      29.016  -2.763  40.312  1.00  0.00     0.167 HD
ENDBRANCH   9  11
ENDBRANCH   1   9
BRANCH   2  13
HETATM   13  C3  UNK     1      32.387  -4.754  37.481  1.00  0.00    -0.035 A 
HETATM   14  C7  UNK     1      33.245  -5.689  38.060  1.00  0.00     0.011 A 
HETATM   15  C12 UNK     1      34.372  -6.128  37.364  1.00  0.00     0.001 A 
HETATM   16  C15 UNK     1      34.639  -5.632  36.087  1.00  0.00     0.000 A 
HETATM   17  C13 UNK     1      33.781  -4.697  35.509  1.00  0.00     0.001 A 
HETATM   18  C8  UNK     1      32.656  -4.258  36.206  1.00  0.00     0.011 A 
ENDBRANCH   2  13
TORSDOF 4
ENDMDL
MODEL 10
REMARK VINA RESULT:      -6.4      9.454     11.484
REMARK  4 active torsions:
REMARK  status: ('A' for Active; 'I' for Inactive)
REMARK    1  A    between atoms: C14_16  and  O1_1 
REMARK    2  A    between atoms: C1_3  and  C2_4 
REMARK    3  A    between atoms: C14_16  and  C2_4 
REMARK    4  A    between atoms: C3_5  and  C4_6 
ROOT
HETATM    1  C2  UNK     1      30.233  -4.937  38.098  1.00  0.00     0.048 C 
HETATM    2  C4  UNK     1      30.831  -4.128  37.186  1.00  0.00     0.030 C 
ENDROOT
BRANCH   1   3
HETATM    3  C1  UNK     1      30.502  -6.386  38.148  1.00  0.00    -0.019 A 
HETATM    4  C5  UNK     1      29.474  -7.275  37.882  1.00  0.00     0.012 A 
HETATM    5  C9  UNK     1      29.729  -8.646  37.930  1.00  0.00     0.001 A 
HETATM    6  C11 UNK     1      31.008  -9.107  38.240  1.00  0.00     0.000 A 
HETATM    7  C10 UNK     1      32.033  -8.198  38.504  1.00  0.00     0.001 A 
HETATM    8  C6  UNK     1      31.779  -6.827  38.457  1.00  0.00     0.012 A 
ENDBRANCH   1   3
BRANCH   1   9
HETATM    9  C14 UNK     1      29.280  -4.288  39.045  1.00  0.00     0.177 C 
HETATM   10  O2  UNK     1      29.582  -3.734  40.091  1.00  0.00    -0.646 OA
BRANCH   9  11
HETATM   11  O1  UNK     1      28.009  -4.386  38.588  1.00  0.00    -0.773 OA
HETATM   12  H12 UNK     1      27.961  -4.299  37.613  1.00  0.00     0.167 HD
ENDBRANCH   9  11
ENDBRANCH   1   9
BRANCH   2  13
HETATM   13  C3  UNK     1      31.795  -4.543  36.179  1.00  0.00    -0.035 A 
HETATM   14  C7  UNK     1      33.128  -4.141  36.282  1.00  0.00     0.011 A 
HETATM   15  C12 UNK     1      34.053  -4.538  35.315  1.00  0.00     0.001 A 
HETATM   16  C15 UNK     1      33.645  -5.337  34.247  1.00  0.00     0.000 A 
HETATM   17  C13 UNK     1      32.314  -5.739  34.145  1.00  0.00     0.001 A 
HETATM   18  C8  UNK     1      31.389  -5.342  35.110  1.00  0.00     0.011 A 
ENDBRANCH   2  13
TORSDOF 4
ENDMDL
