MODEL 1
REMARK VINA RESULT:      -9.4      0.000      0.000
REMARK  4 active torsions:
REMARK  status: ('A' for Active; 'I' for Inactive)
REMARK    1  A    between atoms: C11_18  and  N1_5 
REMARK    2  A    between atoms: C4_11  and  N1_5 
REMARK    3  A    between atoms: C11_18  and  N2_6 
REMARK    4  A    between atoms: C12_19  and  N2_6 
ROOT
HETATM    1  N1  UNK     1      19.163   3.786  30.201  1.00  0.00    -0.333 N 
HETATM    2  H8  UNK     1      19.638   4.045  29.338  1.00  0.00     0.168 HD
ENDROOT
BRANCH   1   3
HETATM    3  C11 UNK     1      18.564   2.520  30.143  1.00  0.00     0.177 C 
HETATM    4  S1  UNK     1      17.905   2.044  28.666  1.00  0.00    -0.040 SA
BRANCH   3   5
HETATM    5  N2  UNK     1      18.684   1.745  31.282  1.00  0.00    -0.318 N 
HETATM    6  H9  UNK     1      18.169   2.040  32.099  1.00  0.00     0.170 HD
BRANCH   5   7
HETATM    7  C12 UNK     1      19.267   0.469  31.483  1.00  0.00     0.129 A 
HETATM    8  N3  UNK     1      18.773  -0.297  32.471  1.00  0.00    -0.242 NA
HETATM    9  C16 UNK     1      19.360  -1.505  32.625  1.00  0.00     0.142 A 
HETATM   10  C15 UNK     1      20.404  -1.967  31.840  1.00  0.00     0.051 A 
HETATM   11  C14 UNK     1      20.876  -1.134  30.830  1.00  0.00     0.029 A 
HETATM   12 Cl1  UNK     1      21.091  -3.515  32.102  1.00  0.00    -0.083 Cl
HETATM   13  C13 UNK     1      20.299   0.116  30.641  1.00  0.00     0.052 A 
ENDBRANCH   5   7
ENDBRANCH   3   5
ENDBRANCH   1   3
BRANCH   1  14
HETATM   14  C4  UNK     1      19.068   4.820  31.132  1.00  0.00     0.036 A 
HETATM   15  C6  UNK     1      17.832   5.166  31.667  1.00  0.00     0.067 A 
HETATM   16  C2  UNK     1      17.759   6.205  32.598  1.00  0.00     0.092 A 
HETATM   17  C1  UNK     1      18.888   6.912  33.016  1.00  0.00     0.004 A 
HETATM   18  O1  UNK     1      16.480   6.509  33.104  1.00  0.00    -0.275 OA
HETATM   19  C3  UNK     1      18.719   7.990  34.000  1.00  0.00    -0.043 A 
HETATM   20  C5  UNK     1      20.123   6.547  32.465  1.00  0.00     0.017 A 
HETATM   21  C8  UNK     1      17.489   8.257  34.464  1.00  0.00     0.090 A 
HETATM   22  C9  UNK     1      19.912   8.769  34.469  1.00  0.00     0.049 C 
HETATM   23  C10 UNK     1      16.290   7.520  34.034  1.00  0.00     0.288 A 
HETATM   24  O2  UNK     1      15.182   7.793  34.481  1.00  0.00    -0.260 OA
HETATM   25  C7  UNK     1      20.212   5.509  31.530  1.00  0.00     0.030 A 
ENDBRANCH   1  14
TORSDOF 4
ENDMDL
MODEL 2
REMARK VINA RESULT:      -9.0      7.865     11.732
REMARK  4 active torsions:
REMARK  status: ('A' for Active; 'I' for Inactive)
REMARK    1  A    between atoms: C11_18  and  N1_5 
REMARK    2  A    between atoms: C4_11  and  N1_5 
REMARK    3  A    between atoms: C11_18  and  N2_6 
REMARK    4  A    between atoms: C12_19  and  N2_6 
ROOT
HETATM    1  N1  UNK     1      18.724  -3.782  36.506  1.00  0.00    -0.333 N 
HETATM    2  H8  UNK     1      17.821  -4.082  36.143  1.00  0.00     0.168 HD
ENDROOT
BRANCH   1   3
HETATM    3  C11 UNK     1      18.891  -2.390  36.485  1.00  0.00     0.177 C 
HETATM    4  S1  UNK     1      17.990  -1.487  37.586  1.00  0.00    -0.040 SA
BRANCH   3   5
HETATM    5  N2  UNK     1      19.873  -1.916  35.635  1.00  0.00    -0.318 N 
HETATM    6  H9  UNK     1      20.745  -1.623  36.052  1.00  0.00     0.170 HD
BRANCH   5   7
HETATM    7  C12 UNK     1      19.967  -1.929  34.221  1.00  0.00     0.129 A 
HETATM    8  N3  UNK     1      21.012  -2.569  33.668  1.00  0.00    -0.242 NA
HETATM    9  C16 UNK     1      21.059  -2.556  32.317  1.00  0.00     0.142 A 
HETATM   10  C15 UNK     1      20.116  -1.936  31.514  1.00  0.00     0.051 A 
HETATM   11  C14 UNK     1      19.054  -1.289  32.137  1.00  0.00     0.029 A 
HETATM   12 Cl1  UNK     1      20.251  -1.968  29.805  1.00  0.00    -0.083 Cl
HETATM   13  C13 UNK     1      18.971  -1.280  33.525  1.00  0.00     0.052 A 
ENDBRANCH   5   7
ENDBRANCH   3   5
ENDBRANCH   1   3
BRANCH   1  14
HETATM   14  C4  UNK     1      19.618  -4.825  36.742  1.00  0.00     0.036 A 
HETATM   15  C6  UNK     1      19.706  -5.887  35.849  1.00  0.00     0.067 A 
HETATM   16  C2  UNK     1      20.608  -6.920  36.104  1.00  0.00     0.092 A 
HETATM   17  C1  UNK     1      21.435  -6.927  37.229  1.00  0.00     0.004 A 
HETATM   18  O1  UNK     1      20.651  -7.969  35.163  1.00  0.00    -0.275 OA
HETATM   19  C3  UNK     1      22.356  -8.056  37.419  1.00  0.00    -0.043 A 
HETATM   20  C5  UNK     1      21.333  -5.848  38.117  1.00  0.00     0.017 A 
HETATM   21  C8  UNK     1      22.375  -9.039  36.508  1.00  0.00     0.090 A 
HETATM   22  C9  UNK     1      23.257  -8.093  38.619  1.00  0.00     0.049 C 
HETATM   23  C10 UNK     1      21.511  -9.046  35.316  1.00  0.00     0.288 A 
HETATM   24  O2  UNK     1      21.556  -9.962  34.503  1.00  0.00    -0.260 OA
HETATM   25  C7  UNK     1      20.431  -4.805  37.875  1.00  0.00     0.030 A 
ENDBRANCH   1  14
TORSDOF 4
ENDMDL
MODEL 3
REMARK VINA RESULT:      -9.0      8.249     12.855
REMARK  4 active torsions:
REMARK  status: ('A' for Active; 'I' for Inactive)
REMARK    1  A    between atoms: C11_18  and  N1_5 
REMARK    2  A    between atoms: C4_11  and  N1_5 
REMARK    3  A    between atoms: C11_18  and  N2_6 
REMARK    4  A    between atoms: C12_19  and  N2_6 
ROOT
HETATM    1  N1  UNK     1      19.407  -4.857  35.665  1.00  0.00    -0.333 N 
HETATM    2  H8  UNK     1      18.985  -4.765  34.742  1.00  0.00     0.168 HD
ENDROOT
BRANCH   1   3
HETATM    3  C11 UNK     1      19.877  -3.641  36.179  1.00  0.00     0.177 C 
HETATM    4  S1  UNK     1      20.849  -3.707  37.555  1.00  0.00    -0.040 SA
BRANCH   3   5
HETATM    5  N2  UNK     1      19.587  -2.518  35.427  1.00  0.00    -0.318 N 
HETATM    6  H9  UNK     1      19.295  -1.689  35.925  1.00  0.00     0.170 HD
BRANCH   5   7
HETATM    7  C12 UNK     1      19.801  -2.235  34.055  1.00  0.00     0.129 A 
HETATM    8  N3  UNK     1      20.815  -2.865  33.436  1.00  0.00    -0.242 NA
HETATM    9  C16 UNK     1      20.981  -2.564  32.128  1.00  0.00     0.142 A 
HETATM   10  C15 UNK     1      20.183  -1.672  31.430  1.00  0.00     0.051 A 
HETATM   11  C14 UNK     1      19.147  -1.048  32.118  1.00  0.00     0.029 A 
HETATM   12 Cl1  UNK     1      20.461  -1.348  29.770  1.00  0.00    -0.083 Cl
HETATM   13  C13 UNK     1      18.945  -1.331  33.465  1.00  0.00     0.052 A 
ENDBRANCH   5   7
ENDBRANCH   3   5
ENDBRANCH   1   3
BRANCH   1  14
HETATM   14  C4  UNK     1      19.579  -6.176  36.085  1.00  0.00     0.036 A 
HETATM   15  C6  UNK     1      20.486  -7.003  35.433  1.00  0.00     0.067 A 
HETATM   16  C2  UNK     1      20.644  -8.320  35.869  1.00  0.00     0.092 A 
HETATM   17  C1  UNK     1      19.922  -8.840  36.945  1.00  0.00     0.004 A 
HETATM   18  O1  UNK     1      21.577  -9.110  35.169  1.00  0.00    -0.275 OA
HETATM   19  C3  UNK     1      20.152 -10.237  37.338  1.00  0.00    -0.043 A 
HETATM   20  C5  UNK     1      19.014  -7.990  37.590  1.00  0.00     0.017 A 
HETATM   21  C8  UNK     1      21.046 -10.965  36.653  1.00  0.00     0.090 A 
HETATM   22  C9  UNK     1      19.391 -10.826  38.490  1.00  0.00     0.049 C 
HETATM   23  C10 UNK     1      21.815 -10.431  35.517  1.00  0.00     0.288 A 
HETATM   24  O2  UNK     1      22.625 -11.127  34.914  1.00  0.00    -0.260 OA
HETATM   25  C7  UNK     1      18.844  -6.667  37.163  1.00  0.00     0.030 A 
ENDBRANCH   1  14
TORSDOF 4
ENDMDL
MODEL 4
REMARK VINA RESULT:      -9.0      1.647      2.041
REMARK  4 active torsions:
REMARK  status: ('A' for Active; 'I' for Inactive)
REMARK    1  A    between atoms: C11_18  and  N1_5 
REMARK    2  A    between atoms: C4_11  and  N1_5 
REMARK    3  A    between atoms: C11_18  and  N2_6 
REMARK    4  A    between atoms: C12_19  and  N2_6 
ROOT
HETATM    1  N1  UNK     1      19.131   3.830  30.040  1.00  0.00    -0.333 N 
HETATM    2  H8  UNK     1      19.309   4.176  29.098  1.00  0.00     0.168 HD
ENDROOT
BRANCH   1   3
HETATM    3  C11 UNK     1      18.835   2.461  30.077  1.00  0.00     0.177 C 
HETATM    4  S1  UNK     1      17.919   1.833  28.810  1.00  0.00    -0.040 SA
BRANCH   3   5
HETATM    5  N2  UNK     1      19.431   1.745  31.099  1.00  0.00    -0.318 N 
HETATM    6  H9  UNK     1      20.437   1.797  31.176  1.00  0.00     0.170 HD
BRANCH   5   7
HETATM    7  C12 UNK     1      18.872   1.071  32.214  1.00  0.00     0.129 A 
HETATM    8  N3  UNK     1      18.960  -0.270  32.244  1.00  0.00    -0.242 NA
HETATM    9  C16 UNK     1      18.414  -0.869  33.326  1.00  0.00     0.142 A 
HETATM   10  C15 UNK     1      17.794  -0.186  34.360  1.00  0.00     0.051 A 
HETATM   11  C14 UNK     1      17.732   1.201  34.279  1.00  0.00     0.029 A 
HETATM   12 Cl1  UNK     1      17.127  -1.024  35.699  1.00  0.00    -0.083 Cl
HETATM   13  C13 UNK     1      18.282   1.853  33.181  1.00  0.00     0.052 A 
ENDBRANCH   5   7
ENDBRANCH   3   5
ENDBRANCH   1   3
BRANCH   1  14
HETATM   14  C4  UNK     1      19.037   4.831  31.006  1.00  0.00     0.036 A 
HETATM   15  C6  UNK     1      17.803   5.156  31.558  1.00  0.00     0.067 A 
HETATM   16  C2  UNK     1      17.731   6.161  32.524  1.00  0.00     0.092 A 
HETATM   17  C1  UNK     1      18.860   6.855  32.963  1.00  0.00     0.004 A 
HETATM   18  O1  UNK     1      16.453   6.445  33.046  1.00  0.00    -0.275 OA
HETATM   19  C3  UNK     1      18.692   7.897  33.985  1.00  0.00    -0.043 A 
HETATM   20  C5  UNK     1      20.094   6.513  32.396  1.00  0.00     0.017 A 
HETATM   21  C8  UNK     1      17.464   8.146  34.462  1.00  0.00     0.090 A 
HETATM   22  C9  UNK     1      19.886   8.663  34.477  1.00  0.00     0.049 C 
HETATM   23  C10 UNK     1      16.265   7.422  34.011  1.00  0.00     0.288 A 
HETATM   24  O2  UNK     1      15.157   7.677  34.471  1.00  0.00    -0.260 OA
HETATM   25  C7  UNK     1      20.182   5.508  31.425  1.00  0.00     0.030 A 
ENDBRANCH   1  14
TORSDOF 4
ENDMDL
MODEL 5
REMARK VINA RESULT:      -8.8      3.094      3.515
REMARK  4 active torsions:
REMARK  status: ('A' for Active; 'I' for Inactive)
REMARK    1  A    between atoms: C11_18  and  N1_5 
REMARK    2  A    between atoms: C4_11  and  N1_5 
REMARK    3  A    between atoms: C11_18  and  N2_6 
REMARK    4  A    between atoms: C12_19  and  N2_6 
ROOT
HETATM    1  N1  UNK     1      17.447   4.354  32.393  1.00  0.00    -0.333 N 
HETATM    2  H8  UNK     1      16.523   4.110  32.747  1.00  0.00     0.168 HD
ENDROOT
BRANCH   1   3
HETATM    3  C11 UNK     1      18.080   3.295  31.728  1.00  0.00     0.177 C 
HETATM    4  S1  UNK     1      18.850   3.647  30.270  1.00  0.00    -0.040 SA
BRANCH   3   5
HETATM    5  N2  UNK     1      18.104   2.089  32.404  1.00  0.00    -0.318 N 
HETATM    6  H9  UNK     1      18.425   1.279  31.895  1.00  0.00     0.170 HD
BRANCH   5   7
HETATM    7  C12 UNK     1      17.933   1.789  33.779  1.00  0.00     0.129 A 
HETATM    8  N3  UNK     1      16.946   0.942  34.117  1.00  0.00    -0.242 NA
HETATM    9  C16 UNK     1      16.820   0.685  35.439  1.00  0.00     0.142 A 
HETATM   10  C15 UNK     1      17.634   1.234  36.416  1.00  0.00     0.051 A 
HETATM   11  C14 UNK     1      18.641   2.104  36.012  1.00  0.00     0.029 A 
HETATM   12 Cl1  UNK     1      17.408   0.854  38.072  1.00  0.00    -0.083 Cl
HETATM   13  C13 UNK     1      18.801   2.394  34.661  1.00  0.00     0.052 A 
ENDBRANCH   5   7
ENDBRANCH   3   5
ENDBRANCH   1   3
BRANCH   1  14
HETATM   14  C4  UNK     1      17.913   5.595  32.825  1.00  0.00     0.036 A 
HETATM   15  C6  UNK     1      17.044   6.678  32.905  1.00  0.00     0.067 A 
HETATM   16  C2  UNK     1      17.531   7.912  33.341  1.00  0.00     0.092 A 
HETATM   17  C1  UNK     1      18.866   8.101  33.703  1.00  0.00     0.004 A 
HETATM   18  O1  UNK     1      16.604   8.971  33.401  1.00  0.00    -0.275 OA
HETATM   19  C3  UNK     1      19.292   9.433  34.151  1.00  0.00    -0.043 A 
HETATM   20  C5  UNK     1      19.725   6.997  33.616  1.00  0.00     0.017 A 
HETATM   21  C8  UNK     1      18.388  10.422  34.198  1.00  0.00     0.090 A 
HETATM   22  C9  UNK     1      20.721   9.669  34.547  1.00  0.00     0.049 C 
HETATM   23  C10 UNK     1      16.977  10.239  33.820  1.00  0.00     0.288 A 
HETATM   24  O2  UNK     1      16.178  11.167  33.876  1.00  0.00    -0.260 OA
HETATM   25  C7  UNK     1      19.251   5.754  33.180  1.00  0.00     0.030 A 
ENDBRANCH   1  14
TORSDOF 4
ENDMDL
MODEL 6
REMARK VINA RESULT:      -8.8      3.159      4.561
REMARK  4 active torsions:
REMARK  status: ('A' for Active; 'I' for Inactive)
REMARK    1  A    between atoms: C11_18  and  N1_5 
REMARK    2  A    between atoms: C4_11  and  N1_5 
REMARK    3  A    between atoms: C11_18  and  N2_6 
REMARK    4  A    between atoms: C12_19  and  N2_6 
ROOT
HETATM    1  N1  UNK     1      18.666  -0.284  31.084  1.00  0.00    -0.333 N 
HETATM    2  H8  UNK     1      18.198  -0.728  30.295  1.00  0.00     0.168 HD
ENDROOT
BRANCH   1   3
HETATM    3  C11 UNK     1      19.008  -1.185  32.101  1.00  0.00     0.177 C 
HETATM    4  S1  UNK     1      20.558  -1.847  32.058  1.00  0.00    -0.040 SA
BRANCH   3   5
HETATM    5  N2  UNK     1      18.069  -1.345  33.103  1.00  0.00    -0.318 N 
HETATM    6  H9  UNK     1      17.434  -2.127  33.023  1.00  0.00     0.170 HD
BRANCH   5   7
HETATM    7  C12 UNK     1      17.933  -0.709  34.363  1.00  0.00     0.129 A 
HETATM    8  N3  UNK     1      19.054  -0.299  34.981  1.00  0.00    -0.242 NA
HETATM    9  C16 UNK     1      18.875   0.303  36.179  1.00  0.00     0.142 A 
HETATM   10  C15 UNK     1      17.638   0.505  36.769  1.00  0.00     0.051 A 
HETATM   11  C14 UNK     1      16.511   0.061  36.085  1.00  0.00     0.029 A 
HETATM   12 Cl1  UNK     1      17.500   1.278  38.292  1.00  0.00    -0.083 Cl
HETATM   13  C13 UNK     1      16.654  -0.563  34.851  1.00  0.00     0.052 A 
ENDBRANCH   5   7
ENDBRANCH   3   5
ENDBRANCH   1   3
BRANCH   1  14
HETATM   14  C4  UNK     1      18.669   1.110  31.033  1.00  0.00     0.036 A 
HETATM   15  C6  UNK     1      18.324   1.850  32.158  1.00  0.00     0.067 A 
HETATM   16  C2  UNK     1      18.333   3.244  32.087  1.00  0.00     0.092 A 
HETATM   17  C1  UNK     1      18.682   3.928  30.921  1.00  0.00     0.004 A 
HETATM   18  O1  UNK     1      17.974   3.940  33.259  1.00  0.00    -0.275 OA
HETATM   19  C3  UNK     1      18.666   5.398  30.935  1.00  0.00    -0.043 A 
HETATM   20  C5  UNK     1      19.027   3.165  29.798  1.00  0.00     0.017 A 
HETATM   21  C8  UNK     1      18.320   6.032  32.064  1.00  0.00     0.090 A 
HETATM   22  C9  UNK     1      19.035   6.162  29.697  1.00  0.00     0.049 C 
HETATM   23  C10 UNK     1      17.951   5.325  33.302  1.00  0.00     0.288 A 
HETATM   24  O2  UNK     1      17.640   5.939  34.316  1.00  0.00    -0.260 OA
HETATM   25  C7  UNK     1      19.021   1.766  29.855  1.00  0.00     0.030 A 
ENDBRANCH   1  14
TORSDOF 4
ENDMDL
MODEL 7
REMARK VINA RESULT:      -8.7      8.635     13.132
REMARK  4 active torsions:
REMARK  status: ('A' for Active; 'I' for Inactive)
REMARK    1  A    between atoms: C11_18  and  N1_5 
REMARK    2  A    between atoms: C4_11  and  N1_5 
REMARK    3  A    between atoms: C11_18  and  N2_6 
REMARK    4  A    between atoms: C12_19  and  N2_6 
ROOT
HETATM    1  N1  UNK     1      18.359  -5.043  36.505  1.00  0.00    -0.333 N 
HETATM    2  H8  UNK     1      17.418  -5.018  36.116  1.00  0.00     0.168 HD
ENDROOT
BRANCH   1   3
HETATM    3  C11 UNK     1      18.843  -3.777  36.860  1.00  0.00     0.177 C 
HETATM    4  S1  UNK     1      20.494  -3.639  37.170  1.00  0.00    -0.040 SA
BRANCH   3   5
HETATM    5  N2  UNK     1      17.925  -2.745  36.802  1.00  0.00    -0.318 N 
HETATM    6  H9  UNK     1      17.039  -2.886  37.266  1.00  0.00     0.170 HD
BRANCH   5   7
HETATM    7  C12 UNK     1      18.056  -1.405  36.358  1.00  0.00     0.129 A 
HETATM    8  N3  UNK     1      18.384  -1.201  35.071  1.00  0.00    -0.242 NA
HETATM    9  C16 UNK     1      18.497   0.092  34.692  1.00  0.00     0.142 A 
HETATM   10  C15 UNK     1      18.296   1.169  35.541  1.00  0.00     0.051 A 
HETATM   11  C14 UNK     1      17.958   0.902  36.863  1.00  0.00     0.029 A 
HETATM   12 Cl1  UNK     1      18.459   2.780  34.979  1.00  0.00    -0.083 Cl
HETATM   13  C13 UNK     1      17.833  -0.416  37.290  1.00  0.00     0.052 A 
ENDBRANCH   5   7
ENDBRANCH   3   5
ENDBRANCH   1   3
BRANCH   1  14
HETATM   14  C4  UNK     1      18.985  -6.285  36.403  1.00  0.00     0.036 A 
HETATM   15  C6  UNK     1      18.684  -7.296  37.310  1.00  0.00     0.067 A 
HETATM   16  C2  UNK     1      19.321  -8.532  37.190  1.00  0.00     0.092 A 
HETATM   17  C1  UNK     1      20.255  -8.795  36.186  1.00  0.00     0.004 A 
HETATM   18  O1  UNK     1      18.974  -9.516  38.138  1.00  0.00    -0.275 OA
HETATM   19  C3  UNK     1      20.877 -10.125  36.134  1.00  0.00    -0.043 A 
HETATM   20  C5  UNK     1      20.544  -7.764  35.282  1.00  0.00     0.017 A 
HETATM   21  C8  UNK     1      20.528 -11.041  37.049  1.00  0.00     0.090 A 
HETATM   22  C9  UNK     1      21.885 -10.439  35.067  1.00  0.00     0.049 C 
HETATM   23  C10 UNK     1      19.545 -10.779  38.112  1.00  0.00     0.288 A 
HETATM   24  O2  UNK     1      19.250 -11.642  38.932  1.00  0.00    -0.260 OA
HETATM   25  C7  UNK     1      19.914  -6.519  35.390  1.00  0.00     0.030 A 
ENDBRANCH   1  14
TORSDOF 4
ENDMDL
MODEL 8
REMARK VINA RESULT:      -8.7      4.857      8.044
REMARK  4 active torsions:
REMARK  status: ('A' for Active; 'I' for Inactive)
REMARK    1  A    between atoms: C11_18  and  N1_5 
REMARK    2  A    between atoms: C4_11  and  N1_5 
REMARK    3  A    between atoms: C11_18  and  N2_6 
REMARK    4  A    between atoms: C12_19  and  N2_6 
ROOT
HETATM    1  N1  UNK     1      18.667  -0.723  31.555  1.00  0.00    -0.333 N 
HETATM    2  H8  UNK     1      18.368  -1.517  30.991  1.00  0.00     0.168 HD
ENDROOT
BRANCH   1   3
HETATM    3  C11 UNK     1      19.142   0.350  30.789  1.00  0.00     0.177 C 
HETATM    4  S1  UNK     1      20.611   0.140  29.990  1.00  0.00    -0.040 SA
BRANCH   3   5
HETATM    5  N2  UNK     1      18.288   1.432  30.677  1.00  0.00    -0.318 N 
HETATM    6  H9  UNK     1      17.350   1.250  30.352  1.00  0.00     0.170 HD
BRANCH   5   7
HETATM    7  C12 UNK     1      18.421   2.773  31.119  1.00  0.00     0.129 A 
HETATM    8  N3  UNK     1      18.024   3.063  32.370  1.00  0.00    -0.242 NA
HETATM    9  C16 UNK     1      18.170   4.353  32.747  1.00  0.00     0.142 A 
HETATM   10  C15 UNK     1      18.689   5.345  31.931  1.00  0.00     0.051 A 
HETATM   11  C14 UNK     1      19.085   4.991  30.646  1.00  0.00     0.029 A 
HETATM   12 Cl1  UNK     1      18.841   6.959  32.489  1.00  0.00    -0.083 Cl
HETATM   13  C13 UNK     1      18.951   3.674  30.221  1.00  0.00     0.052 A 
ENDBRANCH   5   7
ENDBRANCH   3   5
ENDBRANCH   1   3
BRANCH   1  14
HETATM   14  C4  UNK     1      18.709  -0.981  32.925  1.00  0.00     0.036 A 
HETATM   15  C6  UNK     1      19.558  -1.961  33.426  1.00  0.00     0.067 A 
HETATM   16  C2  UNK     1      19.585  -2.203  34.801  1.00  0.00     0.092 A 
HETATM   17  C1  UNK     1      18.787  -1.491  35.698  1.00  0.00     0.004 A 
HETATM   18  O1  UNK     1      20.466  -3.208  35.249  1.00  0.00    -0.275 OA
HETATM   19  C3  UNK     1      18.879  -1.811  37.130  1.00  0.00    -0.043 A 
HETATM   20  C5  UNK     1      17.938  -0.508  35.174  1.00  0.00     0.017 A 
HETATM   21  C8  UNK     1      19.726  -2.772  37.526  1.00  0.00     0.090 A 
HETATM   22  C9  UNK     1      18.033  -1.065  38.120  1.00  0.00     0.049 C 
HETATM   23  C10 UNK     1      20.574  -3.530  36.593  1.00  0.00     0.288 A 
HETATM   24  O2  UNK     1      21.338  -4.403  36.992  1.00  0.00    -0.260 OA
HETATM   25  C7  UNK     1      17.900  -0.254  33.798  1.00  0.00     0.030 A 
ENDBRANCH   1  14
TORSDOF 4
ENDMDL
MODEL 9
REMARK VINA RESULT:      -8.6      7.763     11.705
REMARK  4 active torsions:
REMARK  status: ('A' for Active; 'I' for Inactive)
REMARK    1  A    between atoms: C11_18  and  N1_5 
REMARK    2  A    between atoms: C4_11  and  N1_5 
REMARK    3  A    between atoms: C11_18  and  N2_6 
REMARK    4  A    between atoms: C12_19  and  N2_6 
ROOT
HETATM    1  N1  UNK     1      19.088  -3.611  36.098  1.00  0.00    -0.333 N 
HETATM    2  H8  UNK     1      18.842  -3.876  35.145  1.00  0.00     0.168 HD
ENDROOT
BRANCH   1   3
HETATM    3  C11 UNK     1      18.933  -2.240  36.345  1.00  0.00     0.177 C 
HETATM    4  S1  UNK     1      18.252  -1.792  37.820  1.00  0.00    -0.040 SA
BRANCH   3   5
HETATM    5  N2  UNK     1      19.469  -1.393  35.392  1.00  0.00    -0.318 N 
HETATM    6  H9  UNK     1      19.875  -0.528  35.717  1.00  0.00     0.170 HD
BRANCH   5   7
HETATM    7  C12 UNK     1      19.733  -1.590  34.013  1.00  0.00     0.129 A 
HETATM    8  N3  UNK     1      20.784  -2.359  33.680  1.00  0.00    -0.242 NA
HETATM    9  C16 UNK     1      20.996  -2.519  32.354  1.00  0.00     0.142 A 
HETATM   10  C15 UNK     1      20.208  -1.948  31.368  1.00  0.00     0.051 A 
HETATM   11  C14 UNK     1      19.132  -1.163  31.768  1.00  0.00     0.029 A 
HETATM   12 Cl1  UNK     1      20.546  -2.203  29.707  1.00  0.00    -0.083 Cl
HETATM   13  C13 UNK     1      18.882  -0.974  33.123  1.00  0.00     0.052 A 
ENDBRANCH   5   7
ENDBRANCH   3   5
ENDBRANCH   1   3
BRANCH   1  14
HETATM   14  C4  UNK     1      19.688  -4.629  36.837  1.00  0.00     0.036 A 
HETATM   15  C6  UNK     1      19.064  -5.866  36.958  1.00  0.00     0.067 A 
HETATM   16  C2  UNK     1      19.683  -6.872  37.702  1.00  0.00     0.092 A 
HETATM   17  C1  UNK     1      20.915  -6.683  38.331  1.00  0.00     0.004 A 
HETATM   18  O1  UNK     1      19.002  -8.103  37.788  1.00  0.00    -0.275 OA
HETATM   19  C3  UNK     1      21.494  -7.798  39.093  1.00  0.00    -0.043 A 
HETATM   20  C5  UNK     1      21.528  -5.431  38.196  1.00  0.00     0.017 A 
HETATM   21  C8  UNK     1      20.823  -8.957  39.159  1.00  0.00     0.090 A 
HETATM   22  C9  UNK     1      22.817  -7.627  39.782  1.00  0.00     0.049 C 
HETATM   23  C10 UNK     1      19.525  -9.172  38.500  1.00  0.00     0.288 A 
HETATM   24  O2  UNK     1      18.940 -10.247  38.582  1.00  0.00    -0.260 OA
HETATM   25  C7  UNK     1      20.919  -4.412  37.454  1.00  0.00     0.030 A 
ENDBRANCH   1  14
TORSDOF 4
ENDMDL
MODEL 10
REMARK VINA RESULT:      -8.6      7.928     11.937
REMARK  4 active torsions:
REMARK  status: ('A' for Active; 'I' for Inactive)
REMARK    1  A    between atoms: C11_18  and  N1_5 
REMARK    2  A    between atoms: C4_11  and  N1_5 
REMARK    3  A    between atoms: C11_18  and  N2_6 
REMARK    4  A    between atoms: C12_19  and  N2_6 
ROOT
HETATM    1  N1  UNK     1      18.752  -3.992  36.858  1.00  0.00    -0.333 N 
HETATM    2  H8  UNK     1      17.779  -4.173  37.099  1.00  0.00     0.168 HD
ENDROOT
BRANCH   1   3
HETATM    3  C11 UNK     1      19.005  -2.645  36.563  1.00  0.00     0.177 C 
HETATM    4  S1  UNK     1      18.104  -1.488  37.395  1.00  0.00    -0.040 SA
BRANCH   3   5
HETATM    5  N2  UNK     1      20.057  -2.407  35.699  1.00  0.00    -0.318 N 
HETATM    6  H9  UNK     1      20.992  -2.530  36.061  1.00  0.00     0.170 HD
BRANCH   5   7
HETATM    7  C12 UNK     1      20.082  -2.191  34.298  1.00  0.00     0.129 A 
HETATM    8  N3  UNK     1      21.130  -2.672  33.608  1.00  0.00    -0.242 NA
HETATM    9  C16 UNK     1      21.110  -2.443  32.275  1.00  0.00     0.142 A 
HETATM   10  C15 UNK     1      20.096  -1.762  31.621  1.00  0.00     0.051 A 
HETATM   11  C14 UNK     1      19.034  -1.285  32.382  1.00  0.00     0.029 A 
HETATM   12 Cl1  UNK     1      20.148  -1.515  29.925  1.00  0.00    -0.083 Cl
HETATM   13  C13 UNK     1      19.019  -1.501  33.756  1.00  0.00     0.052 A 
ENDBRANCH   5   7
ENDBRANCH   3   5
ENDBRANCH   1   3
BRANCH   1  14
HETATM   14  C4  UNK     1      19.523  -5.142  36.697  1.00  0.00     0.036 A 
HETATM   15  C6  UNK     1      20.573  -5.407  37.570  1.00  0.00     0.067 A 
HETATM   16  C2  UNK     1      21.333  -6.564  37.391  1.00  0.00     0.092 A 
HETATM   17  C1  UNK     1      21.075  -7.474  36.365  1.00  0.00     0.004 A 
HETATM   18  O1  UNK     1      22.383  -6.778  38.307  1.00  0.00    -0.275 OA
HETATM   19  C3  UNK     1      21.924  -8.668  36.252  1.00  0.00    -0.043 A 
HETATM   20  C5  UNK     1      20.012  -7.190  35.497  1.00  0.00     0.017 A 
HETATM   21  C8  UNK     1      22.916  -8.844  37.136  1.00  0.00     0.090 A 
HETATM   22  C9  UNK     1      21.673  -9.665  35.158  1.00  0.00     0.049 C 
HETATM   23  C10 UNK     1      23.200  -7.895  38.225  1.00  0.00     0.288 A 
HETATM   24  O2  UNK     1      24.116  -8.090  39.016  1.00  0.00    -0.260 OA
HETATM   25  C7  UNK     1      19.242  -6.033  35.662  1.00  0.00     0.030 A 
ENDBRANCH   1  14
TORSDOF 4
ENDMDL
