MODEL 1
REMARK VINA RESULT:     -10.7      0.000      0.000
REMARK  0 active torsions:
REMARK  status: ('A' for Active; 'I' for Inactive)
ROOT
HETATM    1  O1  UNK     1      31.853  -6.990  33.263  1.00  0.00    -0.338 OA
HETATM    2  O2  UNK     1      27.698  -6.827  33.442  1.00  0.00    -0.278 OA
HETATM    3  O3  UNK     1      34.469  -7.173  36.506  1.00  0.00    -0.274 OA
HETATM    4  O4  UNK     1      30.253  -9.342  36.124  1.00  0.00    -0.272 OA
HETATM    5  O5  UNK     1      27.708  -6.896  35.710  1.00  0.00    -0.264 OA
HETATM    6  O6  UNK     1      32.739  -7.232  37.966  1.00  0.00    -0.259 OA
HETATM    7  N1  UNK     1      29.657  -7.868  37.848  1.00  0.00    -0.325 N 
HETATM    8  C1  UNK     1      30.659  -6.898  35.912  1.00  0.00     0.121 A 
HETATM    9  C2  UNK     1      29.867  -6.601  34.596  1.00  0.00     0.147 C 
HETATM   10  C3  UNK     1      30.494  -7.399  33.447  1.00  0.00     0.180 C 
HETATM   11  C4  UNK     1      32.161  -7.032  35.649  1.00  0.00     0.075 A 
HETATM   12  C5  UNK     1      30.324  -5.866  36.975  1.00  0.00    -0.008 A 
HETATM   13  C6  UNK     1      30.179  -8.216  36.595  1.00  0.00     0.241 A 
HETATM   14  C7  UNK     1      32.641  -7.038  34.391  1.00  0.00     0.096 A 
HETATM   15  C8  UNK     1      28.354  -6.825  34.671  1.00  0.00     0.273 C 
HETATM   16  C9  UNK     1      29.746  -7.162  32.163  1.00  0.00     0.006 A 
HETATM   17  C10 UNK     1      29.739  -6.498  38.073  1.00  0.00     0.042 A 
HETATM   18  C11 UNK     1      30.521  -4.496  36.982  1.00  0.00     0.011 A 
HETATM   19  C12 UNK     1      33.111  -7.152  36.800  1.00  0.00     0.299 A 
HETATM   20  C13 UNK     1      28.384  -6.875  32.216  1.00  0.00     0.088 A 
HETATM   21  C14 UNK     1      34.078  -7.081  34.117  1.00  0.00     0.032 A 
HETATM   22  C15 UNK     1      29.328  -5.809  39.197  1.00  0.00     0.030 A 
HETATM   23  C16 UNK     1      30.348  -7.276  30.903  1.00  0.00     0.012 A 
HETATM   24  C17 UNK     1      34.955  -7.141  35.190  1.00  0.00     0.092 A 
HETATM   25  C18 UNK     1      30.112  -3.776  38.109  1.00  0.00     0.001 A 
HETATM   26  C19 UNK     1      29.521  -4.427  39.207  1.00  0.00     0.002 A 
HETATM   27  C20 UNK     1      27.627  -6.673  31.061  1.00  0.00     0.038 A 
HETATM   28  C21 UNK     1      34.622  -7.059  32.825  1.00  0.00     0.017 A 
HETATM   29  C22 UNK     1      29.603  -7.071  29.738  1.00  0.00     0.001 A 
HETATM   30  C23 UNK     1      28.245  -6.765  29.818  1.00  0.00     0.003 A 
HETATM   31  C24 UNK     1      36.340  -7.179  35.020  1.00  0.00     0.038 A 
HETATM   32  C25 UNK     1      36.007  -7.097  32.635  1.00  0.00     0.001 A 
HETATM   33  C26 UNK     1      36.865  -7.156  33.733  1.00  0.00     0.003 A 
HETATM   34  H3  UNK     1      29.270  -8.523  38.516  1.00  0.00     0.169 HD
ENDROOT
TORSDOF 0
ENDMDL
MODEL 2
REMARK VINA RESULT:     -10.6      2.373      5.799
REMARK  0 active torsions:
REMARK  status: ('A' for Active; 'I' for Inactive)
ROOT
HETATM    1  O1  UNK     1      29.209  -8.514  34.263  1.00  0.00    -0.338 OA
HETATM    2  O2  UNK     1      30.471  -8.666  38.226  1.00  0.00    -0.278 OA
HETATM    3  O3  UNK     1      31.529  -7.460  30.961  1.00  0.00    -0.274 OA
HETATM    4  O4  UNK     1      32.932  -9.998  34.731  1.00  0.00    -0.272 OA
HETATM    5  O5  UNK     1      32.576  -8.030  37.670  1.00  0.00    -0.264 OA
HETATM    6  O6  UNK     1      33.365  -7.216  32.264  1.00  0.00    -0.259 OA
HETATM    7  N1  UNK     1      34.278  -8.121  35.137  1.00  0.00    -0.325 N 
HETATM    8  C1  UNK     1      31.952  -7.714  34.796  1.00  0.00     0.121 A 
HETATM    9  C2  UNK     1      30.876  -7.907  35.914  1.00  0.00     0.147 C 
HETATM   10  C3  UNK     1      29.864  -8.963  35.453  1.00  0.00     0.180 C 
HETATM   11  C4  UNK     1      31.335  -7.791  33.398  1.00  0.00     0.075 A 
HETATM   12  C5  UNK     1      32.740  -6.437  35.035  1.00  0.00    -0.008 A 
HETATM   13  C6  UNK     1      33.076  -8.793  34.877  1.00  0.00     0.241 A 
HETATM   14  C7  UNK     1      30.045  -8.144  33.234  1.00  0.00     0.096 A 
HETATM   15  C8  UNK     1      31.422  -8.227  37.308  1.00  0.00     0.273 C 
HETATM   16  C9  UNK     1      28.822  -9.200  36.512  1.00  0.00     0.006 A 
HETATM   17  C10 UNK     1      34.086  -6.747  35.231  1.00  0.00     0.042 A 
HETATM   18  C11 UNK     1      32.315  -5.120  35.071  1.00  0.00     0.011 A 
HETATM   19  C12 UNK     1      32.167  -7.467  32.196  1.00  0.00     0.299 A 
HETATM   20  C13 UNK     1      29.166  -9.030  37.851  1.00  0.00     0.088 A 
HETATM   21  C14 UNK     1      29.409  -8.144  31.916  1.00  0.00     0.032 A 
HETATM   22  C15 UNK     1      35.045  -5.784  35.473  1.00  0.00     0.030 A 
HETATM   23  C16 UNK     1      27.527  -9.644  36.215  1.00  0.00     0.012 A 
HETATM   24  C17 UNK     1      30.174  -7.794  30.812  1.00  0.00     0.092 A 
HETATM   25  C18 UNK     1      33.268  -4.125  35.314  1.00  0.00     0.001 A 
HETATM   26  C19 UNK     1      34.621  -4.455  35.514  1.00  0.00     0.002 A 
HETATM   27  C20 UNK     1      28.254  -9.260  38.883  1.00  0.00     0.038 A 
HETATM   28  C21 UNK     1      28.064  -8.475  31.704  1.00  0.00     0.017 A 
HETATM   29  C22 UNK     1      26.602  -9.874  37.237  1.00  0.00     0.001 A 
HETATM   30  C23 UNK     1      26.964  -9.678  38.569  1.00  0.00     0.003 A 
HETATM   31  C24 UNK     1      29.647  -7.762  29.520  1.00  0.00     0.038 A 
HETATM   32  C25 UNK     1      27.519  -8.450  30.416  1.00  0.00     0.001 A 
HETATM   33  C26 UNK     1      28.311  -8.093  29.325  1.00  0.00     0.003 A 
HETATM   34  H3  UNK     1      35.181  -8.570  35.243  1.00  0.00     0.169 HD
ENDROOT
TORSDOF 0
ENDMDL
MODEL 3
REMARK VINA RESULT:     -10.2      3.318      6.378
REMARK  0 active torsions:
REMARK  status: ('A' for Active; 'I' for Inactive)
ROOT
HETATM    1  O1  UNK     1      31.726  -6.949  32.577  1.00  0.00    -0.338 OA
HETATM    2  O2  UNK     1      31.035  -9.649  29.486  1.00  0.00    -0.278 OA
HETATM    3  O3  UNK     1      35.440  -5.846  34.121  1.00  0.00    -0.274 OA
HETATM    4  O4  UNK     1      34.391  -6.686  29.559  1.00  0.00    -0.272 OA
HETATM    5  O5  UNK     1      33.253 -10.036  29.214  1.00  0.00    -0.264 OA
HETATM    6  O6  UNK     1      36.514  -7.146  32.609  1.00  0.00    -0.259 OA
HETATM    7  N1  UNK     1      35.822  -8.520  29.862  1.00  0.00    -0.325 N 
HETATM    8  C1  UNK     1      34.055  -8.270  31.446  1.00  0.00     0.121 A 
HETATM    9  C2  UNK     1      32.585  -8.723  31.167  1.00  0.00     0.147 C 
HETATM   10  C3  UNK     1      31.662  -7.502  31.259  1.00  0.00     0.180 C 
HETATM   11  C4  UNK     1      34.119  -7.197  32.536  1.00  0.00     0.075 A 
HETATM   12  C5  UNK     1      34.935  -9.475  31.737  1.00  0.00    -0.008 A 
HETATM   13  C6  UNK     1      34.737  -7.687  30.170  1.00  0.00     0.241 A 
HETATM   14  C7  UNK     1      32.992  -6.652  33.031  1.00  0.00     0.096 A 
HETATM   15  C8  UNK     1      32.367  -9.491  29.861  1.00  0.00     0.273 C 
HETATM   16  C9  UNK     1      30.237  -7.888  30.972  1.00  0.00     0.006 A 
HETATM   17  C10 UNK     1      35.940  -9.564  30.773  1.00  0.00     0.042 A 
HETATM   18  C11 UNK     1      34.862 -10.406  32.758  1.00  0.00     0.011 A 
HETATM   19  C12 UNK     1      35.446  -6.751  33.066  1.00  0.00     0.299 A 
HETATM   20  C13 UNK     1      29.984  -8.951  30.108  1.00  0.00     0.088 A 
HETATM   21  C14 UNK     1      33.022  -5.687  34.130  1.00  0.00     0.032 A 
HETATM   22  C15 UNK     1      36.891 -10.564  30.780  1.00  0.00     0.030 A 
HETATM   23  C16 UNK     1      29.142  -7.186  31.491  1.00  0.00     0.012 A 
HETATM   24  C17 UNK     1      34.254  -5.315  34.651  1.00  0.00     0.092 A 
HETATM   25  C18 UNK     1      35.816 -11.429  32.787  1.00  0.00     0.001 A 
HETATM   26  C19 UNK     1      36.821 -11.508  31.806  1.00  0.00     0.002 A 
HETATM   27  C20 UNK     1      28.686  -9.343  29.779  1.00  0.00     0.038 A 
HETATM   28  C21 UNK     1      31.873  -5.116  34.694  1.00  0.00     0.017 A 
HETATM   29  C22 UNK     1      27.835  -7.569  31.174  1.00  0.00     0.001 A 
HETATM   30  C23 UNK     1      27.608  -8.650  30.322  1.00  0.00     0.003 A 
HETATM   31  C24 UNK     1      34.375  -4.406  35.702  1.00  0.00     0.038 A 
HETATM   32  C25 UNK     1      31.975  -4.202  35.749  1.00  0.00     0.001 A 
HETATM   33  C26 UNK     1      33.226  -3.849  36.252  1.00  0.00     0.003 A 
HETATM   34  H3  UNK     1      36.450  -8.386  29.079  1.00  0.00     0.169 HD
ENDROOT
TORSDOF 0
ENDMDL
MODEL 4
REMARK VINA RESULT:      -9.9      1.797      5.829
REMARK  0 active torsions:
REMARK  status: ('A' for Active; 'I' for Inactive)
ROOT
HETATM    1  O1  UNK     1      31.992  -8.541  31.989  1.00  0.00    -0.338 OA
HETATM    2  O2  UNK     1      34.828  -7.595  34.885  1.00  0.00    -0.278 OA
HETATM    3  O3  UNK     1      27.899  -7.764  32.181  1.00  0.00    -0.274 OA
HETATM    4  O4  UNK     1      31.406  -4.949  33.730  1.00  0.00    -0.272 OA
HETATM    5  O5  UNK     1      33.263  -6.657  36.234  1.00  0.00    -0.264 OA
HETATM    6  O6  UNK     1      28.137  -6.720  34.176  1.00  0.00    -0.259 OA
HETATM    7  N1  UNK     1      30.491  -5.444  35.832  1.00  0.00    -0.325 N 
HETATM    8  C1  UNK     1      31.011  -7.302  34.429  1.00  0.00     0.121 A 
HETATM    9  C2  UNK     1      32.455  -7.881  34.275  1.00  0.00     0.147 C 
HETATM   10  C3  UNK     1      32.881  -7.772  32.806  1.00  0.00     0.180 C 
HETATM   11  C4  UNK     1      30.129  -7.654  33.228  1.00  0.00     0.075 A 
HETATM   12  C5  UNK     1      30.410  -7.725  35.759  1.00  0.00    -0.008 A 
HETATM   13  C6  UNK     1      31.018  -5.749  34.570  1.00  0.00     0.241 A 
HETATM   14  C7  UNK     1      30.655  -8.255  32.143  1.00  0.00     0.096 A 
HETATM   15  C8  UNK     1      33.510  -7.282  35.208  1.00  0.00     0.273 C 
HETATM   16  C9  UNK     1      34.278  -8.296  32.616  1.00  0.00     0.006 A 
HETATM   17  C10 UNK     1      30.136  -6.594  36.529  1.00  0.00     0.042 A 
HETATM   18  C11 UNK     1      30.124  -8.988  36.247  1.00  0.00     0.011 A 
HETATM   19  C12 UNK     1      28.667  -7.335  33.257  1.00  0.00     0.299 A 
HETATM   20  C13 UNK     1      35.188  -8.196  33.666  1.00  0.00     0.088 A 
HETATM   21  C14 UNK     1      29.819  -8.676  31.018  1.00  0.00     0.032 A 
HETATM   22  C15 UNK     1      29.585  -6.669  37.793  1.00  0.00     0.030 A 
HETATM   23  C16 UNK     1      34.728  -8.832  31.402  1.00  0.00     0.012 A 
HETATM   24  C17 UNK     1      28.456  -8.422  31.073  1.00  0.00     0.092 A 
HETATM   25  C18 UNK     1      29.564  -9.090  37.525  1.00  0.00     0.001 A 
HETATM   26  C19 UNK     1      29.297  -7.941  38.291  1.00  0.00     0.002 A 
HETATM   27  C20 UNK     1      36.506  -8.638  33.545  1.00  0.00     0.038 A 
HETATM   28  C21 UNK     1      30.318  -9.329  29.882  1.00  0.00     0.017 A 
HETATM   29  C22 UNK     1      36.045  -9.283  31.268  1.00  0.00     0.001 A 
HETATM   30  C23 UNK     1      36.931  -9.190  32.341  1.00  0.00     0.003 A 
HETATM   31  C24 UNK     1      27.585  -8.795  30.048  1.00  0.00     0.038 A 
HETATM   32  C25 UNK     1      29.461  -9.710  28.844  1.00  0.00     0.001 A 
HETATM   33  C26 UNK     1      28.095  -9.443  28.929  1.00  0.00     0.003 A 
HETATM   34  H3  UNK     1      30.376  -4.507  36.201  1.00  0.00     0.169 HD
ENDROOT
TORSDOF 0
ENDMDL
MODEL 5
REMARK VINA RESULT:      -9.8      1.860      6.697
REMARK  0 active torsions:
REMARK  status: ('A' for Active; 'I' for Inactive)
ROOT
HETATM    1  O1  UNK     1      30.034  -6.782  34.431  1.00  0.00    -0.338 OA
HETATM    2  O2  UNK     1      32.807  -6.655  37.532  1.00  0.00    -0.278 OA
HETATM    3  O3  UNK     1      30.412  -8.890  30.852  1.00  0.00    -0.274 OA
HETATM    4  O4  UNK     1      31.823 -10.324  35.162  1.00  0.00    -0.272 OA
HETATM    5  O5  UNK     1      34.230  -8.037  36.430  1.00  0.00    -0.264 OA
HETATM    6  O6  UNK     1      32.402  -9.750  31.508  1.00  0.00    -0.259 OA
HETATM    7  N1  UNK     1      33.960 -10.122  34.218  1.00  0.00    -0.325 N 
HETATM    8  C1  UNK     1      32.523  -8.228  34.023  1.00  0.00     0.121 A 
HETATM    9  C2  UNK     1      32.302  -7.198  35.179  1.00  0.00     0.147 C 
HETATM   10  C3  UNK     1      30.816  -7.188  35.558  1.00  0.00     0.180 C 
HETATM   11  C4  UNK     1      31.360  -8.219  33.028  1.00  0.00     0.075 A 
HETATM   12  C5  UNK     1      33.876  -8.005  33.368  1.00  0.00    -0.008 A 
HETATM   13  C6  UNK     1      32.674  -9.684  34.561  1.00  0.00     0.241 A 
HETATM   14  C7  UNK     1      30.249  -7.500  33.276  1.00  0.00     0.096 A 
HETATM   15  C8  UNK     1      33.191  -7.387  36.411  1.00  0.00     0.273 C 
HETATM   16  C9  UNK     1      30.560  -6.228  36.688  1.00  0.00     0.006 A 
HETATM   17  C10 UNK     1      34.664  -9.145  33.523  1.00  0.00     0.042 A 
HETATM   18  C11 UNK     1      34.368  -6.902  32.691  1.00  0.00     0.011 A 
HETATM   19  C12 UNK     1      31.456  -9.012  31.762  1.00  0.00     0.299 A 
HETATM   20  C13 UNK     1      31.570  -5.993  37.619  1.00  0.00     0.088 A 
HETATM   21  C14 UNK     1      29.159  -7.408  32.303  1.00  0.00     0.032 A 
HETATM   22  C15 UNK     1      35.951  -9.234  33.029  1.00  0.00     0.030 A 
HETATM   23  C16 UNK     1      29.324  -5.598  36.882  1.00  0.00     0.012 A 
HETATM   24  C17 UNK     1      29.277  -8.106  31.109  1.00  0.00     0.092 A 
HETATM   25  C18 UNK     1      35.669  -6.968  32.181  1.00  0.00     0.001 A 
HETATM   26  C19 UNK     1      36.453  -8.124  32.348  1.00  0.00     0.002 A 
HETATM   27  C20 UNK     1      31.388  -5.136  38.704  1.00  0.00     0.038 A 
HETATM   28  C21 UNK     1      27.999  -6.649  32.507  1.00  0.00     0.017 A 
HETATM   29  C22 UNK     1      29.130  -4.732  37.963  1.00  0.00     0.001 A 
HETATM   30  C23 UNK     1      30.162  -4.498  38.870  1.00  0.00     0.003 A 
HETATM   31  C24 UNK     1      28.289  -8.071  30.124  1.00  0.00     0.038 A 
HETATM   32  C25 UNK     1      26.997  -6.602  31.531  1.00  0.00     0.001 A 
HETATM   33  C26 UNK     1      27.143  -7.312  30.341  1.00  0.00     0.003 A 
HETATM   34  H3  UNK     1      34.339 -11.035  34.440  1.00  0.00     0.169 HD
ENDROOT
TORSDOF 0
ENDMDL
MODEL 6
REMARK VINA RESULT:      -9.8      3.230      4.466
REMARK  0 active torsions:
REMARK  status: ('A' for Active; 'I' for Inactive)
ROOT
HETATM    1  O1  UNK     1      29.693 -10.077  32.643  1.00  0.00    -0.338 OA
HETATM    2  O2  UNK     1      28.478  -6.219  33.624  1.00  0.00    -0.278 OA
HETATM    3  O3  UNK     1      31.776 -12.721  35.105  1.00  0.00    -0.274 OA
HETATM    4  O4  UNK     1      28.342  -9.707  36.427  1.00  0.00    -0.272 OA
HETATM    5  O5  UNK     1      29.361  -6.379  35.707  1.00  0.00    -0.264 OA
HETATM    6  O6  UNK     1      31.736 -11.240  36.818  1.00  0.00    -0.259 OA
HETATM    7  N1  UNK     1      30.094  -8.667  37.589  1.00  0.00    -0.325 N 
HETATM    8  C1  UNK     1      30.455  -9.091  35.269  1.00  0.00     0.121 A 
HETATM    9  C2  UNK     1      29.890  -8.176  34.134  1.00  0.00     0.147 C 
HETATM   10  C3  UNK     1      28.957  -9.007  33.244  1.00  0.00     0.180 C 
HETATM   11  C4  UNK     1      30.749 -10.505  34.762  1.00  0.00     0.075 A 
HETATM   12  C5  UNK     1      31.650  -8.431  35.935  1.00  0.00    -0.008 A 
HETATM   13  C6  UNK     1      29.461  -9.215  36.466  1.00  0.00     0.241 A 
HETATM   14  C7  UNK     1      30.389 -10.878  33.520  1.00  0.00     0.096 A 
HETATM   15  C8  UNK     1      29.213  -6.885  34.601  1.00  0.00     0.273 C 
HETATM   16  C9  UNK     1      28.369  -8.157  32.150  1.00  0.00     0.006 A 
HETATM   17  C10 UNK     1      31.370  -8.208  37.284  1.00  0.00     0.042 A 
HETATM   18  C11 UNK     1      32.876  -8.065  35.407  1.00  0.00     0.011 A 
HETATM   19  C12 UNK     1      31.450 -11.485  35.651  1.00  0.00     0.299 A 
HETATM   20  C13 UNK     1      28.166  -6.799  32.382  1.00  0.00     0.088 A 
HETATM   21  C14 UNK     1      30.732 -12.196  32.982  1.00  0.00     0.032 A 
HETATM   22  C15 UNK     1      32.275  -7.617  38.144  1.00  0.00     0.030 A 
HETATM   23  C16 UNK     1      27.959  -8.685  30.918  1.00  0.00     0.012 A 
HETATM   24  C17 UNK     1      31.426 -13.082  33.795  1.00  0.00     0.092 A 
HETATM   25  C18 UNK     1      33.809  -7.465  36.259  1.00  0.00     0.001 A 
HETATM   26  C19 UNK     1      33.511  -7.243  37.616  1.00  0.00     0.002 A 
HETATM   27  C20 UNK     1      27.600  -5.963  31.419  1.00  0.00     0.038 A 
HETATM   28  C21 UNK     1      30.403 -12.615  31.686  1.00  0.00     0.017 A 
HETATM   29  C22 UNK     1      27.395  -7.858  29.943  1.00  0.00     0.001 A 
HETATM   30  C23 UNK     1      27.220  -6.497  30.192  1.00  0.00     0.003 A 
HETATM   31  C24 UNK     1      31.799 -14.355  33.362  1.00  0.00     0.038 A 
HETATM   32  C25 UNK     1      30.768 -13.888  31.235  1.00  0.00     0.001 A 
HETATM   33  C26 UNK     1      31.466 -14.757  32.073  1.00  0.00     0.003 A 
HETATM   34  H3  UNK     1      29.684  -8.610  38.514  1.00  0.00     0.169 HD
ENDROOT
TORSDOF 0
ENDMDL
MODEL 7
REMARK VINA RESULT:      -9.7      2.071      5.679
REMARK  0 active torsions:
REMARK  status: ('A' for Active; 'I' for Inactive)
ROOT
HETATM    1  O1  UNK     1      31.984  -6.876  34.906  1.00  0.00    -0.338 OA
HETATM    2  O2  UNK     1      27.826  -6.744  35.040  1.00  0.00    -0.278 OA
HETATM    3  O3  UNK     1      34.347  -7.155  31.481  1.00  0.00    -0.274 OA
HETATM    4  O4  UNK     1      30.330  -4.654  31.972  1.00  0.00    -0.272 OA
HETATM    5  O5  UNK     1      27.664  -6.863  32.780  1.00  0.00    -0.264 OA
HETATM    6  O6  UNK     1      32.516  -7.087  30.149  1.00  0.00    -0.259 OA
HETATM    7  N1  UNK     1      29.504  -6.217  30.431  1.00  0.00    -0.325 N 
HETATM    8  C1  UNK     1      30.584  -7.096  32.368  1.00  0.00     0.121 A 
HETATM    9  C2  UNK     1      29.878  -7.225  33.758  1.00  0.00     0.147 C 
HETATM   10  C3  UNK     1      30.646  -6.384  34.785  1.00  0.00     0.180 C 
HETATM   11  C4  UNK     1      32.108  -7.053  32.510  1.00  0.00     0.075 A 
HETATM   12  C5  UNK     1      30.099  -8.184  31.425  1.00  0.00    -0.008 A 
HETATM   13  C6  UNK     1      30.143  -5.807  31.609  1.00  0.00     0.241 A 
HETATM   14  C7  UNK     1      32.683  -6.980  33.725  1.00  0.00     0.096 A 
HETATM   15  C8  UNK     1      28.383  -6.896  33.772  1.00  0.00     0.273 C 
HETATM   16  C9  UNK     1      29.985  -6.458  36.135  1.00  0.00     0.006 A 
HETATM   17  C10 UNK     1      29.475  -7.603  30.321  1.00  0.00     0.042 A 
HETATM   18  C11 UNK     1      30.200  -9.561  31.525  1.00  0.00     0.011 A 
HETATM   19  C12 UNK     1      32.971  -7.099  31.288  1.00  0.00     0.299 A 
HETATM   20  C13 UNK     1      28.607  -6.646  36.205  1.00  0.00     0.088 A 
HETATM   21  C14 UNK     1      34.136  -7.021  33.891  1.00  0.00     0.032 A 
HETATM   22  C15 UNK     1      28.931  -8.349  29.294  1.00  0.00     0.030 A 
HETATM   23  C16 UNK     1      30.689  -6.286  37.334  1.00  0.00     0.012 A 
HETATM   24  C17 UNK     1      34.930  -7.115  32.757  1.00  0.00     0.092 A 
HETATM   25  C18 UNK     1      29.658 -10.339  30.497  1.00  0.00     0.001 A 
HETATM   26  C19 UNK     1      29.029  -9.738  29.391  1.00  0.00     0.002 A 
HETATM   27  C20 UNK     1      27.930  -6.697  37.424  1.00  0.00     0.038 A 
HETATM   28  C21 UNK     1      34.776  -6.977  35.137  1.00  0.00     0.017 A 
HETATM   29  C22 UNK     1      30.025  -6.339  38.563  1.00  0.00     0.001 A 
HETATM   30  C23 UNK     1      28.647  -6.549  38.607  1.00  0.00     0.003 A 
HETATM   31  C24 UNK     1      36.323  -7.166  32.823  1.00  0.00     0.038 A 
HETATM   32  C25 UNK     1      36.172  -7.026  35.224  1.00  0.00     0.001 A 
HETATM   33  C26 UNK     1      36.944  -7.122  34.067  1.00  0.00     0.003 A 
HETATM   34  H3  UNK     1      29.111  -5.591  29.738  1.00  0.00     0.169 HD
ENDROOT
TORSDOF 0
ENDMDL
MODEL 8
REMARK VINA RESULT:      -9.7      2.002      6.123
REMARK  0 active torsions:
REMARK  status: ('A' for Active; 'I' for Inactive)
ROOT
HETATM    1  O1  UNK     1      32.575  -7.284  34.728  1.00  0.00    -0.338 OA
HETATM    2  O2  UNK     1      33.541  -9.435  31.298  1.00  0.00    -0.278 OA
HETATM    3  O3  UNK     1      28.737  -6.442  36.126  1.00  0.00    -0.274 OA
HETATM    4  O4  UNK     1      30.200 -10.483  34.087  1.00  0.00    -0.272 OA
HETATM    5  O5  UNK     1      31.356  -9.787  30.799  1.00  0.00    -0.264 OA
HETATM    6  O6  UNK     1      27.804  -7.626  34.435  1.00  0.00    -0.259 OA
HETATM    7  N1  UNK     1      28.743  -9.814  32.375  1.00  0.00    -0.325 N 
HETATM    8  C1  UNK     1      30.356  -8.209  33.092  1.00  0.00     0.121 A 
HETATM    9  C2  UNK     1      31.845  -8.220  32.614  1.00  0.00     0.147 C 
HETATM   10  C3  UNK     1      32.758  -8.387  33.835  1.00  0.00     0.180 C 
HETATM   11  C4  UNK     1      30.195  -7.468  34.422  1.00  0.00     0.075 A 
HETATM   12  C5  UNK     1      29.452  -7.677  31.994  1.00  0.00    -0.008 A 
HETATM   13  C6  UNK     1      29.796  -9.652  33.285  1.00  0.00     0.241 A 
HETATM   14  C7  UNK     1      31.274  -7.045  35.108  1.00  0.00     0.096 A 
HETATM   15  C8  UNK     1      32.181  -9.239  31.522  1.00  0.00     0.273 C 
HETATM   16  C9  UNK     1      34.204  -8.429  33.417  1.00  0.00     0.006 A 
HETATM   17  C10 UNK     1      28.539  -8.664  31.620  1.00  0.00     0.042 A 
HETATM   18  C11 UNK     1      29.427  -6.436  31.382  1.00  0.00     0.011 A 
HETATM   19  C12 UNK     1      28.826  -7.202  34.966  1.00  0.00     0.299 A 
HETATM   20  C13 UNK     1      34.532  -8.939  32.164  1.00  0.00     0.088 A 
HETATM   21  C14 UNK     1      31.144  -6.262  36.338  1.00  0.00     0.032 A 
HETATM   22  C15 UNK     1      27.589  -8.466  30.638  1.00  0.00     0.030 A 
HETATM   23  C16 UNK     1      35.248  -8.028  34.261  1.00  0.00     0.012 A 
HETATM   24  C17 UNK     1      29.870  -5.976  36.810  1.00  0.00     0.092 A 
HETATM   25  C18 UNK     1      28.473  -6.211  30.384  1.00  0.00     0.001 A 
HETATM   26  C19 UNK     1      27.562  -7.218  30.015  1.00  0.00     0.002 A 
HETATM   27  C20 UNK     1      35.854  -9.031  31.727  1.00  0.00     0.038 A 
HETATM   28  C21 UNK     1      32.238  -5.777  37.068  1.00  0.00     0.017 A 
HETATM   29  C22 UNK     1      36.577  -8.110  33.836  1.00  0.00     0.001 A 
HETATM   30  C23 UNK     1      36.879  -8.606  32.568  1.00  0.00     0.003 A 
HETATM   31  C24 UNK     1      29.655  -5.232  37.970  1.00  0.00     0.038 A 
HETATM   32  C25 UNK     1      32.041  -5.029  38.234  1.00  0.00     0.001 A 
HETATM   33  C26 UNK     1      30.750  -4.757  38.683  1.00  0.00     0.003 A 
HETATM   34  H3  UNK     1      28.189 -10.656  32.274  1.00  0.00     0.169 HD
ENDROOT
TORSDOF 0
ENDMDL
MODEL 9
REMARK VINA RESULT:      -9.5      3.390      6.718
REMARK  0 active torsions:
REMARK  status: ('A' for Active; 'I' for Inactive)
ROOT
HETATM    1  O1  UNK     1      31.325  -9.606  34.350  1.00  0.00    -0.338 OA
HETATM    2  O2  UNK     1      31.176  -5.514  35.094  1.00  0.00    -0.278 OA
HETATM    3  O3  UNK     1      30.531 -11.496  30.718  1.00  0.00    -0.274 OA
HETATM    4  O4  UNK     1      32.777  -7.350  31.337  1.00  0.00    -0.272 OA
HETATM    5  O5  UNK     1      30.589  -5.059  32.950  1.00  0.00    -0.264 OA
HETATM    6  O6  UNK     1      30.192  -9.505  29.696  1.00  0.00    -0.259 OA
HETATM    7  N1  UNK     1      30.877  -6.485  30.267  1.00  0.00    -0.325 N 
HETATM    8  C1  UNK     1      30.492  -7.904  32.146  1.00  0.00     0.121 A 
HETATM    9  C2  UNK     1      30.597  -7.411  33.627  1.00  0.00     0.147 C 
HETATM   10  C3  UNK     1      31.683  -8.221  34.345  1.00  0.00     0.180 C 
HETATM   11  C4  UNK     1      30.675  -9.420  32.041  1.00  0.00     0.075 A 
HETATM   12  C5  UNK     1      29.202  -7.409  31.514  1.00  0.00    -0.008 A 
HETATM   13  C6  UNK     1      31.564  -7.234  31.232  1.00  0.00     0.241 A 
HETATM   14  C7  UNK     1      31.036 -10.145  33.117  1.00  0.00     0.096 A 
HETATM   15  C8  UNK     1      30.811  -5.906  33.808  1.00  0.00     0.273 C 
HETATM   16  C9  UNK     1      31.836  -7.761  35.770  1.00  0.00     0.006 A 
HETATM   17  C10 UNK     1      29.500  -6.584  30.429  1.00  0.00     0.042 A 
HETATM   18  C11 UNK     1      27.886  -7.664  31.857  1.00  0.00     0.011 A 
HETATM   19  C12 UNK     1      30.445 -10.109  30.733  1.00  0.00     0.299 A 
HETATM   20  C13 UNK     1      31.565  -6.432  36.085  1.00  0.00     0.088 A 
HETATM   21  C14 UNK     1      31.135 -11.604  33.062  1.00  0.00     0.032 A 
HETATM   22  C15 UNK     1      28.523  -5.985  29.658  1.00  0.00     0.030 A 
HETATM   23  C16 UNK     1      32.299  -8.601  36.791  1.00  0.00     0.012 A 
HETATM   24  C17 UNK     1      30.872 -12.241  31.858  1.00  0.00     0.092 A 
HETATM   25  C18 UNK     1      26.877  -7.068  31.091  1.00  0.00     0.001 A 
HETATM   26  C19 UNK     1      27.193  -6.237  30.002  1.00  0.00     0.002 A 
HETATM   27  C20 UNK     1      31.714  -5.936  37.381  1.00  0.00     0.038 A 
HETATM   28  C21 UNK     1      31.479 -12.400  34.164  1.00  0.00     0.017 A 
HETATM   29  C22 UNK     1      32.448  -8.119  38.095  1.00  0.00     0.001 A 
HETATM   30  C23 UNK     1      32.151  -6.789  38.390  1.00  0.00     0.003 A 
HETATM   31  C24 UNK     1      30.938 -13.628  31.718  1.00  0.00     0.038 A 
HETATM   32  C25 UNK     1      31.551 -13.792  34.043  1.00  0.00     0.001 A 
HETATM   33  C26 UNK     1      31.279 -14.405  32.820  1.00  0.00     0.003 A 
HETATM   34  H3  UNK     1      31.318  -5.939  29.536  1.00  0.00     0.169 HD
ENDROOT
TORSDOF 0
ENDMDL
MODEL 10
REMARK VINA RESULT:      -9.5      2.226      5.243
REMARK  0 active torsions:
REMARK  status: ('A' for Active; 'I' for Inactive)
ROOT
HETATM    1  O1  UNK     1      28.716  -7.529  34.933  1.00  0.00    -0.338 OA
HETATM    2  O2  UNK     1      30.628  -4.923  32.312  1.00  0.00    -0.278 OA
HETATM    3  O3  UNK     1      29.919  -8.468  38.814  1.00  0.00    -0.274 OA
HETATM    4  O4  UNK     1      30.170  -4.211  36.708  1.00  0.00    -0.272 OA
HETATM    5  O5  UNK     1      32.244  -4.445  33.830  1.00  0.00    -0.264 OA
HETATM    6  O6  UNK     1      31.659  -7.024  38.680  1.00  0.00    -0.259 OA
HETATM    7  N1  UNK     1      32.480  -4.582  36.871  1.00  0.00    -0.325 N 
HETATM    8  C1  UNK     1      31.188  -6.316  35.863  1.00  0.00     0.121 A 
HETATM    9  C2  UNK     1      30.712  -6.274  34.374  1.00  0.00     0.147 C 
HETATM   10  C3  UNK     1      29.179  -6.312  34.340  1.00  0.00     0.180 C 
HETATM   11  C4  UNK     1      30.311  -7.241  36.711  1.00  0.00     0.075 A 
HETATM   12  C5  UNK     1      32.667  -6.657  35.936  1.00  0.00    -0.008 A 
HETATM   13  C6  UNK     1      31.161  -4.903  36.523  1.00  0.00     0.241 A 
HETATM   14  C7  UNK     1      29.193  -7.788  36.198  1.00  0.00     0.096 A 
HETATM   15  C8  UNK     1      31.261  -5.115  33.538  1.00  0.00     0.273 C 
HETATM   16  C9  UNK     1      28.676  -6.248  32.924  1.00  0.00     0.006 A 
HETATM   17  C10 UNK     1      33.361  -5.602  36.529  1.00  0.00     0.042 A 
HETATM   18  C11 UNK     1      33.342  -7.793  35.525  1.00  0.00     0.011 A 
HETATM   19  C12 UNK     1      30.699  -7.548  38.123  1.00  0.00     0.299 A 
HETATM   20  C13 UNK     1      29.426  -5.567  31.969  1.00  0.00     0.088 A 
HETATM   21  C14 UNK     1      28.383  -8.740  36.960  1.00  0.00     0.032 A 
HETATM   22  C15 UNK     1      34.727  -5.628  36.728  1.00  0.00     0.030 A 
HETATM   23  C16 UNK     1      27.448  -6.795  32.531  1.00  0.00     0.012 A 
HETATM   24  C17 UNK     1      28.777  -9.059  38.252  1.00  0.00     0.092 A 
HETATM   25  C18 UNK     1      34.727  -7.844  35.716  1.00  0.00     0.001 A 
HETATM   26  C19 UNK     1      35.413  -6.771  36.313  1.00  0.00     0.002 A 
HETATM   27  C20 UNK     1      29.002  -5.447  30.644  1.00  0.00     0.038 A 
HETATM   28  C21 UNK     1      27.229  -9.355  36.455  1.00  0.00     0.017 A 
HETATM   29  C22 UNK     1      27.012  -6.687  31.207  1.00  0.00     0.001 A 
HETATM   30  C23 UNK     1      27.791  -6.017  30.264  1.00  0.00     0.003 A 
HETATM   31  C24 UNK     1      28.068  -9.960  39.046  1.00  0.00     0.038 A 
HETATM   32  C25 UNK     1      26.505 -10.261  37.237  1.00  0.00     0.001 A 
HETATM   33  C26 UNK     1      26.925 -10.564  38.532  1.00  0.00     0.003 A 
HETATM   34  H3  UNK     1      32.767  -3.719  37.318  1.00  0.00     0.169 HD
ENDROOT
TORSDOF 0
ENDMDL
