MODEL 1
REMARK VINA RESULT:      -9.7      0.000      0.000
REMARK  7 active torsions:
REMARK  status: ('A' for Active; 'I' for Inactive)
REMARK    1  A    between atoms: C19_26  and  O3_3 
REMARK    2  A    between atoms: C27_34  and  O3_3 
REMARK    3  A    between atoms: C5_12  and  N1_5 
REMARK    4  A    between atoms: C6_13  and  N2_6 
REMARK    5  A    between atoms: C5_12  and  C7_14 
REMARK    6  A    between atoms: C6_13  and  C8_15 
REMARK    7  A    between atoms: C13_20  and  C17_24 
ROOT
HETATM    1  N1  UNK     1      25.395  -7.838  38.635  1.00  0.00     0.096 N 
HETATM    2  N2  UNK     1      28.160  -7.073  38.991  1.00  0.00     0.097 N 
HETATM    3  C1  UNK     1      26.398  -8.804  39.097  1.00  0.00     0.303 C 
HETATM    4  C2  UNK     1      25.762  -6.478  39.049  1.00  0.00     0.303 C 
HETATM    5  C3  UNK     1      27.792  -8.433  38.577  1.00  0.00     0.303 C 
HETATM    6  C4  UNK     1      27.155  -6.107  38.530  1.00  0.00     0.303 C 
ENDROOT
BRANCH   1   7
HETATM    7  C5  UNK     1      24.067  -8.191  39.132  1.00  0.00     0.312 C 
BRANCH   7   8
HETATM    8  C7  UNK     1      22.984  -7.744  38.211  1.00  0.00    -0.011 A 
HETATM    9  C11 UNK     1      22.346  -6.582  38.407  1.00  0.00     0.092 A 
HETATM   10  C15 UNK     1      21.270  -6.099  37.525  1.00  0.00     0.288 A 
HETATM   11  O2  UNK     1      20.931  -6.911  36.453  1.00  0.00    -0.275 OA
HETATM   12  O4  UNK     1      20.707  -5.029  37.735  1.00  0.00    -0.260 OA
HETATM   13  C12 UNK     1      21.584  -8.138  36.222  1.00  0.00     0.090 A 
HETATM   14  C9  UNK     1      22.601  -8.583  37.067  1.00  0.00     0.009 A 
HETATM   15  C18 UNK     1      21.159  -8.872  35.114  1.00  0.00     0.041 A 
HETATM   16  C14 UNK     1      23.200  -9.815  36.770  1.00  0.00     0.051 A 
HETATM   17  C19 UNK     1      22.785 -10.563  35.663  1.00  0.00     0.069 A 
HETATM   18  C20 UNK     1      21.767 -10.092  34.837  1.00  0.00     0.039 A 
BRANCH  17  19
HETATM   19  O3  UNK     1      23.380 -11.758  35.391  1.00  0.00    -0.351 OA
BRANCH  19  20
HETATM   20  C27 UNK     1      24.666 -11.986  35.965  1.00  0.00     0.171 C 
HETATM   21  C29 UNK     1      24.781 -13.446  36.351  1.00  0.00     0.034 C 
ENDBRANCH  19  20
ENDBRANCH  17  19
ENDBRANCH   7   8
ENDBRANCH   1   7
BRANCH   2  22
HETATM   22  C6  UNK     1      29.487  -6.721  38.492  1.00  0.00     0.334 C 
BRANCH  22  23
HETATM   23  C8  UNK     1      29.580  -7.080  37.044  1.00  0.00     0.095 A 
HETATM   24  C10 UNK     1      30.018  -8.248  36.470  1.00  0.00     0.078 A 
HETATM   25  O1  UNK     1      29.921  -8.112  35.119  1.00  0.00    -0.294 OA
HETATM   26  C16 UNK     1      30.532  -9.523  36.978  1.00  0.00     0.079 C 
HETATM   27  C13 UNK     1      29.425  -6.855  34.959  1.00  0.00     0.180 A 
HETATM   28  N3  UNK     1      29.201  -6.191  36.070  1.00  0.00    -0.224 NA
BRANCH  27  29
HETATM   29  C17 UNK     1      29.221  -6.446  33.597  1.00  0.00     0.024 A 
HETATM   30  C21 UNK     1      30.172  -5.677  32.926  1.00  0.00    -0.047 A 
HETATM   31  C24 UNK     1      29.951  -5.292  31.604  1.00  0.00     0.008 A 
HETATM   32  C25 UNK     1      31.440  -5.247  33.590  1.00  0.00     0.049 C 
HETATM   33  C26 UNK     1      28.779  -5.676  30.952  1.00  0.00     0.007 A 
HETATM   34  C23 UNK     1      27.827  -6.445  31.623  1.00  0.00    -0.061 A 
HETATM   35  C22 UNK     1      28.049  -6.829  32.945  1.00  0.00     0.023 A 
HETATM   36  C28 UNK     1      26.575  -6.855  30.926  1.00  0.00     0.048 C 
ENDBRANCH  27  29
ENDBRANCH  22  23
ENDBRANCH   2  22
TORSDOF 7
ENDMDL
MODEL 2
REMARK VINA RESULT:      -9.7      8.210     11.300
REMARK  7 active torsions:
REMARK  status: ('A' for Active; 'I' for Inactive)
REMARK    1  A    between atoms: C19_26  and  O3_3 
REMARK    2  A    between atoms: C27_34  and  O3_3 
REMARK    3  A    between atoms: C5_12  and  N1_5 
REMARK    4  A    between atoms: C6_13  and  N2_6 
REMARK    5  A    between atoms: C5_12  and  C7_14 
REMARK    6  A    between atoms: C6_13  and  C8_15 
REMARK    7  A    between atoms: C13_20  and  C17_24 
ROOT
HETATM    1  N1  UNK     1      19.636  -3.146  36.597  1.00  0.00     0.096 N 
HETATM    2  N2  UNK     1      18.504  -0.888  35.193  1.00  0.00     0.097 N 
HETATM    3  C1  UNK     1      20.378  -2.464  35.531  1.00  0.00     0.303 C 
HETATM    4  C2  UNK     1      18.724  -2.211  37.268  1.00  0.00     0.303 C 
HETATM    5  C3  UNK     1      19.417  -1.822  34.523  1.00  0.00     0.303 C 
HETATM    6  C4  UNK     1      17.763  -1.570  36.261  1.00  0.00     0.303 C 
ENDROOT
BRANCH   1   7
HETATM    7  C5  UNK     1      20.553  -3.756  37.559  1.00  0.00     0.312 C 
BRANCH   7   8
HETATM    8  C7  UNK     1      20.522  -5.245  37.499  1.00  0.00    -0.011 A 
HETATM    9  C11 UNK     1      19.465  -5.894  36.991  1.00  0.00     0.092 A 
HETATM   10  C15 UNK     1      19.388  -7.363  36.912  1.00  0.00     0.288 A 
HETATM   11  O2  UNK     1      20.478  -8.071  37.394  1.00  0.00    -0.275 OA
HETATM   12  O4  UNK     1      18.404  -7.924  36.441  1.00  0.00    -0.260 OA
HETATM   13  C12 UNK     1      21.603  -7.416  37.933  1.00  0.00     0.090 A 
HETATM   14  C9  UNK     1      21.661  -6.023  38.003  1.00  0.00     0.009 A 
HETATM   15  C18 UNK     1      22.641  -8.230  38.389  1.00  0.00     0.041 A 
HETATM   16  C14 UNK     1      22.814  -5.447  38.554  1.00  0.00     0.051 A 
HETATM   17  C19 UNK     1      23.864  -6.250  39.016  1.00  0.00     0.069 A 
HETATM   18  C20 UNK     1      23.777  -7.639  38.933  1.00  0.00     0.039 A 
BRANCH  17  19
HETATM   19  O3  UNK     1      24.975  -5.672  39.548  1.00  0.00    -0.351 OA
BRANCH  19  20
HETATM   20  C27 UNK     1      26.047  -5.381  38.652  1.00  0.00     0.171 C 
HETATM   21  C29 UNK     1      27.102  -6.458  38.781  1.00  0.00     0.034 C 
ENDBRANCH  19  20
ENDBRANCH  17  19
ENDBRANCH   7   8
ENDBRANCH   1   7
BRANCH   2  22
HETATM   22  C6  UNK     1      17.587  -0.280  34.231  1.00  0.00     0.334 C 
BRANCH  22  23
HETATM   23  C8  UNK     1      17.899   1.177  34.106  1.00  0.00     0.095 A 
HETATM   24  C10 UNK     1      18.271   2.067  35.083  1.00  0.00     0.078 A 
HETATM   25  O1  UNK     1      18.448   3.283  34.495  1.00  0.00    -0.294 OA
HETATM   26  C16 UNK     1      18.504   1.984  36.528  1.00  0.00     0.079 C 
HETATM   27  C13 UNK     1      18.166   3.048  33.185  1.00  0.00     0.180 A 
HETATM   28  N3  UNK     1      17.833   1.812  32.892  1.00  0.00    -0.224 NA
BRANCH  27  29
HETATM   29  C17 UNK     1      18.278   4.191  32.321  1.00  0.00     0.024 A 
HETATM   30  C21 UNK     1      18.654   4.048  30.985  1.00  0.00    -0.047 A 
HETATM   31  C24 UNK     1      18.755   5.172  30.165  1.00  0.00     0.008 A 
HETATM   32  C25 UNK     1      18.956   2.708  30.396  1.00  0.00     0.049 C 
HETATM   33  C26 UNK     1      18.480   6.439  30.682  1.00  0.00     0.007 A 
HETATM   34  C23 UNK     1      18.104   6.581  32.018  1.00  0.00    -0.061 A 
HETATM   35  C22 UNK     1      18.003   5.457  32.836  1.00  0.00     0.023 A 
HETATM   36  C28 UNK     1      17.810   7.935  32.568  1.00  0.00     0.048 C 
ENDBRANCH  27  29
ENDBRANCH  22  23
ENDBRANCH   2  22
TORSDOF 7
ENDMDL
MODEL 3
REMARK VINA RESULT:      -9.5     13.314     17.059
REMARK  7 active torsions:
REMARK  status: ('A' for Active; 'I' for Inactive)
REMARK    1  A    between atoms: C19_26  and  O3_3 
REMARK    2  A    between atoms: C27_34  and  O3_3 
REMARK    3  A    between atoms: C5_12  and  N1_5 
REMARK    4  A    between atoms: C6_13  and  N2_6 
REMARK    5  A    between atoms: C5_12  and  C7_14 
REMARK    6  A    between atoms: C6_13  and  C8_15 
REMARK    7  A    between atoms: C13_20  and  C17_24 
ROOT
HETATM    1  N1  UNK     1      17.992   5.678  31.778  1.00  0.00     0.096 N 
HETATM    2  N2  UNK     1      19.011   3.060  31.098  1.00  0.00     0.097 N 
HETATM    3  C1  UNK     1      17.957   4.574  32.744  1.00  0.00     0.303 C 
HETATM    4  C2  UNK     1      19.121   5.516  30.854  1.00  0.00     0.303 C 
HETATM    5  C3  UNK     1      17.882   3.222  32.024  1.00  0.00     0.303 C 
HETATM    6  C4  UNK     1      19.047   4.166  30.134  1.00  0.00     0.303 C 
ENDROOT
BRANCH   1   7
HETATM    7  C5  UNK     1      18.064   6.966  32.466  1.00  0.00     0.312 C 
BRANCH   7   8
HETATM    8  C7  UNK     1      16.721   7.586  32.642  1.00  0.00    -0.011 A 
HETATM    9  C11 UNK     1      15.605   6.928  32.297  1.00  0.00     0.092 A 
HETATM   10  C15 UNK     1      14.257   7.499  32.451  1.00  0.00     0.288 A 
HETATM   11  O2  UNK     1      14.178   8.778  32.980  1.00  0.00    -0.275 OA
HETATM   12  O4  UNK     1      13.257   6.867  32.125  1.00  0.00    -0.260 OA
HETATM   13  C12 UNK     1      15.334   9.494  33.351  1.00  0.00     0.090 A 
HETATM   14  C9  UNK     1      16.605   8.941  33.198  1.00  0.00     0.009 A 
HETATM   15  C18 UNK     1      15.134  10.774  33.871  1.00  0.00     0.041 A 
HETATM   16  C14 UNK     1      17.704   9.718  33.589  1.00  0.00     0.051 A 
HETATM   17  C19 UNK     1      17.521  11.003  34.113  1.00  0.00     0.069 A 
HETATM   18  C20 UNK     1      16.238  11.529  34.254  1.00  0.00     0.039 A 
BRANCH  17  19
HETATM   19  O3  UNK     1      18.601  11.742  34.487  1.00  0.00    -0.351 OA
BRANCH  19  20
HETATM   20  C27 UNK     1      18.468  13.161  34.425  1.00  0.00     0.171 C 
HETATM   21  C29 UNK     1      18.772  13.623  33.016  1.00  0.00     0.034 C 
ENDBRANCH  19  20
ENDBRANCH  17  19
ENDBRANCH   7   8
ENDBRANCH   1   7
BRANCH   2  22
HETATM   22  C6  UNK     1      18.936   1.773  30.411  1.00  0.00     0.334 C 
BRANCH  22  23
HETATM   23  C8  UNK     1      19.100   0.671  31.408  1.00  0.00     0.095 A 
HETATM   24  C10 UNK     1      19.739  -0.535  31.265  1.00  0.00     0.078 A 
HETATM   25  O1  UNK     1      19.629  -1.210  32.443  1.00  0.00    -0.294 OA
HETATM   26  C16 UNK     1      20.466  -1.201  30.180  1.00  0.00     0.079 C 
HETATM   27  C13 UNK     1      18.921  -0.358  33.233  1.00  0.00     0.180 A 
HETATM   28  N3  UNK     1      18.578   0.780  32.672  1.00  0.00    -0.224 NA
BRANCH  27  29
HETATM   29  C17 UNK     1      18.657  -0.833  34.563  1.00  0.00     0.024 A 
HETATM   30  C21 UNK     1      17.514  -0.433  35.257  1.00  0.00    -0.047 A 
HETATM   31  C24 UNK     1      17.280  -0.908  36.547  1.00  0.00     0.008 A 
HETATM   32  C25 UNK     1      16.518   0.502  34.650  1.00  0.00     0.049 C 
HETATM   33  C26 UNK     1      18.189  -1.782  37.144  1.00  0.00     0.007 A 
HETATM   34  C23 UNK     1      19.332  -2.181  36.451  1.00  0.00    -0.061 A 
HETATM   35  C22 UNK     1      19.565  -1.706  35.161  1.00  0.00     0.023 A 
HETATM   36  C28 UNK     1      20.302  -3.115  37.090  1.00  0.00     0.048 C 
ENDBRANCH  27  29
ENDBRANCH  22  23
ENDBRANCH   2  22
TORSDOF 7
ENDMDL
MODEL 4
REMARK VINA RESULT:      -9.5      2.992      4.904
REMARK  7 active torsions:
REMARK  status: ('A' for Active; 'I' for Inactive)
REMARK    1  A    between atoms: C19_26  and  O3_3 
REMARK    2  A    between atoms: C27_34  and  O3_3 
REMARK    3  A    between atoms: C5_12  and  N1_5 
REMARK    4  A    between atoms: C6_13  and  N2_6 
REMARK    5  A    between atoms: C5_12  and  C7_14 
REMARK    6  A    between atoms: C6_13  and  C8_15 
REMARK    7  A    between atoms: C13_20  and  C17_24 
ROOT
HETATM    1  N1  UNK     1      23.537  -8.483  38.656  1.00  0.00     0.096 N 
HETATM    2  N2  UNK     1      26.034  -8.719  37.220  1.00  0.00     0.097 N 
HETATM    3  C1  UNK     1      24.715  -7.697  39.043  1.00  0.00     0.303 C 
HETATM    4  C2  UNK     1      23.564  -8.773  37.217  1.00  0.00     0.303 C 
HETATM    5  C3  UNK     1      26.007  -8.428  38.659  1.00  0.00     0.303 C 
HETATM    6  C4  UNK     1      24.855  -9.503  36.832  1.00  0.00     0.303 C 
ENDROOT
BRANCH   1   7
HETATM    7  C5  UNK     1      22.305  -7.785  39.022  1.00  0.00     0.312 C 
BRANCH   7   8
HETATM    8  C7  UNK     1      21.094  -8.460  38.475  1.00  0.00    -0.011 A 
HETATM    9  C11 UNK     1      20.711  -9.663  38.925  1.00  0.00     0.092 A 
HETATM   10  C15 UNK     1      19.522 -10.368  38.416  1.00  0.00     0.288 A 
HETATM   11  O2  UNK     1      18.794  -9.727  37.426  1.00  0.00    -0.275 OA
HETATM   12  O4  UNK     1      19.201 -11.469  38.851  1.00  0.00    -0.260 OA
HETATM   13  C12 UNK     1      19.173  -8.463  36.933  1.00  0.00     0.090 A 
HETATM   14  C9  UNK     1      20.302  -7.806  37.424  1.00  0.00     0.009 A 
HETATM   15  C18 UNK     1      18.365  -7.913  35.936  1.00  0.00     0.041 A 
HETATM   16  C14 UNK     1      20.613  -6.552  36.881  1.00  0.00     0.051 A 
HETATM   17  C19 UNK     1      19.813  -5.988  35.881  1.00  0.00     0.069 A 
HETATM   18  C20 UNK     1      18.691  -6.667  35.410  1.00  0.00     0.039 A 
BRANCH  17  19
HETATM   19  O3  UNK     1      20.132  -4.768  35.366  1.00  0.00    -0.351 OA
BRANCH  19  20
HETATM   20  C27 UNK     1      20.059  -3.652  36.251  1.00  0.00     0.171 C 
HETATM   21  C29 UNK     1      20.081  -2.376  35.437  1.00  0.00     0.034 C 
ENDBRANCH  19  20
ENDBRANCH  17  19
ENDBRANCH   7   8
ENDBRANCH   1   7
BRANCH   2  22
HETATM   22  C6  UNK     1      27.265  -9.417  36.856  1.00  0.00     0.334 C 
BRANCH  22  23
HETATM   23  C8  UNK     1      28.439  -8.562  37.209  1.00  0.00     0.095 A 
HETATM   24  C10 UNK     1      29.449  -8.808  38.106  1.00  0.00     0.078 A 
HETATM   25  O1  UNK     1      30.295  -7.741  38.087  1.00  0.00    -0.294 OA
HETATM   26  C16 UNK     1      29.781  -9.907  39.018  1.00  0.00     0.079 C 
HETATM   27  C13 UNK     1      29.737  -6.907  37.168  1.00  0.00     0.180 A 
HETATM   28  N3  UNK     1      28.630  -7.342  36.610  1.00  0.00    -0.224 NA
BRANCH  27  29
HETATM   29  C17 UNK     1      30.445  -5.677  36.947  1.00  0.00     0.024 A 
HETATM   30  C21 UNK     1      30.107  -4.517  37.645  1.00  0.00    -0.047 A 
HETATM   31  C24 UNK     1      30.809  -3.334  37.413  1.00  0.00     0.008 A 
HETATM   32  C25 UNK     1      28.999  -4.502  38.648  1.00  0.00     0.049 C 
HETATM   33  C26 UNK     1      31.850  -3.312  36.484  1.00  0.00     0.007 A 
HETATM   34  C23 UNK     1      32.188  -4.472  35.786  1.00  0.00    -0.061 A 
HETATM   35  C22 UNK     1      31.485  -5.653  36.018  1.00  0.00     0.023 A 
HETATM   36  C28 UNK     1      33.299  -4.446  34.794  1.00  0.00     0.048 C 
ENDBRANCH  27  29
ENDBRANCH  22  23
ENDBRANCH   2  22
TORSDOF 7
ENDMDL
MODEL 5
REMARK VINA RESULT:      -9.4     14.000     17.142
REMARK  7 active torsions:
REMARK  status: ('A' for Active; 'I' for Inactive)
REMARK    1  A    between atoms: C19_26  and  O3_3 
REMARK    2  A    between atoms: C27_34  and  O3_3 
REMARK    3  A    between atoms: C5_12  and  N1_5 
REMARK    4  A    between atoms: C6_13  and  N2_6 
REMARK    5  A    between atoms: C5_12  and  C7_14 
REMARK    6  A    between atoms: C6_13  and  C8_15 
REMARK    7  A    between atoms: C13_20  and  C17_24 
ROOT
HETATM    1  N1  UNK     1      18.737   3.213  31.322  1.00  0.00     0.096 N 
HETATM    2  N2  UNK     1      18.720   5.895  32.400  1.00  0.00     0.097 N 
HETATM    3  C1  UNK     1      17.898   3.565  32.474  1.00  0.00     0.303 C 
HETATM    4  C2  UNK     1      18.939   4.383  30.458  1.00  0.00     0.303 C 
HETATM    5  C3  UNK     1      18.517   4.725  33.264  1.00  0.00     0.303 C 
HETATM    6  C4  UNK     1      19.557   5.543  31.247  1.00  0.00     0.303 C 
ENDROOT
BRANCH   1   7
HETATM    7  C5  UNK     1      18.146   2.108  30.569  1.00  0.00     0.312 C 
BRANCH   7   8
HETATM    8  C7  UNK     1      19.055   0.930  30.495  1.00  0.00    -0.011 A 
HETATM    9  C11 UNK     1      19.776   0.681  29.393  1.00  0.00     0.092 A 
HETATM   10  C15 UNK     1      20.686  -0.471  29.273  1.00  0.00     0.288 A 
HETATM   11  O2  UNK     1      20.773  -1.314  30.370  1.00  0.00    -0.275 OA
HETATM   12  O4  UNK     1      21.331  -0.668  28.248  1.00  0.00    -0.260 OA
HETATM   13  C12 UNK     1      20.027  -1.077  31.542  1.00  0.00     0.090 A 
HETATM   14  C9  UNK     1      19.168   0.017  31.642  1.00  0.00     0.009 A 
HETATM   15  C18 UNK     1      20.194  -1.992  32.583  1.00  0.00     0.041 A 
HETATM   16  C14 UNK     1      18.460   0.182  32.840  1.00  0.00     0.051 A 
HETATM   17  C19 UNK     1      18.616  -0.726  33.893  1.00  0.00     0.069 A 
HETATM   18  C20 UNK     1      19.482  -1.811  33.765  1.00  0.00     0.039 A 
BRANCH  17  19
HETATM   19  O3  UNK     1      17.919  -0.549  35.049  1.00  0.00    -0.351 OA
BRANCH  19  20
HETATM   20  C27 UNK     1      17.063   0.589  35.121  1.00  0.00     0.171 C 
HETATM   21  C29 UNK     1      15.659   0.129  35.452  1.00  0.00     0.034 C 
ENDBRANCH  19  20
ENDBRANCH  17  19
ENDBRANCH   7   8
ENDBRANCH   1   7
BRANCH   2  22
HETATM   22  C6  UNK     1      19.312   6.998  33.154  1.00  0.00     0.334 C 
BRANCH  22  23
HETATM   23  C8  UNK     1      18.348   8.140  33.194  1.00  0.00     0.095 A 
HETATM   24  C10 UNK     1      17.132   8.266  32.570  1.00  0.00     0.078 A 
HETATM   25  O1  UNK     1      16.615   9.482  32.901  1.00  0.00    -0.294 OA
HETATM   26  C16 UNK     1      16.329   7.419  31.682  1.00  0.00     0.079 C 
HETATM   27  C13 UNK     1      17.564  10.021  33.713  1.00  0.00     0.180 A 
HETATM   28  N3  UNK     1      18.620   9.268  33.925  1.00  0.00    -0.224 NA
BRANCH  27  29
HETATM   29  C17 UNK     1      17.266  11.334  34.217  1.00  0.00     0.024 A 
HETATM   30  C21 UNK     1      16.112  11.572  34.964  1.00  0.00    -0.047 A 
HETATM   31  C24 UNK     1      15.843  12.855  35.442  1.00  0.00     0.008 A 
HETATM   32  C25 UNK     1      15.140  10.479  35.273  1.00  0.00     0.049 C 
HETATM   33  C26 UNK     1      16.729  13.898  35.173  1.00  0.00     0.007 A 
HETATM   34  C23 UNK     1      17.883  13.660  34.426  1.00  0.00    -0.061 A 
HETATM   35  C22 UNK     1      18.150  12.377  33.948  1.00  0.00     0.023 A 
HETATM   36  C28 UNK     1      18.829  14.776  34.139  1.00  0.00     0.048 C 
ENDBRANCH  27  29
ENDBRANCH  22  23
ENDBRANCH   2  22
TORSDOF 7
ENDMDL
MODEL 6
REMARK VINA RESULT:      -9.3     12.672     15.946
REMARK  7 active torsions:
REMARK  status: ('A' for Active; 'I' for Inactive)
REMARK    1  A    between atoms: C19_26  and  O3_3 
REMARK    2  A    between atoms: C27_34  and  O3_3 
REMARK    3  A    between atoms: C5_12  and  N1_5 
REMARK    4  A    between atoms: C6_13  and  N2_6 
REMARK    5  A    between atoms: C5_12  and  C7_14 
REMARK    6  A    between atoms: C6_13  and  C8_15 
REMARK    7  A    between atoms: C13_20  and  C17_24 
ROOT
HETATM    1  N1  UNK     1      18.472   1.632  33.977  1.00  0.00     0.096 N 
HETATM    2  N2  UNK     1      18.655   4.513  33.851  1.00  0.00     0.097 N 
HETATM    3  C1  UNK     1      18.463   2.448  35.196  1.00  0.00     0.303 C 
HETATM    4  C2  UNK     1      17.903   2.383  32.852  1.00  0.00     0.303 C 
HETATM    5  C3  UNK     1      19.224   3.762  34.977  1.00  0.00     0.303 C 
HETATM    6  C4  UNK     1      18.662   3.696  32.632  1.00  0.00     0.303 C 
ENDROOT
BRANCH   1   7
HETATM    7  C5  UNK     1      17.745   0.380  34.186  1.00  0.00     0.312 C 
BRANCH   7   8
HETATM    8  C7  UNK     1      18.663  -0.783  34.343  1.00  0.00    -0.011 A 
HETATM    9  C11 UNK     1      18.865  -1.347  35.542  1.00  0.00     0.092 A 
HETATM   10  C15 UNK     1      19.763  -2.497  35.747  1.00  0.00     0.288 A 
HETATM   11  O2  UNK     1      20.411  -2.989  34.624  1.00  0.00    -0.275 OA
HETATM   12  O4  UNK     1      19.923  -2.988  36.859  1.00  0.00    -0.260 OA
HETATM   13  C12 UNK     1      20.219  -2.416  33.351  1.00  0.00     0.090 A 
HETATM   14  C9  UNK     1      19.366  -1.326  33.172  1.00  0.00     0.009 A 
HETATM   15  C18 UNK     1      20.923  -2.994  32.294  1.00  0.00     0.041 A 
HETATM   16  C14 UNK     1      19.230  -0.813  31.875  1.00  0.00     0.051 A 
HETATM   17  C19 UNK     1      19.929  -1.381  30.805  1.00  0.00     0.069 A 
HETATM   18  C20 UNK     1      20.774  -2.470  31.014  1.00  0.00     0.039 A 
BRANCH  17  19
HETATM   19  O3  UNK     1      19.784  -0.868  29.552  1.00  0.00    -0.351 OA
BRANCH  19  20
HETATM   20  C27 UNK     1      19.794   0.554  29.429  1.00  0.00     0.171 C 
HETATM   21  C29 UNK     1      18.526   0.996  28.730  1.00  0.00     0.034 C 
ENDBRANCH  19  20
ENDBRANCH  17  19
ENDBRANCH   7   8
ENDBRANCH   1   7
BRANCH   2  22
HETATM   22  C6  UNK     1      19.383   5.763  33.643  1.00  0.00     0.334 C 
BRANCH  22  23
HETATM   23  C8  UNK     1      18.415   6.841  33.276  1.00  0.00     0.095 A 
HETATM   24  C10 UNK     1      17.944   7.193  32.035  1.00  0.00     0.078 A 
HETATM   25  O1  UNK     1      17.080   8.234  32.196  1.00  0.00    -0.294 OA
HETATM   26  C16 UNK     1      18.163   6.712  30.668  1.00  0.00     0.079 C 
HETATM   27  C13 UNK     1      17.085   8.449  33.540  1.00  0.00     0.180 A 
HETATM   28  N3  UNK     1      17.861   7.650  34.236  1.00  0.00    -0.224 NA
BRANCH  27  29
HETATM   29  C17 UNK     1      16.239   9.518  33.992  1.00  0.00     0.024 A 
HETATM   30  C21 UNK     1      14.866   9.329  34.155  1.00  0.00    -0.047 A 
HETATM   31  C24 UNK     1      14.065  10.382  34.595  1.00  0.00     0.008 A 
HETATM   32  C25 UNK     1      14.218   8.013  33.867  1.00  0.00     0.049 C 
HETATM   33  C26 UNK     1      14.636  11.624  34.873  1.00  0.00     0.007 A 
HETATM   34  C23 UNK     1      16.009  11.813  34.710  1.00  0.00    -0.061 A 
HETATM   35  C22 UNK     1      16.809  10.760  34.270  1.00  0.00     0.023 A 
HETATM   36  C28 UNK     1      16.618  13.141  35.008  1.00  0.00     0.048 C 
ENDBRANCH  27  29
ENDBRANCH  22  23
ENDBRANCH   2  22
TORSDOF 7
ENDMDL
MODEL 7
REMARK VINA RESULT:      -9.3      1.286      3.739
REMARK  7 active torsions:
REMARK  status: ('A' for Active; 'I' for Inactive)
REMARK    1  A    between atoms: C19_26  and  O3_3 
REMARK    2  A    between atoms: C27_34  and  O3_3 
REMARK    3  A    between atoms: C5_12  and  N1_5 
REMARK    4  A    between atoms: C6_13  and  N2_6 
REMARK    5  A    between atoms: C5_12  and  C7_14 
REMARK    6  A    between atoms: C6_13  and  C8_15 
REMARK    7  A    between atoms: C13_20  and  C17_24 
ROOT
HETATM    1  N1  UNK     1      24.919  -7.787  38.437  1.00  0.00     0.096 N 
HETATM    2  N2  UNK     1      27.598  -7.034  39.219  1.00  0.00     0.097 N 
HETATM    3  C1  UNK     1      25.820  -8.746  39.086  1.00  0.00     0.303 C 
HETATM    4  C2  UNK     1      25.230  -6.419  38.867  1.00  0.00     0.303 C 
HETATM    5  C3  UNK     1      27.285  -8.403  38.790  1.00  0.00     0.303 C 
HETATM    6  C4  UNK     1      26.694  -6.074  38.572  1.00  0.00     0.303 C 
ENDROOT
BRANCH   1   7
HETATM    7  C5  UNK     1      23.522  -8.115  38.721  1.00  0.00     0.312 C 
BRANCH   7   8
HETATM    8  C7  UNK     1      22.757  -8.433  37.482  1.00  0.00    -0.011 A 
HETATM    9  C11 UNK     1      22.974  -9.571  36.808  1.00  0.00     0.092 A 
HETATM   10  C15 UNK     1      22.244  -9.928  35.580  1.00  0.00     0.288 A 
HETATM   11  O2  UNK     1      21.297  -9.019  35.132  1.00  0.00    -0.275 OA
HETATM   12  O4  UNK     1      22.469 -10.979  34.989  1.00  0.00    -0.260 OA
HETATM   13  C12 UNK     1      21.047  -7.815  35.819  1.00  0.00     0.090 A 
HETATM   14  C9  UNK     1      21.748  -7.489  36.981  1.00  0.00     0.009 A 
HETATM   15  C18 UNK     1      20.073  -6.977  35.276  1.00  0.00     0.041 A 
HETATM   16  C14 UNK     1      21.443  -6.272  37.605  1.00  0.00     0.051 A 
HETATM   17  C19 UNK     1      20.468  -5.421  37.073  1.00  0.00     0.069 A 
HETATM   18  C20 UNK     1      19.784  -5.773  35.911  1.00  0.00     0.039 A 
BRANCH  17  19
HETATM   19  O3  UNK     1      20.186  -4.242  37.694  1.00  0.00    -0.351 OA
BRANCH  19  20
HETATM   20  C27 UNK     1      20.282  -3.056  36.907  1.00  0.00     0.171 C 
HETATM   21  C29 UNK     1      19.006  -2.257  37.062  1.00  0.00     0.034 C 
ENDBRANCH  19  20
ENDBRANCH  17  19
ENDBRANCH   7   8
ENDBRANCH   1   7
BRANCH   2  22
HETATM   22  C6  UNK     1      28.993  -6.707  38.934  1.00  0.00     0.334 C 
BRANCH  22  23
HETATM   23  C8  UNK     1      29.297  -7.045  37.510  1.00  0.00     0.095 A 
HETATM   24  C10 UNK     1      29.899  -8.168  36.998  1.00  0.00     0.078 A 
HETATM   25  O1  UNK     1      29.961  -8.029  35.644  1.00  0.00    -0.294 OA
HETATM   26  C16 UNK     1      30.450  -9.401  37.569  1.00  0.00     0.079 C 
HETATM   27  C13 UNK     1      29.386  -6.816  35.421  1.00  0.00     0.180 A 
HETATM   28  N3  UNK     1      28.970  -6.183  36.494  1.00  0.00    -0.224 NA
BRANCH  27  29
HETATM   29  C17 UNK     1      29.321  -6.414  34.043  1.00  0.00     0.024 A 
HETATM   30  C21 UNK     1      30.369  -5.711  33.448  1.00  0.00    -0.047 A 
HETATM   31  C24 UNK     1      30.282  -5.332  32.109  1.00  0.00     0.008 A 
HETATM   32  C25 UNK     1      31.600  -5.347  34.214  1.00  0.00     0.049 C 
HETATM   33  C26 UNK     1      29.148  -5.655  31.365  1.00  0.00     0.007 A 
HETATM   34  C23 UNK     1      28.099  -6.358  31.959  1.00  0.00    -0.061 A 
HETATM   35  C22 UNK     1      28.187  -6.737  33.298  1.00  0.00     0.023 A 
HETATM   36  C28 UNK     1      26.888  -6.703  31.162  1.00  0.00     0.048 C 
ENDBRANCH  27  29
ENDBRANCH  22  23
ENDBRANCH   2  22
TORSDOF 7
ENDMDL
MODEL 8
REMARK VINA RESULT:      -9.1     32.669     35.986
REMARK  7 active torsions:
REMARK  status: ('A' for Active; 'I' for Inactive)
REMARK    1  A    between atoms: C19_26  and  O3_3 
REMARK    2  A    between atoms: C27_34  and  O3_3 
REMARK    3  A    between atoms: C5_12  and  N1_5 
REMARK    4  A    between atoms: C6_13  and  N2_6 
REMARK    5  A    between atoms: C5_12  and  C7_14 
REMARK    6  A    between atoms: C6_13  and  C8_15 
REMARK    7  A    between atoms: C13_20  and  C17_24 
ROOT
HETATM    1  N1  UNK     1      15.234   9.258   9.557  1.00  0.00     0.096 N 
HETATM    2  N2  UNK     1      13.333   7.100   9.270  1.00  0.00     0.097 N 
HETATM    3  C1  UNK     1      14.143   9.331   8.579  1.00  0.00     0.303 C 
HETATM    4  C2  UNK     1      14.841   8.432  10.704  1.00  0.00     0.303 C 
HETATM    5  C3  UNK     1      13.726   7.928   8.122  1.00  0.00     0.303 C 
HETATM    6  C4  UNK     1      14.424   7.029  10.249  1.00  0.00     0.303 C 
ENDROOT
BRANCH   1   7
HETATM    7  C5  UNK     1      15.630  10.597   9.992  1.00  0.00     0.312 C 
BRANCH   7   8
HETATM    8  C7  UNK     1      16.570  11.244   9.035  1.00  0.00    -0.011 A 
HETATM    9  C11 UNK     1      17.785  10.728   8.803  1.00  0.00     0.092 A 
HETATM   10  C15 UNK     1      18.748  11.333   7.867  1.00  0.00     0.288 A 
HETATM   11  O2  UNK     1      18.343  12.488   7.215  1.00  0.00    -0.275 OA
HETATM   12  O4  UNK     1      19.853  10.833   7.679  1.00  0.00    -0.260 OA
HETATM   13  C12 UNK     1      17.072  13.053   7.439  1.00  0.00     0.090 A 
HETATM   14  C9  UNK     1      16.170  12.470   8.330  1.00  0.00     0.009 A 
HETATM   15  C18 UNK     1      16.772  14.216   6.728  1.00  0.00     0.041 A 
HETATM   16  C14 UNK     1      14.926  13.094   8.498  1.00  0.00     0.051 A 
HETATM   17  C19 UNK     1      14.611  14.261   7.793  1.00  0.00     0.069 A 
HETATM   18  C20 UNK     1      15.532  14.820   6.909  1.00  0.00     0.039 A 
BRANCH  17  19
HETATM   19  O3  UNK     1      13.397  14.852   7.970  1.00  0.00    -0.351 OA
BRANCH  19  20
HETATM   20  C27 UNK     1      13.354  16.277   7.897  1.00  0.00     0.171 C 
HETATM   21  C29 UNK     1      12.459  16.683   6.746  1.00  0.00     0.034 C 
ENDBRANCH  19  20
ENDBRANCH  17  19
ENDBRANCH   7   8
ENDBRANCH   1   7
BRANCH   2  22
HETATM   22  C6  UNK     1      12.939   5.762   8.833  1.00  0.00     0.334 C 
BRANCH  22  23
HETATM   23  C8  UNK     1      11.459   5.728   8.625  1.00  0.00     0.095 A 
HETATM   24  C10 UNK     1      10.747   5.888   7.462  1.00  0.00     0.078 A 
HETATM   25  O1  UNK     1       9.423   5.776   7.763  1.00  0.00    -0.294 OA
HETATM   26  C16 UNK     1      11.094   6.136   6.059  1.00  0.00     0.079 C 
HETATM   27  C13 UNK     1       9.420   5.554   9.106  1.00  0.00     0.180 A 
HETATM   28  N3  UNK     1      10.603   5.514   9.675  1.00  0.00    -0.224 NA
BRANCH  27  29
HETATM   29  C17 UNK     1       8.119   5.395   9.697  1.00  0.00     0.024 A 
HETATM   30  C21 UNK     1       7.365   6.503  10.083  1.00  0.00    -0.047 A 
HETATM   31  C24 UNK     1       6.105   6.324  10.654  1.00  0.00     0.008 A 
HETATM   32  C25 UNK     1       7.872   7.897   9.900  1.00  0.00     0.049 C 
HETATM   33  C26 UNK     1       5.600   5.036  10.839  1.00  0.00     0.007 A 
HETATM   34  C23 UNK     1       6.355   3.928  10.453  1.00  0.00    -0.061 A 
HETATM   35  C22 UNK     1       7.614   4.109   9.882  1.00  0.00     0.023 A 
HETATM   36  C28 UNK     1       5.814   2.553  10.651  1.00  0.00     0.048 C 
ENDBRANCH  27  29
ENDBRANCH  22  23
ENDBRANCH   2  22
TORSDOF 7
ENDMDL
MODEL 9
REMARK VINA RESULT:      -9.1     31.560     34.723
REMARK  7 active torsions:
REMARK  status: ('A' for Active; 'I' for Inactive)
REMARK    1  A    between atoms: C19_26  and  O3_3 
REMARK    2  A    between atoms: C27_34  and  O3_3 
REMARK    3  A    between atoms: C5_12  and  N1_5 
REMARK    4  A    between atoms: C6_13  and  N2_6 
REMARK    5  A    between atoms: C5_12  and  C7_14 
REMARK    6  A    between atoms: C6_13  and  C8_15 
REMARK    7  A    between atoms: C13_20  and  C17_24 
ROOT
HETATM    1  N1  UNK     1      15.292   6.923   9.775  1.00  0.00     0.096 N 
HETATM    2  N2  UNK     1      12.809   5.885   8.721  1.00  0.00     0.097 N 
HETATM    3  C1  UNK     1      14.193   7.819   9.394  1.00  0.00     0.303 C 
HETATM    4  C2  UNK     1      14.767   5.621  10.204  1.00  0.00     0.303 C 
HETATM    5  C3  UNK     1      13.333   7.188   8.292  1.00  0.00     0.303 C 
HETATM    6  C4  UNK     1      13.907   4.990   9.104  1.00  0.00     0.303 C 
ENDROOT
BRANCH   1   7
HETATM    7  C5  UNK     1      16.111   7.525  10.826  1.00  0.00     0.312 C 
BRANCH   7   8
HETATM    8  C7  UNK     1      15.666   8.906  11.163  1.00  0.00    -0.011 A 
HETATM    9  C11 UNK     1      14.686   9.120  12.052  1.00  0.00     0.092 A 
HETATM   10  C15 UNK     1      14.212  10.466  12.416  1.00  0.00     0.288 A 
HETATM   11  O2  UNK     1      14.833  11.536  11.790  1.00  0.00    -0.275 OA
HETATM   12  O4  UNK     1      13.312  10.624  13.234  1.00  0.00    -0.260 OA
HETATM   13  C12 UNK     1      15.866  11.342  10.851  1.00  0.00     0.090 A 
HETATM   14  C9  UNK     1      16.304  10.061  10.515  1.00  0.00     0.009 A 
HETATM   15  C18 UNK     1      16.417  12.492  10.283  1.00  0.00     0.041 A 
HETATM   16  C14 UNK     1      17.335   9.952   9.571  1.00  0.00     0.051 A 
HETATM   17  C19 UNK     1      17.898  11.096   8.993  1.00  0.00     0.069 A 
HETATM   18  C20 UNK     1      17.440  12.363   9.349  1.00  0.00     0.039 A 
BRANCH  17  19
HETATM   19  O3  UNK     1      18.898  10.969   8.078  1.00  0.00    -0.351 OA
BRANCH  19  20
HETATM   20  C27 UNK     1      19.337  12.162   7.430  1.00  0.00     0.171 C 
HETATM   21  C29 UNK     1      18.814  12.171   6.009  1.00  0.00     0.034 C 
ENDBRANCH  19  20
ENDBRANCH  17  19
ENDBRANCH   7   8
ENDBRANCH   1   7
BRANCH   2  22
HETATM   22  C6  UNK     1      11.992   5.284   7.669  1.00  0.00     0.334 C 
BRANCH  22  23
HETATM   23  C8  UNK     1      10.563   5.672   7.873  1.00  0.00     0.095 A 
HETATM   24  C10 UNK     1       9.661   6.161   6.960  1.00  0.00     0.078 A 
HETATM   25  O1  UNK     1       8.481   6.368   7.607  1.00  0.00    -0.294 OA
HETATM   26  C16 UNK     1       9.705   6.481   5.530  1.00  0.00     0.079 C 
HETATM   27  C13 UNK     1       8.747   5.988   8.886  1.00  0.00     0.180 A 
HETATM   28  N3  UNK     1       9.971   5.564   9.106  1.00  0.00    -0.224 NA
BRANCH  27  29
HETATM   29  C17 UNK     1       7.646   6.109   9.802  1.00  0.00     0.024 A 
HETATM   30  C21 UNK     1       7.374   7.318  10.444  1.00  0.00    -0.047 A 
HETATM   31  C24 UNK     1       6.300   7.410  11.329  1.00  0.00     0.008 A 
HETATM   32  C25 UNK     1       8.210   8.534  10.209  1.00  0.00     0.049 C 
HETATM   33  C26 UNK     1       5.499   6.294  11.572  1.00  0.00     0.007 A 
HETATM   34  C23 UNK     1       5.771   5.086  10.930  1.00  0.00    -0.061 A 
HETATM   35  C22 UNK     1       6.845   4.994  10.046  1.00  0.00     0.023 A 
HETATM   36  C28 UNK     1       4.914   3.894  11.191  1.00  0.00     0.048 C 
ENDBRANCH  27  29
ENDBRANCH  22  23
ENDBRANCH   2  22
TORSDOF 7
ENDMDL
MODEL 10
REMARK VINA RESULT:      -9.0      2.664      5.026
REMARK  7 active torsions:
REMARK  status: ('A' for Active; 'I' for Inactive)
REMARK    1  A    between atoms: C19_26  and  O3_3 
REMARK    2  A    between atoms: C27_34  and  O3_3 
REMARK    3  A    between atoms: C5_12  and  N1_5 
REMARK    4  A    between atoms: C6_13  and  N2_6 
REMARK    5  A    between atoms: C5_12  and  C7_14 
REMARK    6  A    between atoms: C6_13  and  C8_15 
REMARK    7  A    between atoms: C13_20  and  C17_24 
ROOT
HETATM    1  N1  UNK     1      26.766  -9.361  37.573  1.00  0.00     0.096 N 
HETATM    2  N2  UNK     1      29.585  -8.985  38.091  1.00  0.00     0.097 N 
HETATM    3  C1  UNK     1      27.301  -9.402  38.939  1.00  0.00     0.303 C 
HETATM    4  C2  UNK     1      27.586  -8.485  36.727  1.00  0.00     0.303 C 
HETATM    5  C3  UNK     1      28.764  -9.861  38.937  1.00  0.00     0.303 C 
HETATM    6  C4  UNK     1      29.049  -8.942  36.725  1.00  0.00     0.303 C 
ENDROOT
BRANCH   1   7
HETATM    7  C5  UNK     1      25.371  -8.922  37.575  1.00  0.00     0.312 C 
BRANCH   7   8
HETATM    8  C7  UNK     1      24.492  -9.842  36.799  1.00  0.00    -0.011 A 
HETATM    9  C11 UNK     1      24.957 -11.006  36.324  1.00  0.00     0.092 A 
HETATM   10  C15 UNK     1      24.127 -11.946  35.552  1.00  0.00     0.288 A 
HETATM   11  O2  UNK     1      22.810 -11.575  35.327  1.00  0.00    -0.275 OA
HETATM   12  O4  UNK     1      24.586 -13.003  35.133  1.00  0.00    -0.260 OA
HETATM   13  C12 UNK     1      22.294 -10.357  35.813  1.00  0.00     0.090 A 
HETATM   14  C9  UNK     1      23.092  -9.476  36.543  1.00  0.00     0.009 A 
HETATM   15  C18 UNK     1      20.955 -10.088  35.526  1.00  0.00     0.041 A 
HETATM   16  C14 UNK     1      22.505  -8.285  36.990  1.00  0.00     0.051 A 
HETATM   17  C19 UNK     1      21.164  -8.000  36.710  1.00  0.00     0.069 A 
HETATM   18  C20 UNK     1      20.390  -8.900  35.979  1.00  0.00     0.039 A 
BRANCH  17  19
HETATM   19  O3  UNK     1      20.611  -6.837  37.154  1.00  0.00    -0.351 OA
BRANCH  19  20
HETATM   20  C27 UNK     1      21.051  -6.353  38.422  1.00  0.00     0.171 C 
HETATM   21  C29 UNK     1      20.067  -6.792  39.485  1.00  0.00     0.034 C 
ENDBRANCH  19  20
ENDBRANCH  17  19
ENDBRANCH   7   8
ENDBRANCH   1   7
BRANCH   2  22
HETATM   22  C6  UNK     1      30.978  -9.425  38.089  1.00  0.00     0.334 C 
BRANCH  22  23
HETATM   23  C8  UNK     1      31.800  -8.454  37.303  1.00  0.00     0.095 A 
HETATM   24  C10 UNK     1      31.962  -7.105  37.496  1.00  0.00     0.078 A 
HETATM   25  O1  UNK     1      32.804  -6.642  36.531  1.00  0.00    -0.294 OA
HETATM   26  C16 UNK     1      31.451  -6.127  38.461  1.00  0.00     0.079 C 
HETATM   27  C13 UNK     1      33.101  -7.755  35.806  1.00  0.00     0.180 A 
HETATM   28  N3  UNK     1      32.533  -8.865  36.218  1.00  0.00    -0.224 NA
BRANCH  27  29
HETATM   29  C17 UNK     1      33.993  -7.545  34.699  1.00  0.00     0.024 A 
HETATM   30  C21 UNK     1      33.505  -7.371  33.404  1.00  0.00    -0.047 A 
HETATM   31  C24 UNK     1      34.390  -7.169  32.346  1.00  0.00     0.008 A 
HETATM   32  C25 UNK     1      32.039  -7.395  33.111  1.00  0.00     0.049 C 
HETATM   33  C26 UNK     1      35.765  -7.140  32.584  1.00  0.00     0.007 A 
HETATM   34  C23 UNK     1      36.254  -7.314  33.879  1.00  0.00    -0.061 A 
HETATM   35  C22 UNK     1      35.367  -7.516  34.936  1.00  0.00     0.023 A 
HETATM   36  C28 UNK     1      37.723  -7.282  34.131  1.00  0.00     0.048 C 
ENDBRANCH  27  29
ENDBRANCH  22  23
ENDBRANCH   2  22
TORSDOF 7
ENDMDL
