MODEL 1
REMARK VINA RESULT:     -10.3      0.000      0.000
REMARK  3 active torsions:
REMARK  status: ('A' for Active; 'I' for Inactive)
REMARK    1  A    between atoms: C7_14  and  N1_6 
REMARK       I    between atoms: C9_16  and  N1_6 
REMARK       I    between atoms: C8_15  and  N2_7 
REMARK    2  A    between atoms: C6_13  and  C8_15 
REMARK    3  A    between atoms: C10_17  and  C9_16 
ROOT
HETATM    1  O3  UNK     1      21.362  -4.407  36.873  1.00  0.00    -0.267 OA
HETATM    2  N1  UNK     1      19.089  -5.031  36.996  1.00  0.00    -0.316 N 
HETATM    3  C9  UNK     1      20.159  -4.171  36.788  1.00  0.00     0.262 C 
HETATM    4  H7  UNK     1      18.142  -4.689  36.866  1.00  0.00     0.169 HD
ENDROOT
BRANCH   2   5
HETATM    5  C7  UNK     1      19.173  -6.360  37.351  1.00  0.00     0.093 A 
HETATM    6  C6  UNK     1      18.790  -7.512  36.681  1.00  0.00     0.073 A 
HETATM    7  C3  UNK     1      19.081  -8.654  37.457  1.00  0.00    -0.026 A 
HETATM    8  C1  UNK     1      18.921 -10.120  37.311  1.00  0.00     0.041 C 
HETATM    9  C5  UNK     1      19.659  -8.334  38.654  1.00  0.00    -0.008 A 
HETATM   10  C2  UNK     1      19.815 -10.667  38.469  1.00  0.00     0.010 C 
HETATM   11  C4  UNK     1      19.980  -9.507  39.501  1.00  0.00     0.047 C 
HETATM   12  S1  UNK     1      19.873  -6.694  38.899  1.00  0.00    -0.075 SA
BRANCH   6  13
HETATM   13  C8  UNK     1      18.182  -7.507  35.376  1.00  0.00     0.252 C 
HETATM   14  O1  UNK     1      18.817  -7.276  34.328  1.00  0.00    -0.268 OA
HETATM   15  N2  UNK     1      16.822  -7.804  35.296  1.00  0.00    -0.366 N 
HETATM   16  H8  UNK     1      16.204  -7.948  36.080  1.00  0.00     0.159 HD
HETATM   17  H9  UNK     1      16.372  -7.831  34.387  1.00  0.00     0.159 HD
ENDBRANCH   6  13
ENDBRANCH   2   5
BRANCH   3  18
HETATM   18  C10 UNK     1      19.711  -2.821  36.421  1.00  0.00     0.108 A 
HETATM   19  C12 UNK     1      19.000  -2.162  37.343  1.00  0.00     0.037 A 
HETATM   20  C11 UNK     1      18.512  -0.819  37.072  1.00  0.00    -0.001 A 
HETATM   21  C13 UNK     1      18.796  -0.237  35.840  1.00  0.00     0.089 A 
HETATM   22  C15 UNK     1      17.767  -0.094  38.005  1.00  0.00     0.014 A 
HETATM   23  O2  UNK     1      19.544  -0.936  34.874  1.00  0.00    -0.274 OA
HETATM   24  C16 UNK     1      18.356   1.045  35.516  1.00  0.00     0.038 A 
HETATM   25  C14 UNK     1      20.025  -2.222  35.105  1.00  0.00     0.304 A 
HETATM   26  O4  UNK     1      20.675  -2.823  34.257  1.00  0.00    -0.259 OA
HETATM   27  C18 UNK     1      17.614   1.761  36.452  1.00  0.00     0.003 A 
HETATM   28  C17 UNK     1      17.320   1.193  37.694  1.00  0.00     0.001 A 
ENDBRANCH   3  18
TORSDOF 3
ENDMDL
MODEL 2
REMARK VINA RESULT:     -10.2      1.795      7.751
REMARK  3 active torsions:
REMARK  status: ('A' for Active; 'I' for Inactive)
REMARK    1  A    between atoms: C7_14  and  N1_6 
REMARK       I    between atoms: C9_16  and  N1_6 
REMARK       I    between atoms: C8_15  and  N2_7 
REMARK    2  A    between atoms: C6_13  and  C8_15 
REMARK    3  A    between atoms: C10_17  and  C9_16 
ROOT
HETATM    1  O3  UNK     1      21.301  -3.870  37.229  1.00  0.00    -0.267 OA
HETATM    2  N1  UNK     1      19.037  -3.777  36.566  1.00  0.00    -0.316 N 
HETATM    3  C9  UNK     1      20.233  -4.392  36.912  1.00  0.00     0.262 C 
HETATM    4  H7  UNK     1      18.227  -4.350  36.347  1.00  0.00     0.169 HD
ENDROOT
BRANCH   2   5
HETATM    5  C7  UNK     1      18.810  -2.419  36.505  1.00  0.00     0.093 A 
HETATM    6  C6  UNK     1      19.077  -1.490  35.510  1.00  0.00     0.073 A 
HETATM    7  C3  UNK     1      18.659  -0.204  35.911  1.00  0.00    -0.026 A 
HETATM    8  C1  UNK     1      18.666   1.158  35.326  1.00  0.00     0.041 C 
HETATM    9  C5  UNK     1      18.105  -0.205  37.161  1.00  0.00    -0.008 A 
HETATM   10  C2  UNK     1      17.706   1.933  36.283  1.00  0.00     0.010 C 
HETATM   11  C4  UNK     1      17.652   1.129  37.620  1.00  0.00     0.047 C 
HETATM   12  S1  UNK     1      18.061  -1.706  37.894  1.00  0.00    -0.075 SA
BRANCH   6  13
HETATM   13  C8  UNK     1      19.698  -1.827  34.255  1.00  0.00     0.252 C 
HETATM   14  O1  UNK     1      20.832  -2.337  34.170  1.00  0.00    -0.268 OA
HETATM   15  N2  UNK     1      18.969  -1.591  33.090  1.00  0.00    -0.366 N 
HETATM   16  H8  UNK     1      18.071  -1.131  33.040  1.00  0.00     0.159 HD
HETATM   17  H9  UNK     1      19.371  -1.840  32.193  1.00  0.00     0.159 HD
ENDBRANCH   6  13
ENDBRANCH   2   5
BRANCH   3  18
HETATM   18  C10 UNK     1      20.126  -5.855  36.875  1.00  0.00     0.108 A 
HETATM   19  C12 UNK     1      19.996  -6.470  38.057  1.00  0.00     0.037 A 
HETATM   20  C11 UNK     1      19.883  -7.918  38.122  1.00  0.00    -0.001 A 
HETATM   21  C13 UNK     1      19.915  -8.650  36.938  1.00  0.00     0.089 A 
HETATM   22  C15 UNK     1      19.744  -8.601  39.333  1.00  0.00     0.014 A 
HETATM   23  O2  UNK     1      20.054  -7.997  35.698  1.00  0.00    -0.274 OA
HETATM   24  C16 UNK     1      19.814 -10.039  36.932  1.00  0.00     0.038 A 
HETATM   25  C14 UNK     1      20.163  -6.613  35.604  1.00  0.00     0.304 A 
HETATM   26  O4  UNK     1      20.284  -6.053  34.519  1.00  0.00    -0.259 OA
HETATM   27  C18 UNK     1      19.677 -10.712  38.143  1.00  0.00     0.003 A 
HETATM   28  C17 UNK     1      19.641  -9.995  39.341  1.00  0.00     0.001 A 
ENDBRANCH   3  18
TORSDOF 3
ENDMDL
MODEL 3
REMARK VINA RESULT:      -9.6      8.821     12.737
REMARK  3 active torsions:
REMARK  status: ('A' for Active; 'I' for Inactive)
REMARK    1  A    between atoms: C7_14  and  N1_6 
REMARK       I    between atoms: C9_16  and  N1_6 
REMARK       I    between atoms: C8_15  and  N2_7 
REMARK    2  A    between atoms: C6_13  and  C8_15 
REMARK    3  A    between atoms: C10_17  and  C9_16 
ROOT
HETATM    1  O3  UNK     1      17.581   3.670  32.708  1.00  0.00    -0.267 OA
HETATM    2  N1  UNK     1      19.222   4.936  31.580  1.00  0.00    -0.316 N 
HETATM    3  C9  UNK     1      18.445   3.817  31.846  1.00  0.00     0.262 C 
HETATM    4  H7  UNK     1      19.887   4.911  30.813  1.00  0.00     0.169 HD
ENDROOT
BRANCH   2   5
HETATM    5  C7  UNK     1      19.174   6.138  32.255  1.00  0.00     0.093 A 
HETATM    6  C6  UNK     1      18.183   7.104  32.333  1.00  0.00     0.073 A 
HETATM    7  C3  UNK     1      18.598   8.172  33.155  1.00  0.00    -0.026 A 
HETATM    8  C1  UNK     1      18.023   9.457  33.618  1.00  0.00     0.041 C 
HETATM    9  C5  UNK     1      19.855   7.981  33.658  1.00  0.00    -0.008 A 
HETATM   10  C2  UNK     1      18.999   9.860  34.769  1.00  0.00     0.010 C 
HETATM   11  C4  UNK     1      20.331   9.082  34.528  1.00  0.00     0.047 C 
HETATM   12  S1  UNK     1      20.579   6.552  33.179  1.00  0.00    -0.075 SA
BRANCH   6  13
HETATM   13  C8  UNK     1      16.917   7.000  31.655  1.00  0.00     0.252 C 
HETATM   14  O1  UNK     1      15.938   6.388  32.126  1.00  0.00    -0.268 OA
HETATM   15  N2  UNK     1      16.788   7.644  30.424  1.00  0.00    -0.366 N 
HETATM   16  H8  UNK     1      17.528   8.115  29.926  1.00  0.00     0.159 HD
HETATM   17  H9  UNK     1      15.900   7.607  29.935  1.00  0.00     0.159 HD
ENDBRANCH   6  13
ENDBRANCH   2   5
BRANCH   3  18
HETATM   18  C10 UNK     1      18.754   2.708  30.936  1.00  0.00     0.108 A 
HETATM   19  C12 UNK     1      19.178   1.574  31.507  1.00  0.00     0.037 A 
HETATM   20  C11 UNK     1      19.510   0.419  30.688  1.00  0.00    -0.001 A 
HETATM   21  C13 UNK     1      19.381   0.516  29.305  1.00  0.00     0.089 A 
HETATM   22  C15 UNK     1      19.954  -0.784  31.241  1.00  0.00     0.014 A 
HETATM   23  O2  UNK     1      18.936   1.712  28.710  1.00  0.00    -0.274 OA
HETATM   24  C16 UNK     1      19.684  -0.553  28.464  1.00  0.00     0.038 A 
HETATM   25  C14 UNK     1      18.610   2.834  29.468  1.00  0.00     0.304 A 
HETATM   26  O4  UNK     1      18.224   3.871  28.941  1.00  0.00    -0.259 OA
HETATM   27  C18 UNK     1      20.127  -1.748  29.023  1.00  0.00     0.003 A 
HETATM   28  C17 UNK     1      20.261  -1.865  30.409  1.00  0.00     0.001 A 
ENDBRANCH   3  18
TORSDOF 3
ENDMDL
MODEL 4
REMARK VINA RESULT:      -9.6     20.052     22.410
REMARK  3 active torsions:
REMARK  status: ('A' for Active; 'I' for Inactive)
REMARK    1  A    between atoms: C7_14  and  N1_6 
REMARK       I    between atoms: C9_16  and  N1_6 
REMARK       I    between atoms: C8_15  and  N2_7 
REMARK    2  A    between atoms: C6_13  and  C8_15 
REMARK    3  A    between atoms: C10_17  and  C9_16 
ROOT
HETATM    1  O3  UNK     1      17.177  -2.105  16.572  1.00  0.00    -0.267 OA
HETATM    2  N1  UNK     1      19.222  -0.973  16.240  1.00  0.00    -0.316 N 
HETATM    3  C9  UNK     1      18.199  -1.860  15.933  1.00  0.00     0.262 C 
HETATM    4  H7  UNK     1      19.999  -0.865  15.596  1.00  0.00     0.169 HD
ENDROOT
BRANCH   2   5
HETATM    5  C7  UNK     1      19.292  -0.170  17.359  1.00  0.00     0.093 A 
HETATM    6  C6  UNK     1      19.353   1.209  17.493  1.00  0.00     0.073 A 
HETATM    7  C3  UNK     1      19.413   1.570  18.855  1.00  0.00    -0.026 A 
HETATM    8  C1  UNK     1      19.493   2.832  19.628  1.00  0.00     0.041 C 
HETATM    9  C5  UNK     1      19.396   0.481  19.682  1.00  0.00    -0.008 A 
HETATM   10  C2  UNK     1      19.169   2.351  21.079  1.00  0.00     0.010 C 
HETATM   11  C4  UNK     1      19.458   0.818  21.123  1.00  0.00     0.047 C 
HETATM   12  S1  UNK     1      19.310  -0.986  18.886  1.00  0.00    -0.075 SA
BRANCH   6  13
HETATM   13  C8  UNK     1      19.353   2.116  16.375  1.00  0.00     0.252 C 
HETATM   14  O1  UNK     1      19.699   1.781  15.224  1.00  0.00    -0.268 OA
HETATM   15  N2  UNK     1      18.917   3.421  16.601  1.00  0.00    -0.366 N 
HETATM   16  H8  UNK     1      18.671   3.812  17.498  1.00  0.00     0.159 HD
HETATM   17  H9  UNK     1      18.884   4.076  15.826  1.00  0.00     0.159 HD
ENDBRANCH   6  13
ENDBRANCH   2   5
BRANCH   3  18
HETATM   18  C10 UNK     1      18.443  -2.557  14.664  1.00  0.00     0.108 A 
HETATM   19  C12 UNK     1      18.317  -3.889  14.687  1.00  0.00     0.037 A 
HETATM   20  C11 UNK     1      18.539  -4.668  13.479  1.00  0.00    -0.001 A 
HETATM   21  C13 UNK     1      18.886  -4.005  12.305  1.00  0.00     0.089 A 
HETATM   22  C15 UNK     1      18.417  -6.059  13.456  1.00  0.00     0.014 A 
HETATM   23  O2  UNK     1      19.018  -2.603  12.288  1.00  0.00    -0.274 OA
HETATM   24  C16 UNK     1      19.114  -4.692  11.115  1.00  0.00     0.038 A 
HETATM   25  C14 UNK     1      18.811  -1.831  13.428  1.00  0.00     0.304 A 
HETATM   26  O4  UNK     1      18.930  -0.611  13.404  1.00  0.00    -0.259 OA
HETATM   27  C18 UNK     1      18.991  -6.079  11.101  1.00  0.00     0.003 A 
HETATM   28  C17 UNK     1      18.642  -6.761  12.269  1.00  0.00     0.001 A 
ENDBRANCH   3  18
TORSDOF 3
ENDMDL
MODEL 5
REMARK VINA RESULT:      -9.5      2.335      3.482
REMARK  3 active torsions:
REMARK  status: ('A' for Active; 'I' for Inactive)
REMARK    1  A    between atoms: C7_14  and  N1_6 
REMARK       I    between atoms: C9_16  and  N1_6 
REMARK       I    between atoms: C8_15  and  N2_7 
REMARK    2  A    between atoms: C6_13  and  C8_15 
REMARK    3  A    between atoms: C10_17  and  C9_16 
ROOT
HETATM    1  O3  UNK     1      19.728  -2.521  37.549  1.00  0.00    -0.267 OA
HETATM    2  N1  UNK     1      19.869  -4.385  36.108  1.00  0.00    -0.316 N 
HETATM    3  C9  UNK     1      19.721  -3.045  36.436  1.00  0.00     0.262 C 
HETATM    4  H7  UNK     1      19.861  -4.663  35.131  1.00  0.00     0.169 HD
ENDROOT
BRANCH   2   5
HETATM    5  C7  UNK     1      20.057  -5.423  36.996  1.00  0.00     0.093 A 
HETATM    6  C6  UNK     1      19.265  -6.519  37.303  1.00  0.00     0.073 A 
HETATM    7  C3  UNK     1      19.885  -7.315  38.288  1.00  0.00    -0.026 A 
HETATM    8  C1  UNK     1      19.566  -8.567  39.014  1.00  0.00     0.041 C 
HETATM    9  C5  UNK     1      21.093  -6.808  38.681  1.00  0.00    -0.008 A 
HETATM   10  C2  UNK     1      20.938  -8.931  39.666  1.00  0.00     0.010 C 
HETATM   11  C4  UNK     1      21.778  -7.616  39.716  1.00  0.00     0.047 C 
HETATM   12  S1  UNK     1      21.528  -5.390  37.909  1.00  0.00    -0.075 SA
BRANCH   6  13
HETATM   13  C8  UNK     1      17.991  -6.776  36.684  1.00  0.00     0.252 C 
HETATM   14  O1  UNK     1      17.043  -5.966  36.709  1.00  0.00    -0.268 OA
HETATM   15  N2  UNK     1      17.836  -7.984  36.002  1.00  0.00    -0.366 N 
HETATM   16  H8  UNK     1      18.513  -8.731  35.969  1.00  0.00     0.159 HD
HETATM   17  H9  UNK     1      16.957  -8.182  35.536  1.00  0.00     0.159 HD
ENDBRANCH   6  13
ENDBRANCH   2   5
BRANCH   3  18
HETATM   18  C10 UNK     1      19.538  -2.207  35.244  1.00  0.00     0.108 A 
HETATM   19  C12 UNK     1      20.146  -2.626  34.128  1.00  0.00     0.037 A 
HETATM   20  C11 UNK     1      20.024  -1.863  32.896  1.00  0.00    -0.001 A 
HETATM   21  C13 UNK     1      19.269  -0.694  32.900  1.00  0.00     0.089 A 
HETATM   22  C15 UNK     1      20.640  -2.263  31.708  1.00  0.00     0.014 A 
HETATM   23  O2  UNK     1      18.633  -0.258  34.079  1.00  0.00    -0.274 OA
HETATM   24  C16 UNK     1      19.114   0.084  31.755  1.00  0.00     0.038 A 
HETATM   25  C14 UNK     1      18.730  -0.967  35.273  1.00  0.00     0.304 A 
HETATM   26  O4  UNK     1      18.173  -0.579  36.294  1.00  0.00    -0.259 OA
HETATM   27  C18 UNK     1      19.731  -0.322  30.574  1.00  0.00     0.003 A 
HETATM   28  C17 UNK     1      20.493  -1.493  30.550  1.00  0.00     0.001 A 
ENDBRANCH   3  18
TORSDOF 3
ENDMDL
MODEL 6
REMARK VINA RESULT:      -9.4      1.930      2.307
REMARK  3 active torsions:
REMARK  status: ('A' for Active; 'I' for Inactive)
REMARK    1  A    between atoms: C7_14  and  N1_6 
REMARK       I    between atoms: C9_16  and  N1_6 
REMARK       I    between atoms: C8_15  and  N2_7 
REMARK    2  A    between atoms: C6_13  and  C8_15 
REMARK    3  A    between atoms: C10_17  and  C9_16 
ROOT
HETATM    1  O3  UNK     1      21.308  -4.358  37.173  1.00  0.00    -0.267 OA
HETATM    2  N1  UNK     1      19.846  -5.417  35.652  1.00  0.00    -0.316 N 
HETATM    3  C9  UNK     1      20.406  -4.348  36.337  1.00  0.00     0.262 C 
HETATM    4  H7  UNK     1      19.114  -5.245  34.969  1.00  0.00     0.169 HD
ENDROOT
BRANCH   2   5
HETATM    5  C7  UNK     1      20.204  -6.742  35.783  1.00  0.00     0.093 A 
HETATM    6  C6  UNK     1      20.062  -7.628  36.840  1.00  0.00     0.073 A 
HETATM    7  C3  UNK     1      20.586  -8.892  36.499  1.00  0.00    -0.026 A 
HETATM    8  C1  UNK     1      20.734 -10.208  37.164  1.00  0.00     0.041 C 
HETATM    9  C5  UNK     1      21.093  -8.918  35.230  1.00  0.00    -0.008 A 
HETATM   10  C2  UNK     1      21.100 -11.144  35.968  1.00  0.00     0.010 C 
HETATM   11  C4  UNK     1      21.656 -10.229  34.831  1.00  0.00     0.047 C 
HETATM   12  S1  UNK     1      20.969  -7.467  34.409  1.00  0.00    -0.075 SA
BRANCH   6  13
HETATM   13  C8  UNK     1      19.458  -7.273  38.098  1.00  0.00     0.252 C 
HETATM   14  O1  UNK     1      20.115  -7.071  39.139  1.00  0.00    -0.268 OA
HETATM   15  N2  UNK     1      18.071  -7.123  38.130  1.00  0.00    -0.366 N 
HETATM   16  H8  UNK     1      17.441  -7.317  37.366  1.00  0.00     0.159 HD
HETATM   17  H9  UNK     1      17.621  -6.850  38.997  1.00  0.00     0.159 HD
ENDBRANCH   6  13
ENDBRANCH   2   5
BRANCH   3  18
HETATM   18  C10 UNK     1      19.788  -3.072  35.956  1.00  0.00     0.108 A 
HETATM   19  C12 UNK     1      19.022  -2.485  36.885  1.00  0.00     0.037 A 
HETATM   20  C11 UNK     1      18.367  -1.218  36.601  1.00  0.00    -0.001 A 
HETATM   21  C13 UNK     1      18.548  -0.631  35.352  1.00  0.00     0.089 A 
HETATM   22  C15 UNK     1      17.561  -0.570  37.540  1.00  0.00     0.014 A 
HETATM   23  O2  UNK     1      19.354  -1.254  34.380  1.00  0.00    -0.274 OA
HETATM   24  C16 UNK     1      17.947   0.580  35.017  1.00  0.00     0.038 A 
HETATM   25  C14 UNK     1      19.994  -2.466  34.622  1.00  0.00     0.304 A 
HETATM   26  O4  UNK     1      20.693  -3.002  33.768  1.00  0.00    -0.259 OA
HETATM   27  C18 UNK     1      17.145   1.220  35.958  1.00  0.00     0.003 A 
HETATM   28  C17 UNK     1      16.952   0.647  37.217  1.00  0.00     0.001 A 
ENDBRANCH   3  18
TORSDOF 3
ENDMDL
MODEL 7
REMARK VINA RESULT:      -9.4      8.706     12.667
REMARK  3 active torsions:
REMARK  status: ('A' for Active; 'I' for Inactive)
REMARK    1  A    between atoms: C7_14  and  N1_6 
REMARK       I    between atoms: C9_16  and  N1_6 
REMARK       I    between atoms: C8_15  and  N2_7 
REMARK    2  A    between atoms: C6_13  and  C8_15 
REMARK    3  A    between atoms: C10_17  and  C9_16 
ROOT
HETATM    1  O3  UNK     1      17.878   3.275  33.192  1.00  0.00    -0.267 OA
HETATM    2  N1  UNK     1      18.171   4.831  31.441  1.00  0.00    -0.316 N 
HETATM    3  C9  UNK     1      18.179   3.578  32.038  1.00  0.00     0.262 C 
HETATM    4  H7  UNK     1      18.428   4.919  30.463  1.00  0.00     0.169 HD
ENDROOT
BRANCH   2   5
HETATM    5  C7  UNK     1      17.813   6.017  32.047  1.00  0.00     0.093 A 
HETATM    6  C6  UNK     1      18.465   6.794  32.992  1.00  0.00     0.073 A 
HETATM    7  C3  UNK     1      17.696   7.933  33.310  1.00  0.00    -0.026 A 
HETATM    8  C1  UNK     1      17.830   9.102  34.211  1.00  0.00     0.041 C 
HETATM    9  C5  UNK     1      16.521   7.976  32.613  1.00  0.00    -0.008 A 
HETATM   10  C2  UNK     1      16.702  10.050  33.694  1.00  0.00     0.010 C 
HETATM   11  C4  UNK     1      15.682   9.158  32.919  1.00  0.00     0.047 C 
HETATM   12  S1  UNK     1      16.289   6.688  31.573  1.00  0.00    -0.075 SA
BRANCH   6  13
HETATM   13  C8  UNK     1      19.748   6.455  33.551  1.00  0.00     0.252 C 
HETATM   14  O1  UNK     1      20.819   6.957  33.155  1.00  0.00    -0.268 OA
HETATM   15  N2  UNK     1      19.774   5.541  34.603  1.00  0.00    -0.366 N 
HETATM   16  H8  UNK     1      18.978   5.034  34.962  1.00  0.00     0.159 HD
HETATM   17  H9  UNK     1      20.662   5.302  35.032  1.00  0.00     0.159 HD
ENDBRANCH   6  13
ENDBRANCH   2   5
BRANCH   3  18
HETATM   18  C10 UNK     1      18.614   2.531  31.105  1.00  0.00     0.108 A 
HETATM   19  C12 UNK     1      19.008   1.376  31.655  1.00  0.00     0.037 A 
HETATM   20  C11 UNK     1      19.457   0.279  30.812  1.00  0.00    -0.001 A 
HETATM   21  C13 UNK     1      19.470   0.453  29.431  1.00  0.00     0.089 A 
HETATM   22  C15 UNK     1      19.876  -0.944  31.341  1.00  0.00     0.014 A 
HETATM   23  O2  UNK     1      19.056   1.671  28.860  1.00  0.00    -0.274 OA
HETATM   24  C16 UNK     1      19.891  -0.558  28.569  1.00  0.00     0.038 A 
HETATM   25  C14 UNK     1      18.620   2.739  29.640  1.00  0.00     0.304 A 
HETATM   26  O4  UNK     1      18.262   3.796  29.134  1.00  0.00    -0.259 OA
HETATM   27  C18 UNK     1      20.307  -1.774  29.105  1.00  0.00     0.003 A 
HETATM   28  C17 UNK     1      20.299  -1.967  30.488  1.00  0.00     0.001 A 
ENDBRANCH   3  18
TORSDOF 3
ENDMDL
MODEL 8
REMARK VINA RESULT:      -9.4      8.276     12.874
REMARK  3 active torsions:
REMARK  status: ('A' for Active; 'I' for Inactive)
REMARK    1  A    between atoms: C7_14  and  N1_6 
REMARK       I    between atoms: C9_16  and  N1_6 
REMARK       I    between atoms: C8_15  and  N2_7 
REMARK    2  A    between atoms: C6_13  and  C8_15 
REMARK    3  A    between atoms: C10_17  and  C9_16 
ROOT
HETATM    1  O3  UNK     1      18.646   5.192  30.565  1.00  0.00    -0.267 OA
HETATM    2  N1  UNK     1      17.532   4.905  32.626  1.00  0.00    -0.316 N 
HETATM    3  C9  UNK     1      18.258   4.509  31.512  1.00  0.00     0.262 C 
HETATM    4  H7  UNK     1      17.302   4.221  33.341  1.00  0.00     0.169 HD
ENDROOT
BRANCH   2   5
HETATM    5  C7  UNK     1      17.088   6.182  32.895  1.00  0.00     0.093 A 
HETATM    6  C6  UNK     1      17.699   7.246  33.540  1.00  0.00     0.073 A 
HETATM    7  C3  UNK     1      16.839   8.363  33.573  1.00  0.00    -0.026 A 
HETATM    8  C1  UNK     1      16.896   9.748  34.098  1.00  0.00     0.041 C 
HETATM    9  C5  UNK     1      15.639   8.113  32.966  1.00  0.00    -0.008 A 
HETATM   10  C2  UNK     1      15.666  10.416  33.407  1.00  0.00     0.010 C 
HETATM   11  C4  UNK     1      14.705   9.262  32.979  1.00  0.00     0.047 C 
HETATM   12  S1  UNK     1      15.491   6.567  32.347  1.00  0.00    -0.075 SA
BRANCH   6  13
HETATM   13  C8  UNK     1      19.028   7.184  34.090  1.00  0.00     0.252 C 
HETATM   14  O1  UNK     1      20.036   6.909  33.410  1.00  0.00    -0.268 OA
HETATM   15  N2  UNK     1      19.181   7.476  35.445  1.00  0.00    -0.366 N 
HETATM   16  H8  UNK     1      18.432   7.654  36.097  1.00  0.00     0.159 HD
HETATM   17  H9  UNK     1      20.110   7.463  35.855  1.00  0.00     0.159 HD
ENDBRANCH   6  13
ENDBRANCH   2   5
BRANCH   3  18
HETATM   18  C10 UNK     1      18.567   3.074  31.542  1.00  0.00     0.108 A 
HETATM   19  C12 UNK     1      19.030   2.544  30.403  1.00  0.00     0.037 A 
HETATM   20  C11 UNK     1      19.363   1.130  30.334  1.00  0.00    -0.001 A 
HETATM   21  C13 UNK     1      19.191   0.342  31.469  1.00  0.00     0.089 A 
HETATM   22  C15 UNK     1      19.850   0.536  29.168  1.00  0.00     0.014 A 
HETATM   23  O2  UNK     1      18.703   0.906  32.663  1.00  0.00    -0.274 OA
HETATM   24  C16 UNK     1      19.490  -1.018  31.469  1.00  0.00     0.038 A 
HETATM   25  C14 UNK     1      18.376   2.255  32.760  1.00  0.00     0.304 A 
HETATM   26  O4  UNK     1      17.951   2.737  33.804  1.00  0.00    -0.259 OA
HETATM   27  C18 UNK     1      19.974  -1.604  30.302  1.00  0.00     0.003 A 
HETATM   28  C17 UNK     1      20.155  -0.829  29.153  1.00  0.00     0.001 A 
ENDBRANCH   3  18
TORSDOF 3
ENDMDL
MODEL 9
REMARK VINA RESULT:      -9.2     20.128     21.862
REMARK  3 active torsions:
REMARK  status: ('A' for Active; 'I' for Inactive)
REMARK    1  A    between atoms: C7_14  and  N1_6 
REMARK       I    between atoms: C9_16  and  N1_6 
REMARK       I    between atoms: C8_15  and  N2_7 
REMARK    2  A    between atoms: C6_13  and  C8_15 
REMARK    3  A    between atoms: C10_17  and  C9_16 
ROOT
HETATM    1  O3  UNK     1      17.946  -2.240  15.957  1.00  0.00    -0.267 OA
HETATM    2  N1  UNK     1      19.731  -1.325  14.712  1.00  0.00    -0.316 N 
HETATM    3  C9  UNK     1      18.834  -1.410  15.768  1.00  0.00     0.262 C 
HETATM    4  H7  UNK     1      20.428  -0.586  14.707  1.00  0.00     0.169 HD
ENDROOT
BRANCH   2   5
HETATM    5  C7  UNK     1      19.800  -2.182  13.634  1.00  0.00     0.093 A 
HETATM    6  C6  UNK     1      20.202  -3.506  13.543  1.00  0.00     0.073 A 
HETATM    7  C3  UNK     1      20.098  -3.963  12.213  1.00  0.00    -0.026 A 
HETATM    8  C1  UNK     1      20.365  -5.228  11.488  1.00  0.00     0.041 C 
HETATM    9  C5  UNK     1      19.633  -2.995  11.367  1.00  0.00    -0.008 A 
HETATM   10  C2  UNK     1      19.656  -4.980  10.119  1.00  0.00     0.010 C 
HETATM   11  C4  UNK     1      19.509  -3.434   9.957  1.00  0.00     0.047 C 
HETATM   12  S1  UNK     1      19.309  -1.531  12.107  1.00  0.00    -0.075 SA
BRANCH   6  13
HETATM   13  C8  UNK     1      20.658  -4.277  14.671  1.00  0.00     0.252 C 
HETATM   14  O1  UNK     1      21.857  -4.355  15.005  1.00  0.00    -0.268 OA
HETATM   15  N2  UNK     1      19.695  -4.941  15.431  1.00  0.00    -0.366 N 
HETATM   16  H8  UNK     1      18.711  -4.993  15.218  1.00  0.00     0.159 HD
HETATM   17  H9  UNK     1      19.985  -5.473  16.245  1.00  0.00     0.159 HD
ENDBRANCH   6  13
ENDBRANCH   2   5
BRANCH   3  18
HETATM   18  C10 UNK     1      19.038  -0.334  16.746  1.00  0.00     0.108 A 
HETATM   19  C12 UNK     1      19.027  -0.696  18.034  1.00  0.00     0.037 A 
HETATM   20  C11 UNK     1      19.220   0.300  19.077  1.00  0.00    -0.001 A 
HETATM   21  C13 UNK     1      19.413   1.629  18.711  1.00  0.00     0.089 A 
HETATM   22  C15 UNK     1      19.218  -0.032  20.434  1.00  0.00     0.014 A 
HETATM   23  O2  UNK     1      19.422   2.003  17.354  1.00  0.00    -0.274 OA
HETATM   24  C16 UNK     1      19.601   2.631  19.661  1.00  0.00     0.038 A 
HETATM   25  C14 UNK     1      19.240   1.073  16.334  1.00  0.00     0.304 A 
HETATM   26  O4  UNK     1      19.249   1.409  15.154  1.00  0.00    -0.259 OA
HETATM   27  C18 UNK     1      19.598   2.291  21.011  1.00  0.00     0.003 A 
HETATM   28  C17 UNK     1      19.407   0.963  21.397  1.00  0.00     0.001 A 
ENDBRANCH   3  18
TORSDOF 3
ENDMDL
MODEL 10
REMARK VINA RESULT:      -9.1      2.606      7.985
REMARK  3 active torsions:
REMARK  status: ('A' for Active; 'I' for Inactive)
REMARK    1  A    between atoms: C7_14  and  N1_6 
REMARK       I    between atoms: C9_16  and  N1_6 
REMARK       I    between atoms: C8_15  and  N2_7 
REMARK    2  A    between atoms: C6_13  and  C8_15 
REMARK    3  A    between atoms: C10_17  and  C9_16 
ROOT
HETATM    1  O3  UNK     1      18.359  -5.400  36.473  1.00  0.00    -0.267 OA
HETATM    2  N1  UNK     1      20.159  -3.874  36.541  1.00  0.00    -0.316 N 
HETATM    3  C9  UNK     1      19.555  -5.124  36.555  1.00  0.00     0.262 C 
HETATM    4  H7  UNK     1      21.171  -3.809  36.596  1.00  0.00     0.169 HD
ENDROOT
BRANCH   2   5
HETATM    5  C7  UNK     1      19.513  -2.661  36.431  1.00  0.00     0.093 A 
HETATM    6  C6  UNK     1      19.394  -1.781  35.367  1.00  0.00     0.073 A 
HETATM    7  C3  UNK     1      18.628  -0.657  35.739  1.00  0.00    -0.026 A 
HETATM    8  C1  UNK     1      18.161   0.589  35.085  1.00  0.00     0.041 C 
HETATM    9  C5  UNK     1      18.205  -0.724  37.038  1.00  0.00    -0.008 A 
HETATM   10  C2  UNK     1      17.088   1.109  36.093  1.00  0.00     0.010 C 
HETATM   11  C4  UNK     1      17.396   0.440  37.469  1.00  0.00     0.047 C 
HETATM   12  S1  UNK     1      18.694  -2.100  37.850  1.00  0.00    -0.075 SA
BRANCH   6  13
HETATM   13  C8  UNK     1      19.985  -2.013  34.074  1.00  0.00     0.252 C 
HETATM   14  O1  UNK     1      21.149  -2.435  33.921  1.00  0.00    -0.268 OA
HETATM   15  N2  UNK     1      19.194  -1.777  32.951  1.00  0.00    -0.366 N 
HETATM   16  H8  UNK     1      18.265  -1.383  32.957  1.00  0.00     0.159 HD
HETATM   17  H9  UNK     1      19.576  -1.955  32.027  1.00  0.00     0.159 HD
ENDBRANCH   6  13
ENDBRANCH   2   5
BRANCH   3  18
HETATM   18  C10 UNK     1      20.539  -6.205  36.685  1.00  0.00     0.108 A 
HETATM   19  C12 UNK     1      20.398  -7.237  35.844  1.00  0.00     0.037 A 
HETATM   20  C11 UNK     1      21.325  -8.357  35.896  1.00  0.00    -0.001 A 
HETATM   21  C13 UNK     1      22.353  -8.337  36.833  1.00  0.00     0.089 A 
HETATM   22  C15 UNK     1      21.217  -9.454  35.038  1.00  0.00     0.014 A 
HETATM   23  O2  UNK     1      22.495  -7.248  37.715  1.00  0.00    -0.274 OA
HETATM   24  C16 UNK     1      23.273  -9.378  36.936  1.00  0.00     0.038 A 
HETATM   25  C14 UNK     1      21.625  -6.162  37.689  1.00  0.00     0.304 A 
HETATM   26  O4  UNK     1      21.756  -5.219  38.462  1.00  0.00    -0.259 OA
HETATM   27  C18 UNK     1      23.158 -10.468  36.077  1.00  0.00     0.003 A 
HETATM   28  C17 UNK     1      22.133 -10.506  35.129  1.00  0.00     0.001 A 
ENDBRANCH   3  18
TORSDOF 3
ENDMDL
