MODEL 1
REMARK VINA RESULT:      -9.0      0.000      0.000
REMARK  4 active torsions:
REMARK  status: ('A' for Active; 'I' for Inactive)
REMARK    1  A    between atoms: N1_7  and  S1_1 
REMARK    2  A    between atoms: C5_14  and  N2_8 
REMARK    3  A    between atoms: C5_14  and  N3_9 
REMARK    4  A    between atoms: C7_16  and  N3_9 
ROOT
HETATM    1  N3  UNK     1      17.554   4.271  31.640  1.00  0.00    -0.333 N 
HETATM    2  H12 UNK     1      16.541   4.271  31.544  1.00  0.00     0.168 HD
ENDROOT
BRANCH   1   3
HETATM    3  C5  UNK     1      18.090   5.446  32.098  1.00  0.00     0.174 C 
HETATM    4  S2  UNK     1      19.679   5.843  31.730  1.00  0.00    -0.041 SA
BRANCH   3   5
HETATM    5  N2  UNK     1      17.320   6.316  32.796  1.00  0.00    -0.356 N 
HETATM    6  C3  UNK     1      16.060   6.820  32.266  1.00  0.00     0.140 C 
HETATM    7  C1  UNK     1      15.983   8.336  32.403  1.00  0.00     0.127 C 
HETATM    8  N1  UNK     1      16.245   8.720  33.825  1.00  0.00    -0.208 NA
HETATM    9  C2  UNK     1      17.587   8.246  34.287  1.00  0.00     0.127 C 
HETATM   10  C4  UNK     1      17.663   6.730  34.150  1.00  0.00     0.140 C 
BRANCH   8  11
HETATM   11  S1  UNK     1      15.862  10.340  34.228  1.00  0.00     0.207 S 
HETATM   12  C6  UNK     1      14.478  10.581  33.144  1.00  0.00     0.180 C 
HETATM   13  O1  UNK     1      16.937  11.197  33.780  1.00  0.00    -0.212 OA
HETATM   14  O2  UNK     1      15.376  10.377  35.590  1.00  0.00    -0.212 OA
ENDBRANCH   8  11
ENDBRANCH   3   5
ENDBRANCH   1   3
BRANCH   1  15
HETATM   15  C7  UNK     1      18.168   3.053  31.257  1.00  0.00     0.036 A 
HETATM   16  C11 UNK     1      18.536   2.867  29.936  1.00  0.00     0.030 A 
HETATM   17  C12 UNK     1      19.144   1.667  29.551  1.00  0.00     0.017 A 
HETATM   18  C9  UNK     1      19.383   0.652  30.488  1.00  0.00     0.004 A 
HETATM   19  C10 UNK     1      18.994   0.885  31.807  1.00  0.00     0.092 A 
HETATM   20  C13 UNK     1      20.015  -0.632  30.156  1.00  0.00    -0.043 A 
HETATM   21  O3  UNK     1      19.200  -0.085  32.809  1.00  0.00    -0.275 OA
HETATM   22  C8  UNK     1      18.388   2.077  32.207  1.00  0.00     0.067 A 
HETATM   23  C16 UNK     1      19.793  -1.306  32.526  1.00  0.00     0.288 A 
HETATM   24  C14 UNK     1      20.197  -1.536  31.129  1.00  0.00     0.090 A 
HETATM   25  O4  UNK     1      19.977  -2.156  33.389  1.00  0.00    -0.260 OA
HETATM   26  C15 UNK     1      20.443  -0.914  28.746  1.00  0.00     0.049 C 
ENDBRANCH   1  15
TORSDOF 4
ENDMDL
MODEL 2
REMARK VINA RESULT:      -8.8      7.078     10.348
REMARK  4 active torsions:
REMARK  status: ('A' for Active; 'I' for Inactive)
REMARK    1  A    between atoms: N1_7  and  S1_1 
REMARK    2  A    between atoms: C5_14  and  N2_8 
REMARK    3  A    between atoms: C5_14  and  N3_9 
REMARK    4  A    between atoms: C7_16  and  N3_9 
ROOT
HETATM    1  N3  UNK     1      18.604  -3.998  36.448  1.00  0.00    -0.333 N 
HETATM    2  H12 UNK     1      17.692  -4.334  36.147  1.00  0.00     0.168 HD
ENDROOT
BRANCH   1   3
HETATM    3  C5  UNK     1      18.715  -2.636  36.544  1.00  0.00     0.174 C 
HETATM    4  S2  UNK     1      18.257  -1.854  37.957  1.00  0.00    -0.041 SA
BRANCH   3   5
HETATM    5  N2  UNK     1      19.251  -1.925  35.522  1.00  0.00    -0.356 N 
HETATM    6  C3  UNK     1      18.685  -0.652  35.093  1.00  0.00     0.140 C 
HETATM    7  C1  UNK     1      18.506  -0.622  33.580  1.00  0.00     0.127 C 
HETATM    8  N1  UNK     1      19.804  -0.966  32.920  1.00  0.00    -0.208 NA
HETATM    9  C2  UNK     1      20.293  -2.318  33.335  1.00  0.00     0.127 C 
HETATM   10  C4  UNK     1      20.472  -2.349  34.849  1.00  0.00     0.140 C 
BRANCH   8  11
HETATM   11  S1  UNK     1      19.877  -0.646  31.238  1.00  0.00     0.207 S 
HETATM   12  C6  UNK     1      19.984  -2.312  30.638  1.00  0.00     0.180 C 
HETATM   13  O1  UNK     1      21.128   0.017  30.946  1.00  0.00    -0.212 OA
HETATM   14  O2  UNK     1      18.607  -0.098  30.815  1.00  0.00    -0.212 OA
ENDBRANCH   8  11
ENDBRANCH   3   5
ENDBRANCH   1   3
BRANCH   1  15
HETATM   15  C7  UNK     1      19.549  -5.028  36.678  1.00  0.00     0.036 A 
HETATM   16  C11 UNK     1      20.349  -4.974  37.806  1.00  0.00     0.030 A 
HETATM   17  C12 UNK     1      21.283  -5.988  38.039  1.00  0.00     0.017 A 
HETATM   18  C9  UNK     1      21.419  -7.057  37.143  1.00  0.00     0.004 A 
HETATM   19  C10 UNK     1      20.592  -7.069  36.020  1.00  0.00     0.092 A 
HETATM   20  C13 UNK     1      22.378  -8.155  37.324  1.00  0.00    -0.043 A 
HETATM   21  O3  UNK     1      20.666  -8.109  35.072  1.00  0.00    -0.275 OA
HETATM   22  C8  UNK     1      19.654  -6.065  35.774  1.00  0.00     0.067 A 
HETATM   23  C16 UNK     1      21.562  -9.158  35.215  1.00  0.00     0.288 A 
HETATM   24  C14 UNK     1      22.427  -9.131  36.405  1.00  0.00     0.090 A 
HETATM   25  O4  UNK     1      21.636 -10.067  34.396  1.00  0.00    -0.260 OA
HETATM   26  C15 UNK     1      23.283  -8.171  38.521  1.00  0.00     0.049 C 
ENDBRANCH   1  15
TORSDOF 4
ENDMDL
MODEL 3
REMARK VINA RESULT:      -8.5      6.962     10.465
REMARK  4 active torsions:
REMARK  status: ('A' for Active; 'I' for Inactive)
REMARK    1  A    between atoms: N1_7  and  S1_1 
REMARK    2  A    between atoms: C5_14  and  N2_8 
REMARK    3  A    between atoms: C5_14  and  N3_9 
REMARK    4  A    between atoms: C7_16  and  N3_9 
ROOT
HETATM    1  N3  UNK     1      18.545  -3.829  36.477  1.00  0.00    -0.333 N 
HETATM    2  H12 UNK     1      17.815  -4.229  35.892  1.00  0.00     0.168 HD
ENDROOT
BRANCH   1   3
HETATM    3  C5  UNK     1      18.584  -2.459  36.493  1.00  0.00     0.174 C 
HETATM    4  S2  UNK     1      17.987  -1.618  37.817  1.00  0.00    -0.041 SA
BRANCH   3   5
HETATM    5  N2  UNK     1      19.161  -1.785  35.468  1.00  0.00    -0.356 N 
HETATM    6  C3  UNK     1      18.687  -0.471  35.051  1.00  0.00     0.140 C 
HETATM    7  C1  UNK     1      18.496  -0.420  33.541  1.00  0.00     0.127 C 
HETATM    8  N1  UNK     1      19.757  -0.858  32.864  1.00  0.00    -0.208 NA
HETATM    9  C2  UNK     1      20.147  -2.244  33.269  1.00  0.00     0.127 C 
HETATM   10  C4  UNK     1      20.340  -2.296  34.780  1.00  0.00     0.140 C 
BRANCH   8  11
HETATM   11  S1  UNK     1      19.836  -0.535  31.183  1.00  0.00     0.207 S 
HETATM   12  C6  UNK     1      19.968  -2.199  30.583  1.00  0.00     0.180 C 
HETATM   13  O1  UNK     1      21.080   0.144  30.899  1.00  0.00    -0.212 OA
HETATM   14  O2  UNK     1      18.561  -0.003  30.753  1.00  0.00    -0.212 OA
ENDBRANCH   8  11
ENDBRANCH   3   5
ENDBRANCH   1   3
BRANCH   1  15
HETATM   15  C7  UNK     1      19.359  -4.792  37.122  1.00  0.00     0.036 A 
HETATM   16  C11 UNK     1      18.820  -6.024  37.448  1.00  0.00     0.030 A 
HETATM   17  C12 UNK     1      19.619  -6.980  38.085  1.00  0.00     0.017 A 
HETATM   18  C9  UNK     1      20.957  -6.704  38.396  1.00  0.00     0.004 A 
HETATM   19  C10 UNK     1      21.456  -5.448  38.048  1.00  0.00     0.092 A 
HETATM   20  C13 UNK     1      21.853  -7.658  39.063  1.00  0.00    -0.043 A 
HETATM   21  O3  UNK     1      22.791  -5.092  38.326  1.00  0.00    -0.275 OA
HETATM   22  C8  UNK     1      20.672  -4.484  37.412  1.00  0.00     0.067 A 
HETATM   23  C16 UNK     1      23.660  -5.971  38.955  1.00  0.00     0.288 A 
HETATM   24  C14 UNK     1      23.118  -7.292  39.315  1.00  0.00     0.090 A 
HETATM   25  O4  UNK     1      24.823  -5.672  39.202  1.00  0.00    -0.260 OA
HETATM   26  C15 UNK     1      21.347  -9.016  39.450  1.00  0.00     0.049 C 
ENDBRANCH   1  15
TORSDOF 4
ENDMDL
MODEL 4
REMARK VINA RESULT:      -8.5      1.499      2.151
REMARK  4 active torsions:
REMARK  status: ('A' for Active; 'I' for Inactive)
REMARK    1  A    between atoms: N1_7  and  S1_1 
REMARK    2  A    between atoms: C5_14  and  N2_8 
REMARK    3  A    between atoms: C5_14  and  N3_9 
REMARK    4  A    between atoms: C7_16  and  N3_9 
ROOT
HETATM    1  N3  UNK     1      17.768   4.779  31.989  1.00  0.00    -0.333 N 
HETATM    2  H12 UNK     1      16.800   4.940  31.721  1.00  0.00     0.168 HD
ENDROOT
BRANCH   1   3
HETATM    3  C5  UNK     1      18.462   5.905  32.348  1.00  0.00     0.174 C 
HETATM    4  S2  UNK     1      19.961   6.222  31.664  1.00  0.00    -0.041 SA
BRANCH   3   5
HETATM    5  N2  UNK     1      17.911   6.795  33.211  1.00  0.00    -0.356 N 
HETATM    6  C3  UNK     1      16.510   6.714  33.604  1.00  0.00     0.140 C 
HETATM    7  C1  UNK     1      15.834   8.073  33.479  1.00  0.00     0.127 C 
HETATM    8  N1  UNK     1      16.624   9.094  34.237  1.00  0.00    -0.208 NA
HETATM    9  C2  UNK     1      18.029   9.189  33.733  1.00  0.00     0.127 C 
HETATM   10  C4  UNK     1      18.706   7.829  33.860  1.00  0.00     0.140 C 
BRANCH   8  11
HETATM   11  S1  UNK     1      15.833  10.592  34.489  1.00  0.00     0.207 S 
HETATM   12  C6  UNK     1      14.603  10.480  33.216  1.00  0.00     0.180 C 
HETATM   13  O1  UNK     1      16.742  11.661  34.142  1.00  0.00    -0.212 OA
HETATM   14  O2  UNK     1      15.158  10.551  35.768  1.00  0.00    -0.212 OA
ENDBRANCH   8  11
ENDBRANCH   3   5
ENDBRANCH   1   3
BRANCH   1  15
HETATM   15  C7  UNK     1      18.171   3.424  31.907  1.00  0.00     0.036 A 
HETATM   16  C11 UNK     1      18.081   2.622  33.031  1.00  0.00     0.030 A 
HETATM   17  C12 UNK     1      18.476   1.282  32.957  1.00  0.00     0.017 A 
HETATM   18  C9  UNK     1      18.962   0.743  31.758  1.00  0.00     0.004 A 
HETATM   19  C10 UNK     1      19.035   1.590  30.651  1.00  0.00     0.092 A 
HETATM   20  C13 UNK     1      19.395  -0.652  31.607  1.00  0.00    -0.043 A 
HETATM   21  O3  UNK     1      19.511   1.125  29.409  1.00  0.00    -0.275 OA
HETATM   22  C8  UNK     1      18.643   2.929  30.709  1.00  0.00     0.067 A 
HETATM   23  C16 UNK     1      19.927  -0.186  29.236  1.00  0.00     0.288 A 
HETATM   24  C14 UNK     1      19.844  -1.066  30.413  1.00  0.00     0.090 A 
HETATM   25  O4  UNK     1      20.344  -0.600  28.161  1.00  0.00    -0.260 OA
HETATM   26  C15 UNK     1      19.330  -1.588  32.778  1.00  0.00     0.049 C 
ENDBRANCH   1  15
TORSDOF 4
ENDMDL
MODEL 5
REMARK VINA RESULT:      -8.4      7.730     10.426
REMARK  4 active torsions:
REMARK  status: ('A' for Active; 'I' for Inactive)
REMARK    1  A    between atoms: N1_7  and  S1_1 
REMARK    2  A    between atoms: C5_14  and  N2_8 
REMARK    3  A    between atoms: C5_14  and  N3_9 
REMARK    4  A    between atoms: C7_16  and  N3_9 
ROOT
HETATM    1  N3  UNK     1      18.895  -5.063  36.109  1.00  0.00    -0.333 N 
HETATM    2  H12 UNK     1      17.993  -4.974  35.647  1.00  0.00     0.168 HD
ENDROOT
BRANCH   1   3
HETATM    3  C5  UNK     1      19.412  -3.891  36.595  1.00  0.00     0.174 C 
HETATM    4  S2  UNK     1      20.751  -3.919  37.605  1.00  0.00    -0.041 SA
BRANCH   3   5
HETATM    5  N2  UNK     1      18.879  -2.704  36.211  1.00  0.00    -0.356 N 
HETATM    6  C3  UNK     1      19.385  -1.975  35.055  1.00  0.00     0.140 C 
HETATM    7  C1  UNK     1      19.628  -0.511  35.403  1.00  0.00     0.127 C 
HETATM    8  N1  UNK     1      18.384   0.071  35.996  1.00  0.00    -0.208 NA
HETATM    9  C2  UNK     1      17.960  -0.668  37.225  1.00  0.00     0.127 C 
HETATM   10  C4  UNK     1      17.717  -2.133  36.877  1.00  0.00     0.140 C 
BRANCH   8  11
HETATM   11  S1  UNK     1      18.365   1.779  36.126  1.00  0.00     0.207 S 
HETATM   12  C6  UNK     1      18.132   2.190  34.416  1.00  0.00     0.180 C 
HETATM   13  O1  UNK     1      19.681   2.229  36.520  1.00  0.00    -0.212 OA
HETATM   14  O2  UNK     1      17.176   2.177  36.847  1.00  0.00    -0.212 OA
ENDBRANCH   8  11
ENDBRANCH   3   5
ENDBRANCH   1   3
BRANCH   1  15
HETATM   15  C7  UNK     1      19.409  -6.383  36.120  1.00  0.00     0.036 A 
HETATM   16  C11 UNK     1      20.321  -6.762  35.151  1.00  0.00     0.030 A 
HETATM   17  C12 UNK     1      20.834  -8.064  35.157  1.00  0.00     0.017 A 
HETATM   18  C9  UNK     1      20.432  -8.988  36.131  1.00  0.00     0.004 A 
HETATM   19  C10 UNK     1      19.510  -8.561  37.087  1.00  0.00     0.092 A 
HETATM   20  C13 UNK     1      20.926 -10.370  36.198  1.00  0.00    -0.043 A 
HETATM   21  O3  UNK     1      19.056  -9.428  38.100  1.00  0.00    -0.275 OA
HETATM   22  C8  UNK     1      18.991  -7.264  37.095  1.00  0.00     0.067 A 
HETATM   23  C16 UNK     1      19.504 -10.737  38.188  1.00  0.00     0.288 A 
HETATM   24  C14 UNK     1      20.477 -11.173  37.173  1.00  0.00     0.090 A 
HETATM   25  O4  UNK     1      19.115 -11.501  39.065  1.00  0.00    -0.260 OA
HETATM   26  C15 UNK     1      21.918 -10.860  35.184  1.00  0.00     0.049 C 
ENDBRANCH   1  15
TORSDOF 4
ENDMDL
MODEL 6
REMARK VINA RESULT:      -8.4      5.132      9.070
REMARK  4 active torsions:
REMARK  status: ('A' for Active; 'I' for Inactive)
REMARK    1  A    between atoms: N1_7  and  S1_1 
REMARK    2  A    between atoms: C5_14  and  N2_8 
REMARK    3  A    between atoms: C5_14  and  N3_9 
REMARK    4  A    between atoms: C7_16  and  N3_9 
ROOT
HETATM    1  N3  UNK     1      18.005   1.841  35.511  1.00  0.00    -0.333 N 
HETATM    2  H12 UNK     1      18.396   2.354  36.298  1.00  0.00     0.168 HD
ENDROOT
BRANCH   1   3
HETATM    3  C5  UNK     1      17.418   0.646  35.836  1.00  0.00     0.174 C 
HETATM    4  S2  UNK     1      15.764   0.442  35.642  1.00  0.00    -0.041 SA
BRANCH   3   5
HETATM    5  N2  UNK     1      18.183  -0.392  36.257  1.00  0.00    -0.356 N 
HETATM    6  C3  UNK     1      19.497  -0.656  35.685  1.00  0.00     0.140 C 
HETATM    7  C1  UNK     1      19.636  -2.126  35.308  1.00  0.00     0.127 C 
HETATM    8  N1  UNK     1      19.303  -2.977  36.493  1.00  0.00    -0.208 NA
HETATM    9  C2  UNK     1      17.913  -2.720  36.983  1.00  0.00     0.127 C 
HETATM   10  C4  UNK     1      17.773  -1.249  37.361  1.00  0.00     0.140 C 
BRANCH   8  11
HETATM   11  S1  UNK     1      19.736  -4.629  36.353  1.00  0.00     0.207 S 
HETATM   12  C6  UNK     1      21.017  -4.690  37.578  1.00  0.00     0.180 C 
HETATM   13  O1  UNK     1      20.343  -4.842  35.058  1.00  0.00    -0.212 OA
HETATM   14  O2  UNK     1      18.631  -5.439  36.819  1.00  0.00    -0.212 OA
ENDBRANCH   8  11
ENDBRANCH   3   5
ENDBRANCH   1   3
BRANCH   1  15
HETATM   15  C7  UNK     1      18.179   2.484  34.261  1.00  0.00     0.036 A 
HETATM   16  C11 UNK     1      18.328   3.859  34.222  1.00  0.00     0.030 A 
HETATM   17  C12 UNK     1      18.502   4.501  32.991  1.00  0.00     0.017 A 
HETATM   18  C9  UNK     1      18.525   3.766  31.798  1.00  0.00     0.004 A 
HETATM   19  C10 UNK     1      18.371   2.382  31.886  1.00  0.00     0.092 A 
HETATM   20  C13 UNK     1      18.702   4.371  30.471  1.00  0.00    -0.043 A 
HETATM   21  O3  UNK     1      18.384   1.572  30.733  1.00  0.00    -0.275 OA
HETATM   22  C8  UNK     1      18.198   1.728  33.107  1.00  0.00     0.067 A 
HETATM   23  C16 UNK     1      18.548   2.115  29.468  1.00  0.00     0.288 A 
HETATM   24  C14 UNK     1      18.710   3.576  29.391  1.00  0.00     0.090 A 
HETATM   25  O4  UNK     1      18.560   1.420  28.458  1.00  0.00    -0.260 OA
HETATM   26  C15 UNK     1      18.870   5.857  30.341  1.00  0.00     0.049 C 
ENDBRANCH   1  15
TORSDOF 4
ENDMDL
MODEL 7
REMARK VINA RESULT:      -8.3      7.707     10.558
REMARK  4 active torsions:
REMARK  status: ('A' for Active; 'I' for Inactive)
REMARK    1  A    between atoms: N1_7  and  S1_1 
REMARK    2  A    between atoms: C5_14  and  N2_8 
REMARK    3  A    between atoms: C5_14  and  N3_9 
REMARK    4  A    between atoms: C7_16  and  N3_9 
ROOT
HETATM    1  N3  UNK     1      18.970  -5.080  36.142  1.00  0.00    -0.333 N 
HETATM    2  H12 UNK     1      18.257  -4.980  35.423  1.00  0.00     0.168 HD
ENDROOT
BRANCH   1   3
HETATM    3  C5  UNK     1      19.497  -3.901  36.599  1.00  0.00     0.174 C 
HETATM    4  S2  UNK     1      20.819  -3.917  37.634  1.00  0.00    -0.041 SA
BRANCH   3   5
HETATM    5  N2  UNK     1      18.990  -2.719  36.169  1.00  0.00    -0.356 N 
HETATM    6  C3  UNK     1      19.546  -2.021  35.017  1.00  0.00     0.140 C 
HETATM    7  C1  UNK     1      19.789  -0.552  35.340  1.00  0.00     0.127 C 
HETATM    8  N1  UNK     1      18.529   0.055  35.873  1.00  0.00    -0.208 NA
HETATM    9  C2  UNK     1      18.053  -0.653  37.102  1.00  0.00     0.127 C 
HETATM   10  C4  UNK     1      17.809  -2.122  36.779  1.00  0.00     0.140 C 
BRANCH   8  11
HETATM   11  S1  UNK     1      18.521   1.766  35.963  1.00  0.00     0.207 S 
HETATM   12  C6  UNK     1      18.099   2.135  34.280  1.00  0.00     0.180 C 
HETATM   13  O1  UNK     1      19.872   2.224  36.198  1.00  0.00    -0.212 OA
HETATM   14  O2  UNK     1      17.419   2.181  36.803  1.00  0.00    -0.212 OA
ENDBRANCH   8  11
ENDBRANCH   3   5
ENDBRANCH   1   3
BRANCH   1  15
HETATM   15  C7  UNK     1      19.260  -6.424  36.482  1.00  0.00     0.036 A 
HETATM   16  C11 UNK     1      18.613  -7.004  37.558  1.00  0.00     0.030 A 
HETATM   17  C12 UNK     1      18.893  -8.332  37.899  1.00  0.00     0.017 A 
HETATM   18  C9  UNK     1      19.823  -9.079  37.164  1.00  0.00     0.004 A 
HETATM   19  C10 UNK     1      20.451  -8.452  36.087  1.00  0.00     0.092 A 
HETATM   20  C13 UNK     1      20.168 -10.475  37.464  1.00  0.00    -0.043 A 
HETATM   21  O3  UNK     1      21.398  -9.135  35.298  1.00  0.00    -0.275 OA
HETATM   22  C8  UNK     1      20.181  -7.129  35.734  1.00  0.00     0.067 A 
HETATM   23  C16 UNK     1      21.744 -10.452  35.557  1.00  0.00     0.288 A 
HETATM   24  C14 UNK     1      21.072 -11.100  36.696  1.00  0.00     0.090 A 
HETATM   25  O4  UNK     1      22.566 -11.055  34.877  1.00  0.00    -0.260 OA
HETATM   26  C15 UNK     1      19.511 -11.178  38.615  1.00  0.00     0.049 C 
ENDBRANCH   1  15
TORSDOF 4
ENDMDL
MODEL 8
REMARK VINA RESULT:      -8.3     17.756     20.392
REMARK  4 active torsions:
REMARK  status: ('A' for Active; 'I' for Inactive)
REMARK    1  A    between atoms: N1_7  and  S1_1 
REMARK    2  A    between atoms: C5_14  and  N2_8 
REMARK    3  A    between atoms: C5_14  and  N3_9 
REMARK    4  A    between atoms: C7_16  and  N3_9 
ROOT
HETATM    1  N3  UNK     1      34.051  -7.827  36.736  1.00  0.00    -0.333 N 
HETATM    2  H12 UNK     1      34.618  -8.554  37.167  1.00  0.00     0.168 HD
ENDROOT
BRANCH   1   3
HETATM    3  C5  UNK     1      34.693  -7.089  35.776  1.00  0.00     0.174 C 
HETATM    4  S2  UNK     1      35.391  -5.617  36.176  1.00  0.00    -0.041 SA
BRANCH   3   5
HETATM    5  N2  UNK     1      34.816  -7.576  34.517  1.00  0.00    -0.356 N 
HETATM    6  C3  UNK     1      36.120  -7.814  33.911  1.00  0.00     0.140 C 
HETATM    7  C1  UNK     1      36.186  -7.210  32.514  1.00  0.00     0.127 C 
HETATM    8  N1  UNK     1      35.034  -7.710  31.701  1.00  0.00    -0.208 NA
HETATM    9  C2  UNK     1      33.722  -7.364  32.330  1.00  0.00     0.127 C 
HETATM   10  C4  UNK     1      33.655  -7.969  33.728  1.00  0.00     0.140 C 
BRANCH   8  11
HETATM   11  S1  UNK     1      35.141  -7.409  30.018  1.00  0.00     0.207 S 
HETATM   12  C6  UNK     1      33.414  -7.446  29.614  1.00  0.00     0.180 C 
HETATM   13  O1  UNK     1      35.774  -8.543  29.382  1.00  0.00    -0.212 OA
HETATM   14  O2  UNK     1      35.619  -6.059  29.817  1.00  0.00    -0.212 OA
ENDBRANCH   8  11
ENDBRANCH   3   5
ENDBRANCH   1   3
BRANCH   1  15
HETATM   15  C7  UNK     1      32.735  -7.743  37.251  1.00  0.00     0.036 A 
HETATM   16  C11 UNK     1      31.951  -8.883  37.294  1.00  0.00     0.030 A 
HETATM   17  C12 UNK     1      30.650  -8.808  37.802  1.00  0.00     0.017 A 
HETATM   18  C9  UNK     1      30.131  -7.591  38.266  1.00  0.00     0.004 A 
HETATM   19  C10 UNK     1      30.957  -6.469  38.202  1.00  0.00     0.092 A 
HETATM   20  C13 UNK     1      28.775  -7.437  38.811  1.00  0.00    -0.043 A 
HETATM   21  O3  UNK     1      30.511  -5.209  38.648  1.00  0.00    -0.275 OA
HETATM   22  C8  UNK     1      32.259  -6.528  37.699  1.00  0.00     0.067 A 
HETATM   23  C16 UNK     1      29.237  -5.033  39.166  1.00  0.00     0.288 A 
HETATM   24  C14 UNK     1      28.377  -6.226  39.227  1.00  0.00     0.090 A 
HETATM   25  O4  UNK     1      28.838  -3.941  39.557  1.00  0.00    -0.260 OA
HETATM   26  C15 UNK     1      27.861  -8.624  38.893  1.00  0.00     0.049 C 
ENDBRANCH   1  15
TORSDOF 4
ENDMDL
MODEL 9
REMARK VINA RESULT:      -8.1      6.054     10.871
REMARK  4 active torsions:
REMARK  status: ('A' for Active; 'I' for Inactive)
REMARK    1  A    between atoms: N1_7  and  S1_1 
REMARK    2  A    between atoms: C5_14  and  N2_8 
REMARK    3  A    between atoms: C5_14  and  N3_9 
REMARK    4  A    between atoms: C7_16  and  N3_9 
ROOT
HETATM    1  N3  UNK     1      18.071  -1.787  35.311  1.00  0.00    -0.333 N 
HETATM    2  H12 UNK     1      17.393  -2.474  34.990  1.00  0.00     0.168 HD
ENDROOT
BRANCH   1   3
HETATM    3  C5  UNK     1      18.734  -2.124  36.462  1.00  0.00     0.174 C 
HETATM    4  S2  UNK     1      18.337  -1.373  37.909  1.00  0.00    -0.041 SA
BRANCH   3   5
HETATM    5  N2  UNK     1      19.668  -3.106  36.443  1.00  0.00    -0.356 N 
HETATM    6  C3  UNK     1      20.049  -3.778  35.207  1.00  0.00     0.140 C 
HETATM    7  C1  UNK     1      20.039  -5.291  35.389  1.00  0.00     0.127 C 
HETATM    8  N1  UNK     1      20.885  -5.655  36.568  1.00  0.00    -0.208 NA
HETATM    9  C2  UNK     1      20.395  -5.001  37.822  1.00  0.00     0.127 C 
HETATM   10  C4  UNK     1      20.406  -3.487  37.640  1.00  0.00     0.140 C 
BRANCH   8  11
HETATM   11  S1  UNK     1      21.263  -7.320  36.711  1.00  0.00     0.207 S 
HETATM   12  C6  UNK     1      19.808  -7.868  37.565  1.00  0.00     0.180 C 
HETATM   13  O1  UNK     1      22.389  -7.465  37.606  1.00  0.00    -0.212 OA
HETATM   14  O2  UNK     1      21.258  -7.912  35.391  1.00  0.00    -0.212 OA
ENDBRANCH   8  11
ENDBRANCH   3   5
ENDBRANCH   1   3
BRANCH   1  15
HETATM   15  C7  UNK     1      18.150  -0.633  34.493  1.00  0.00     0.036 A 
HETATM   16  C11 UNK     1      17.876   0.607  35.044  1.00  0.00     0.030 A 
HETATM   17  C12 UNK     1      17.954   1.751  34.242  1.00  0.00     0.017 A 
HETATM   18  C9  UNK     1      18.305   1.655  32.889  1.00  0.00     0.004 A 
HETATM   19  C10 UNK     1      18.571   0.384  32.378  1.00  0.00     0.092 A 
HETATM   20  C13 UNK     1      18.405   2.811  31.988  1.00  0.00    -0.043 A 
HETATM   21  O3  UNK     1      18.931   0.203  31.027  1.00  0.00    -0.275 OA
HETATM   22  C8  UNK     1      18.500  -0.767  33.165  1.00  0.00     0.067 A 
HETATM   23  C16 UNK     1      19.033   1.275  30.154  1.00  0.00     0.288 A 
HETATM   24  C14 UNK     1      18.749   2.609  30.708  1.00  0.00     0.090 A 
HETATM   25  O4  UNK     1      19.345   1.129  28.977  1.00  0.00    -0.260 OA
HETATM   26  C15 UNK     1      18.123   4.191  32.506  1.00  0.00     0.049 C 
ENDBRANCH   1  15
TORSDOF 4
ENDMDL
MODEL 10
REMARK VINA RESULT:      -8.1     23.365     24.833
REMARK  4 active torsions:
REMARK  status: ('A' for Active; 'I' for Inactive)
REMARK    1  A    between atoms: N1_7  and  S1_1 
REMARK    2  A    between atoms: C5_14  and  N2_8 
REMARK    3  A    between atoms: C5_14  and  N3_9 
REMARK    4  A    between atoms: C7_16  and  N3_9 
ROOT
HETATM    1  N3  UNK     1      11.984   5.581   7.505  1.00  0.00    -0.333 N 
HETATM    2  H12 UNK     1      12.207   4.692   7.063  1.00  0.00     0.168 HD
ENDROOT
BRANCH   1   3
HETATM    3  C5  UNK     1      10.676   5.971   7.389  1.00  0.00     0.174 C 
HETATM    4  S2  UNK     1       9.982   6.141   5.870  1.00  0.00    -0.041 SA
BRANCH   3   5
HETATM    5  N2  UNK     1       9.924   6.161   8.501  1.00  0.00    -0.356 N 
HETATM    6  C3  UNK     1       9.711   5.097   9.473  1.00  0.00     0.140 C 
HETATM    7  C1  UNK     1       8.232   4.969   9.820  1.00  0.00     0.127 C 
HETATM    8  N1  UNK     1       7.706   6.303  10.249  1.00  0.00    -0.208 NA
HETATM    9  C2  UNK     1       7.878   7.334   9.179  1.00  0.00     0.127 C 
HETATM   10  C4  UNK     1       9.357   7.462   8.832  1.00  0.00     0.140 C 
BRANCH   8  11
HETATM   11  S1  UNK     1       6.165   6.275  10.998  1.00  0.00     0.207 S 
HETATM   12  C6  UNK     1       5.627   7.917  10.598  1.00  0.00     0.180 C 
HETATM   13  O1  UNK     1       6.347   6.199  12.430  1.00  0.00    -0.212 OA
HETATM   14  O2  UNK     1       5.320   5.341  10.286  1.00  0.00    -0.212 OA
ENDBRANCH   8  11
ENDBRANCH   3   5
ENDBRANCH   1   3
BRANCH   1  15
HETATM   15  C7  UNK     1      13.093   6.211   8.120  1.00  0.00     0.036 A 
HETATM   16  C11 UNK     1      14.093   5.432   8.676  1.00  0.00     0.030 A 
HETATM   17  C12 UNK     1      15.191   6.048   9.284  1.00  0.00     0.017 A 
HETATM   18  C9  UNK     1      15.290   7.445   9.338  1.00  0.00     0.004 A 
HETATM   19  C10 UNK     1      14.258   8.190   8.766  1.00  0.00     0.092 A 
HETATM   20  C13 UNK     1      16.412   8.160   9.961  1.00  0.00    -0.043 A 
HETATM   21  O3  UNK     1      14.283   9.599   8.778  1.00  0.00    -0.275 OA
HETATM   22  C8  UNK     1      13.156   7.589   8.154  1.00  0.00     0.067 A 
HETATM   23  C16 UNK     1      15.328  10.300   9.359  1.00  0.00     0.288 A 
HETATM   24  C14 UNK     1      16.409   9.501   9.959  1.00  0.00     0.090 A 
HETATM   25  O4  UNK     1      15.359  11.526   9.376  1.00  0.00    -0.260 OA
HETATM   26  C15 UNK     1      17.537   7.389  10.587  1.00  0.00     0.049 C 
ENDBRANCH   1  15
TORSDOF 4
ENDMDL
