MODEL 1
REMARK VINA RESULT:      -9.8      0.000      0.000
REMARK  3 active torsions:
REMARK  status: ('A' for Active; 'I' for Inactive)
REMARK    1  A    between atoms: C3_12  and  N1_9 
REMARK       I    between atoms: C8_17  and  N1_9 
REMARK    2  A    between atoms: C2_11  and  C8_17 
REMARK    3  A    between atoms: C16_25  and  C6_15 
ROOT
HETATM    1  O2  UNK     1      17.622   3.097  32.926  1.00  0.00    -0.267 OA
HETATM    2  N1  UNK     1      18.667   4.628  31.473  1.00  0.00    -0.323 N 
HETATM    3  C8  UNK     1      18.272   3.375  31.919  1.00  0.00     0.262 C 
HETATM    4  H3  UNK     1      19.188   4.689  30.601  1.00  0.00     0.169 HD
ENDROOT
BRANCH   3   5
HETATM    5  C2  UNK     1      18.724   2.300  31.027  1.00  0.00     0.108 A 
HETATM    6  C11 UNK     1      18.684   2.437  29.553  1.00  0.00     0.304 A 
HETATM    7  O1  UNK     1      19.140   1.349  28.813  1.00  0.00    -0.274 OA
HETATM    8  O3  UNK     1      18.273   3.454  29.006  1.00  0.00    -0.259 OA
HETATM    9  C4  UNK     1      19.615   0.176  29.430  1.00  0.00     0.089 A 
HETATM   10  C1  UNK     1      19.643   0.070  30.817  1.00  0.00     0.001 A 
HETATM   11  C12 UNK     1      20.050  -0.859  28.605  1.00  0.00     0.040 A 
HETATM   12  C9  UNK     1      20.122  -1.110  31.393  1.00  0.00     0.038 A 
HETATM   13  C5  UNK     1      19.174   1.188  31.619  1.00  0.00     0.037 A 
HETATM   14  C15 UNK     1      20.562  -2.158  30.578  1.00  0.00     0.035 A 
HETATM   15 Cl2  UNK     1      21.151  -3.610  31.292  1.00  0.00    -0.084 Cl
HETATM   16  C17 UNK     1      20.527  -2.032  29.187  1.00  0.00     0.026 A 
ENDBRANCH   3   5
BRANCH   2  17
HETATM   17  C3  UNK     1      18.408   5.881  32.079  1.00  0.00     0.035 A 
HETATM   18  C10 UNK     1      19.447   6.569  32.679  1.00  0.00     0.031 A 
HETATM   19  C14 UNK     1      19.192   7.803  33.278  1.00  0.00     0.027 A 
HETATM   20  C13 UNK     1      17.901   8.331  33.265  1.00  0.00     0.049 A 
HETATM   21 Cl1  UNK     1      17.623   9.860  34.016  1.00  0.00    -0.083 Cl
HETATM   22  C6  UNK     1      16.864   7.624  32.655  1.00  0.00     0.071 A 
HETATM   23  C7  UNK     1      17.120   6.389  32.058  1.00  0.00     0.047 A 
BRANCH  22  24
HETATM   24  C16 UNK     1      15.467   8.153  32.622  1.00  0.00     0.419 C 
HETATM   25  F1  UNK     1      14.907   8.287  33.859  1.00  0.00    -0.166 F 
HETATM   26  F2  UNK     1      15.367   9.386  32.046  1.00  0.00    -0.166 F 
HETATM   27  F3  UNK     1      14.621   7.348  31.919  1.00  0.00    -0.166 F 
ENDBRANCH  22  24
ENDBRANCH   2  17
TORSDOF 3
ENDMDL
MODEL 2
REMARK VINA RESULT:      -9.8      1.861      2.402
REMARK  3 active torsions:
REMARK  status: ('A' for Active; 'I' for Inactive)
REMARK    1  A    between atoms: C3_12  and  N1_9 
REMARK       I    between atoms: C8_17  and  N1_9 
REMARK    2  A    between atoms: C2_11  and  C8_17 
REMARK    3  A    between atoms: C16_25  and  C6_15 
ROOT
HETATM    1  O2  UNK     1      17.626   3.209  32.949  1.00  0.00    -0.267 OA
HETATM    2  N1  UNK     1      18.447   4.757  31.376  1.00  0.00    -0.323 N 
HETATM    3  C8  UNK     1      18.182   3.495  31.890  1.00  0.00     0.262 C 
HETATM    4  H3  UNK     1      18.900   4.823  30.467  1.00  0.00     0.169 HD
ENDROOT
BRANCH   3   5
HETATM    5  C2  UNK     1      18.651   2.424  31.003  1.00  0.00     0.108 A 
HETATM    6  C11 UNK     1      18.636   2.564  29.528  1.00  0.00     0.304 A 
HETATM    7  O1  UNK     1      19.107   1.480  28.794  1.00  0.00    -0.274 OA
HETATM    8  O3  UNK     1      18.231   3.582  28.978  1.00  0.00    -0.259 OA
HETATM    9  C4  UNK     1      19.575   0.307  29.416  1.00  0.00     0.089 A 
HETATM   10  C1  UNK     1      19.580   0.197  30.803  1.00  0.00     0.001 A 
HETATM   11  C12 UNK     1      20.026  -0.725  28.596  1.00  0.00     0.040 A 
HETATM   12  C9  UNK     1      20.053  -0.983  31.384  1.00  0.00     0.038 A 
HETATM   13  C5  UNK     1      19.095   1.312  31.600  1.00  0.00     0.037 A 
HETATM   14  C15 UNK     1      20.509  -2.027  30.574  1.00  0.00     0.035 A 
HETATM   15 Cl2  UNK     1      21.090  -3.479  31.294  1.00  0.00    -0.084 Cl
HETATM   16  C17 UNK     1      20.497  -1.898  29.183  1.00  0.00     0.026 A 
ENDBRANCH   3   5
BRANCH   2  17
HETATM   17  C3  UNK     1      18.136   6.009  31.958  1.00  0.00     0.035 A 
HETATM   18  C10 UNK     1      16.903   6.585  31.704  1.00  0.00     0.031 A 
HETATM   19  C14 UNK     1      16.597   7.820  32.275  1.00  0.00     0.027 A 
HETATM   20  C13 UNK     1      17.527   8.459  33.095  1.00  0.00     0.049 A 
HETATM   21 Cl1  UNK     1      17.113   9.987  33.784  1.00  0.00    -0.083 Cl
HETATM   22  C6  UNK     1      18.765   7.865  33.341  1.00  0.00     0.071 A 
HETATM   23  C7  UNK     1      19.071   6.630  32.768  1.00  0.00     0.047 A 
BRANCH  22  24
HETATM   24  C16 UNK     1      19.790   8.518  34.211  1.00  0.00     0.419 C 
HETATM   25  F1  UNK     1      19.681   9.878  34.252  1.00  0.00    -0.166 F 
HETATM   26  F2  UNK     1      19.735   8.113  35.513  1.00  0.00    -0.166 F 
HETATM   27  F3  UNK     1      21.063   8.262  33.798  1.00  0.00    -0.166 F 
ENDBRANCH  22  24
ENDBRANCH   2  17
TORSDOF 3
ENDMDL
MODEL 3
REMARK VINA RESULT:      -9.7      9.382     12.961
REMARK  3 active torsions:
REMARK  status: ('A' for Active; 'I' for Inactive)
REMARK    1  A    between atoms: C3_12  and  N1_9 
REMARK       I    between atoms: C8_17  and  N1_9 
REMARK    2  A    between atoms: C2_11  and  C8_17 
REMARK    3  A    between atoms: C16_25  and  C6_15 
ROOT
HETATM    1  O2  UNK     1      21.295  -4.164  37.215  1.00  0.00    -0.267 OA
HETATM    2  N1  UNK     1      19.865  -5.365  35.781  1.00  0.00    -0.323 N 
HETATM    3  C8  UNK     1      20.425  -4.229  36.349  1.00  0.00     0.262 C 
HETATM    4  H3  UNK     1      19.164  -5.246  35.053  1.00  0.00     0.169 HD
ENDROOT
BRANCH   3   5
HETATM    5  C2  UNK     1      19.857  -2.994  35.795  1.00  0.00     0.108 A 
HETATM    6  C11 UNK     1      20.122  -2.564  34.403  1.00  0.00     0.304 A 
HETATM    7  O1  UNK     1      19.526  -1.375  33.993  1.00  0.00    -0.274 OA
HETATM    8  O3  UNK     1      20.829  -3.219  33.645  1.00  0.00    -0.259 OA
HETATM    9  C4  UNK     1      18.712  -0.615  34.854  1.00  0.00     0.089 A 
HETATM   10  C1  UNK     1      18.475  -1.038  36.158  1.00  0.00     0.001 A 
HETATM   11  C12 UNK     1      18.159   0.562  34.353  1.00  0.00     0.040 A 
HETATM   12  C9  UNK     1      17.661  -0.257  36.983  1.00  0.00     0.038 A 
HETATM   13  C5  UNK     1      19.083  -2.277  36.618  1.00  0.00     0.037 A 
HETATM   14  C15 UNK     1      17.100   0.926  36.494  1.00  0.00     0.035 A 
HETATM   15 Cl2  UNK     1      16.097   1.884  37.514  1.00  0.00    -0.084 Cl
HETATM   16  C17 UNK     1      17.348   1.334  35.181  1.00  0.00     0.026 A 
ENDBRANCH   3   5
BRANCH   2  17
HETATM   17  C3  UNK     1      20.172  -6.716  36.071  1.00  0.00     0.035 A 
HETATM   18  C10 UNK     1      20.654  -7.532  35.062  1.00  0.00     0.031 A 
HETATM   19  C14 UNK     1      20.955  -8.863  35.348  1.00  0.00     0.027 A 
HETATM   20  C13 UNK     1      20.771  -9.359  36.639  1.00  0.00     0.049 A 
HETATM   21 Cl1  UNK     1      21.154 -11.013  36.954  1.00  0.00    -0.083 Cl
HETATM   22  C6  UNK     1      20.285  -8.523  37.644  1.00  0.00     0.071 A 
HETATM   23  C7  UNK     1      19.983  -7.191  37.358  1.00  0.00     0.047 A 
BRANCH  22  24
HETATM   24  C16 UNK     1      20.071  -9.016  39.039  1.00  0.00     0.419 C 
HETATM   25  F1  UNK     1      19.194 -10.058  39.119  1.00  0.00    -0.166 F 
HETATM   26  F2  UNK     1      21.214  -9.459  39.639  1.00  0.00    -0.166 F 
HETATM   27  F3  UNK     1      19.573  -8.050  39.862  1.00  0.00    -0.166 F 
ENDBRANCH  22  24
ENDBRANCH   2  17
TORSDOF 3
ENDMDL
MODEL 4
REMARK VINA RESULT:      -9.6      4.159      9.028
REMARK  3 active torsions:
REMARK  status: ('A' for Active; 'I' for Inactive)
REMARK    1  A    between atoms: C3_12  and  N1_9 
REMARK       I    between atoms: C8_17  and  N1_9 
REMARK    2  A    between atoms: C2_11  and  C8_17 
REMARK    3  A    between atoms: C16_25  and  C6_15 
ROOT
HETATM    1  O2  UNK     1      19.983   5.549  29.692  1.00  0.00    -0.267 OA
HETATM    2  N1  UNK     1      18.506   4.089  30.802  1.00  0.00    -0.323 N 
HETATM    3  C8  UNK     1      19.180   5.282  30.585  1.00  0.00     0.262 C 
HETATM    4  H3  UNK     1      17.854   4.037  31.581  1.00  0.00     0.169 HD
ENDROOT
BRANCH   3   5
HETATM    5  C2  UNK     1      18.840   6.302  31.585  1.00  0.00     0.108 A 
HETATM    6  C11 UNK     1      19.788   6.706  32.648  1.00  0.00     0.304 A 
HETATM    7  O1  UNK     1      19.349   7.684  33.537  1.00  0.00    -0.274 OA
HETATM    8  O3  UNK     1      20.904   6.209  32.744  1.00  0.00    -0.259 OA
HETATM    9  C4  UNK     1      18.070   8.262  33.434  1.00  0.00     0.089 A 
HETATM   10  C1  UNK     1      17.195   7.867  32.427  1.00  0.00     0.001 A 
HETATM   11  C12 UNK     1      17.721   9.233  34.371  1.00  0.00     0.040 A 
HETATM   12  C9  UNK     1      15.933   8.465  32.358  1.00  0.00     0.038 A 
HETATM   13  C5  UNK     1      17.622   6.848  31.482  1.00  0.00     0.037 A 
HETATM   14  C15 UNK     1      15.570   9.441  33.290  1.00  0.00     0.035 A 
HETATM   15 Cl2  UNK     1      14.014  10.174  33.201  1.00  0.00    -0.084 Cl
HETATM   16  C17 UNK     1      16.462   9.825  34.294  1.00  0.00     0.026 A 
ENDBRANCH   3   5
BRANCH   2  17
HETATM   17  C3  UNK     1      18.589   2.899  30.040  1.00  0.00     0.035 A 
HETATM   18  C10 UNK     1      17.822   2.774  28.895  1.00  0.00     0.031 A 
HETATM   19  C14 UNK     1      17.902   1.602  28.144  1.00  0.00     0.027 A 
HETATM   20  C13 UNK     1      18.752   0.571  28.549  1.00  0.00     0.049 A 
HETATM   21 Cl1  UNK     1      18.824  -0.866  27.595  1.00  0.00    -0.083 Cl
HETATM   22  C6  UNK     1      19.518   0.713  29.706  1.00  0.00     0.071 A 
HETATM   23  C7  UNK     1      19.437   1.886  30.457  1.00  0.00     0.047 A 
BRANCH  22  24
HETATM   24  C16 UNK     1      20.438  -0.368  30.174  1.00  0.00     0.419 C 
HETATM   25  F1  UNK     1      21.299  -0.805  29.210  1.00  0.00    -0.166 F 
HETATM   26  F2  UNK     1      21.230   0.008  31.220  1.00  0.00    -0.166 F 
HETATM   27  F3  UNK     1      19.767  -1.475  30.599  1.00  0.00    -0.166 F 
ENDBRANCH  22  24
ENDBRANCH   2  17
TORSDOF 3
ENDMDL
MODEL 5
REMARK VINA RESULT:      -9.6      9.494     13.100
REMARK  3 active torsions:
REMARK  status: ('A' for Active; 'I' for Inactive)
REMARK    1  A    between atoms: C3_12  and  N1_9 
REMARK       I    between atoms: C8_17  and  N1_9 
REMARK    2  A    between atoms: C2_11  and  C8_17 
REMARK    3  A    between atoms: C16_25  and  C6_15 
ROOT
HETATM    1  O2  UNK     1      21.237  -4.370  37.186  1.00  0.00    -0.267 OA
HETATM    2  N1  UNK     1      19.397  -5.420  36.157  1.00  0.00    -0.323 N 
HETATM    3  C8  UNK     1      20.215  -4.353  36.502  1.00  0.00     0.262 C 
HETATM    4  H3  UNK     1      18.592  -5.239  35.561  1.00  0.00     0.169 HD
ENDROOT
BRANCH   3   5
HETATM    5  C2  UNK     1      19.736  -3.083  35.943  1.00  0.00     0.108 A 
HETATM    6  C11 UNK     1      20.066  -2.659  34.563  1.00  0.00     0.304 A 
HETATM    7  O1  UNK     1      19.553  -1.434  34.146  1.00  0.00    -0.274 OA
HETATM    8  O3  UNK     1      20.755  -3.349  33.820  1.00  0.00    -0.259 OA
HETATM    9  C4  UNK     1      18.759  -0.634  34.991  1.00  0.00     0.089 A 
HETATM   10  C1  UNK     1      18.461  -1.052  36.284  1.00  0.00     0.001 A 
HETATM   11  C12 UNK     1      18.291   0.576  34.485  1.00  0.00     0.040 A 
HETATM   12  C9  UNK     1      17.671  -0.231  37.093  1.00  0.00     0.038 A 
HETATM   13  C5  UNK     1      18.982  -2.327  36.750  1.00  0.00     0.037 A 
HETATM   14  C15 UNK     1      17.194   0.987  36.598  1.00  0.00     0.035 A 
HETATM   15 Cl2  UNK     1      16.220   1.995  37.598  1.00  0.00    -0.084 Cl
HETATM   16  C17 UNK     1      17.503   1.389  35.296  1.00  0.00     0.026 A 
ENDBRANCH   3   5
BRANCH   2  17
HETATM   17  C3  UNK     1      19.554  -6.780  36.517  1.00  0.00     0.035 A 
HETATM   18  C10 UNK     1      18.826  -7.287  37.578  1.00  0.00     0.031 A 
HETATM   19  C14 UNK     1      18.982  -8.627  37.934  1.00  0.00     0.027 A 
HETATM   20  C13 UNK     1      19.863  -9.440  37.221  1.00  0.00     0.049 A 
HETATM   21 Cl1  UNK     1      20.031 -11.092  37.691  1.00  0.00    -0.083 Cl
HETATM   22  C6  UNK     1      20.590  -8.912  36.154  1.00  0.00     0.071 A 
HETATM   23  C7  UNK     1      20.434  -7.571  35.799  1.00  0.00     0.047 A 
BRANCH  22  24
HETATM   24  C16 UNK     1      21.546  -9.748  35.366  1.00  0.00     0.419 C 
HETATM   25  F1  UNK     1      22.780  -9.849  35.940  1.00  0.00    -0.166 F 
HETATM   26  F2  UNK     1      21.125 -11.034  35.190  1.00  0.00    -0.166 F 
HETATM   27  F3  UNK     1      21.761  -9.255  34.114  1.00  0.00    -0.166 F 
ENDBRANCH  22  24
ENDBRANCH   2  17
TORSDOF 3
ENDMDL
MODEL 6
REMARK VINA RESULT:      -9.4     14.935     16.438
REMARK  3 active torsions:
REMARK  status: ('A' for Active; 'I' for Inactive)
REMARK    1  A    between atoms: C3_12  and  N1_9 
REMARK       I    between atoms: C8_17  and  N1_9 
REMARK    2  A    between atoms: C2_11  and  C8_17 
REMARK    3  A    between atoms: C16_25  and  C6_15 
ROOT
HETATM    1  O2  UNK     1      26.159  -9.119  39.430  1.00  0.00    -0.267 OA
HETATM    2  N1  UNK     1      24.771  -7.436  38.544  1.00  0.00    -0.323 N 
HETATM    3  C8  UNK     1      25.968  -7.996  38.967  1.00  0.00     0.262 C 
HETATM    4  H3  UNK     1      24.787  -6.493  38.162  1.00  0.00     0.169 HD
ENDROOT
BRANCH   3   5
HETATM    5  C2  UNK     1      27.099  -7.073  38.810  1.00  0.00     0.108 A 
HETATM    6  C11 UNK     1      26.918  -5.603  38.817  1.00  0.00     0.304 A 
HETATM    7  O1  UNK     1      28.067  -4.833  38.659  1.00  0.00    -0.274 OA
HETATM    8  O3  UNK     1      25.816  -5.086  38.956  1.00  0.00    -0.259 OA
HETATM    9  C4  UNK     1      29.338  -5.416  38.501  1.00  0.00     0.089 A 
HETATM   10  C1  UNK     1      29.485  -6.800  38.497  1.00  0.00     0.001 A 
HETATM   11  C12 UNK     1      30.429  -4.562  38.349  1.00  0.00     0.040 A 
HETATM   12  C9  UNK     1      30.763  -7.342  38.337  1.00  0.00     0.038 A 
HETATM   13  C5  UNK     1      28.304  -7.634  38.660  1.00  0.00     0.037 A 
HETATM   14  C15 UNK     1      31.866  -6.497  38.184  1.00  0.00     0.035 A 
HETATM   15 Cl2  UNK     1      33.439  -7.170  37.988  1.00  0.00    -0.084 Cl
HETATM   16  C17 UNK     1      31.700  -5.110  38.191  1.00  0.00     0.026 A 
ENDBRANCH   3   5
BRANCH   2  17
HETATM   17  C3  UNK     1      23.488  -8.035  38.549  1.00  0.00     0.035 A 
HETATM   18  C10 UNK     1      22.764  -8.073  39.728  1.00  0.00     0.031 A 
HETATM   19  C14 UNK     1      21.501  -8.665  39.734  1.00  0.00     0.027 A 
HETATM   20  C13 UNK     1      20.980  -9.208  38.559  1.00  0.00     0.049 A 
HETATM   21 Cl1  UNK     1      19.414  -9.933  38.605  1.00  0.00    -0.083 Cl
HETATM   22  C6  UNK     1      21.723  -9.161  37.379  1.00  0.00     0.071 A 
HETATM   23  C7  UNK     1      22.987  -8.570  37.375  1.00  0.00     0.047 A 
BRANCH  22  24
HETATM   24  C16 UNK     1      21.202  -9.734  36.101  1.00  0.00     0.419 C 
HETATM   25  F1  UNK     1      20.905 -11.063  36.182  1.00  0.00    -0.166 F 
HETATM   26  F2  UNK     1      20.056  -9.135  35.665  1.00  0.00    -0.166 F 
HETATM   27  F3  UNK     1      22.093  -9.616  35.076  1.00  0.00    -0.166 F 
ENDBRANCH  22  24
ENDBRANCH   2  17
TORSDOF 3
ENDMDL
MODEL 7
REMARK VINA RESULT:      -9.2      8.355     11.846
REMARK  3 active torsions:
REMARK  status: ('A' for Active; 'I' for Inactive)
REMARK    1  A    between atoms: C3_12  and  N1_9 
REMARK       I    between atoms: C8_17  and  N1_9 
REMARK    2  A    between atoms: C2_11  and  C8_17 
REMARK    3  A    between atoms: C16_25  and  C6_15 
ROOT
HETATM    1  O2  UNK     1      20.973  -3.326  36.685  1.00  0.00    -0.267 OA
HETATM    2  N1  UNK     1      19.890  -4.835  35.238  1.00  0.00    -0.323 N 
HETATM    3  C8  UNK     1      20.323  -3.591  35.675  1.00  0.00     0.262 C 
HETATM    4  H3  UNK     1      19.376  -4.887  34.361  1.00  0.00     0.169 HD
ENDROOT
BRANCH   3   5
HETATM    5  C2  UNK     1      19.919  -2.512  34.766  1.00  0.00     0.108 A 
HETATM    6  C11 UNK     1      19.058  -1.392  35.213  1.00  0.00     0.304 A 
HETATM    7  O1  UNK     1      18.743  -0.429  34.259  1.00  0.00    -0.274 OA
HETATM    8  O3  UNK     1      18.642  -1.313  36.363  1.00  0.00    -0.259 OA
HETATM    9  C4  UNK     1      19.215  -0.510  32.935  1.00  0.00     0.089 A 
HETATM   10  C1  UNK     1      20.023  -1.571  32.537  1.00  0.00     0.001 A 
HETATM   11  C12 UNK     1      18.846   0.502  32.052  1.00  0.00     0.040 A 
HETATM   12  C9  UNK     1      20.473  -1.617  31.215  1.00  0.00     0.038 A 
HETATM   13  C5  UNK     1      20.371  -2.594  33.510  1.00  0.00     0.037 A 
HETATM   14  C15 UNK     1      20.111  -0.608  30.318  1.00  0.00     0.035 A 
HETATM   15 Cl2  UNK     1      20.668  -0.668  28.689  1.00  0.00    -0.084 Cl
HETATM   16  C17 UNK     1      19.299   0.450  30.736  1.00  0.00     0.026 A 
ENDBRANCH   3   5
BRANCH   2  17
HETATM   17  C3  UNK     1      20.099  -6.090  35.860  1.00  0.00     0.035 A 
HETATM   18  C10 UNK     1      20.321  -7.206  35.072  1.00  0.00     0.031 A 
HETATM   19  C14 UNK     1      20.525  -8.442  35.684  1.00  0.00     0.027 A 
HETATM   20  C13 UNK     1      20.507  -8.544  37.076  1.00  0.00     0.049 A 
HETATM   21 Cl1  UNK     1      20.762 -10.091  37.797  1.00  0.00    -0.083 Cl
HETATM   22  C6  UNK     1      20.282  -7.408  37.854  1.00  0.00     0.071 A 
HETATM   23  C7  UNK     1      20.076  -6.172  37.241  1.00  0.00     0.047 A 
BRANCH  22  24
HETATM   24  C16 UNK     1      20.252  -7.475  39.347  1.00  0.00     0.419 C 
HETATM   25  F1  UNK     1      19.459  -8.475  39.831  1.00  0.00    -0.166 F 
HETATM   26  F2  UNK     1      21.478  -7.685  39.906  1.00  0.00    -0.166 F 
HETATM   27  F3  UNK     1      19.781  -6.326  39.911  1.00  0.00    -0.166 F 
ENDBRANCH  22  24
ENDBRANCH   2  17
TORSDOF 3
ENDMDL
MODEL 8
REMARK VINA RESULT:      -9.2     14.973     16.341
REMARK  3 active torsions:
REMARK  status: ('A' for Active; 'I' for Inactive)
REMARK    1  A    between atoms: C3_12  and  N1_9 
REMARK       I    between atoms: C8_17  and  N1_9 
REMARK    2  A    between atoms: C2_11  and  C8_17 
REMARK    3  A    between atoms: C16_25  and  C6_15 
ROOT
HETATM    1  O2  UNK     1      25.853  -9.079  39.477  1.00  0.00    -0.267 OA
HETATM    2  N1  UNK     1      24.672  -7.814  37.880  1.00  0.00    -0.323 N 
HETATM    3  C8  UNK     1      25.730  -8.112  38.727  1.00  0.00     0.262 C 
HETATM    4  H3  UNK     1      24.735  -6.978  37.304  1.00  0.00     0.169 HD
ENDROOT
BRANCH   3   5
HETATM    5  C2  UNK     1      26.793  -7.102  38.663  1.00  0.00     0.108 A 
HETATM    6  C11 UNK     1      26.505  -5.652  38.751  1.00  0.00     0.304 A 
HETATM    7  O1  UNK     1      27.597  -4.792  38.679  1.00  0.00    -0.274 OA
HETATM    8  O3  UNK     1      25.363  -5.225  38.883  1.00  0.00    -0.259 OA
HETATM    9  C4  UNK     1      28.912  -5.272  38.529  1.00  0.00     0.089 A 
HETATM   10  C1  UNK     1      29.161  -6.639  38.449  1.00  0.00     0.001 A 
HETATM   11  C12 UNK     1      29.941  -4.334  38.466  1.00  0.00     0.040 A 
HETATM   12  C9  UNK     1      30.480  -7.076  38.301  1.00  0.00     0.038 A 
HETATM   13  C5  UNK     1      28.041  -7.564  38.521  1.00  0.00     0.037 A 
HETATM   14  C15 UNK     1      31.522  -6.147  38.236  1.00  0.00     0.035 A 
HETATM   15 Cl2  UNK     1      33.146  -6.691  38.053  1.00  0.00    -0.084 Cl
HETATM   16  C17 UNK     1      31.253  -4.778  38.319  1.00  0.00     0.026 A 
ENDBRANCH   3   5
BRANCH   2  17
HETATM   17  C3  UNK     1      23.486  -8.562  37.684  1.00  0.00     0.035 A 
HETATM   18  C10 UNK     1      23.448  -9.520  36.686  1.00  0.00     0.031 A 
HETATM   19  C14 UNK     1      22.280 -10.256  36.492  1.00  0.00     0.027 A 
HETATM   20  C13 UNK     1      21.166 -10.023  37.300  1.00  0.00     0.049 A 
HETATM   21 Cl1  UNK     1      19.737 -10.953  37.029  1.00  0.00    -0.083 Cl
HETATM   22  C6  UNK     1      21.222  -9.053  38.301  1.00  0.00     0.071 A 
HETATM   23  C7  UNK     1      22.391  -8.317  38.494  1.00  0.00     0.047 A 
BRANCH  22  24
HETATM   24  C16 UNK     1      20.051  -8.772  39.186  1.00  0.00     0.419 C 
HETATM   25  F1  UNK     1      18.912  -8.464  38.500  1.00  0.00    -0.166 F 
HETATM   26  F2  UNK     1      19.713  -9.822  39.990  1.00  0.00    -0.166 F 
HETATM   27  F3  UNK     1      20.272  -7.721  40.025  1.00  0.00    -0.166 F 
ENDBRANCH  22  24
ENDBRANCH   2  17
TORSDOF 3
ENDMDL
MODEL 9
REMARK VINA RESULT:      -9.1      8.017      9.793
REMARK  3 active torsions:
REMARK  status: ('A' for Active; 'I' for Inactive)
REMARK    1  A    between atoms: C3_12  and  N1_9 
REMARK       I    between atoms: C8_17  and  N1_9 
REMARK    2  A    between atoms: C2_11  and  C8_17 
REMARK    3  A    between atoms: C16_25  and  C6_15 
ROOT
HETATM    1  O2  UNK     1      20.507  -3.946  35.440  1.00  0.00    -0.267 OA
HETATM    2  N1  UNK     1      18.595  -3.756  36.802  1.00  0.00    -0.323 N 
HETATM    3  C8  UNK     1      19.613  -4.424  36.137  1.00  0.00     0.262 C 
HETATM    4  H3  UNK     1      17.942  -4.302  37.359  1.00  0.00     0.169 HD
ENDROOT
BRANCH   3   5
HETATM    5  C2  UNK     1      19.548  -5.877  36.340  1.00  0.00     0.108 A 
HETATM    6  C11 UNK     1      18.296  -6.558  36.743  1.00  0.00     0.304 A 
HETATM    7  O1  UNK     1      18.361  -7.939  36.903  1.00  0.00    -0.274 OA
HETATM    8  O3  UNK     1      17.253  -5.941  36.925  1.00  0.00    -0.259 OA
HETATM    9  C4  UNK     1      19.554  -8.657  36.695  1.00  0.00     0.089 A 
HETATM   10  C1  UNK     1      20.719  -7.997  36.317  1.00  0.00     0.001 A 
HETATM   11  C12 UNK     1      19.520 -10.037  36.881  1.00  0.00     0.040 A 
HETATM   12  C9  UNK     1      21.883  -8.744  36.120  1.00  0.00     0.038 A 
HETATM   13  C5  UNK     1      20.685  -6.554  36.141  1.00  0.00     0.037 A 
HETATM   14  C15 UNK     1      21.864 -10.130  36.303  1.00  0.00     0.035 A 
HETATM   15 Cl2  UNK     1      23.302 -11.046  36.058  1.00  0.00    -0.084 Cl
HETATM   16  C17 UNK     1      20.685 -10.775  36.682  1.00  0.00     0.026 A 
ENDBRANCH   3   5
BRANCH   2  17
HETATM   17  C3  UNK     1      18.352  -2.361  36.829  1.00  0.00     0.035 A 
HETATM   18  C10 UNK     1      18.212  -1.724  38.050  1.00  0.00     0.031 A 
HETATM   19  C14 UNK     1      17.971  -0.350  38.077  1.00  0.00     0.027 A 
HETATM   20  C13 UNK     1      17.875   0.366  36.883  1.00  0.00     0.049 A 
HETATM   21 Cl1  UNK     1      17.575   2.064  36.957  1.00  0.00    -0.083 Cl
HETATM   22  C6  UNK     1      18.019  -0.293  35.662  1.00  0.00     0.071 A 
HETATM   23  C7  UNK     1      18.259  -1.667  35.635  1.00  0.00     0.047 A 
BRANCH  22  24
HETATM   24  C16 UNK     1      17.920   0.436  34.361  1.00  0.00     0.419 C 
HETATM   25  F1  UNK     1      16.687   0.974  34.131  1.00  0.00    -0.166 F 
HETATM   26  F2  UNK     1      18.793   1.481  34.257  1.00  0.00    -0.166 F 
HETATM   27  F3  UNK     1      18.178  -0.368  33.292  1.00  0.00    -0.166 F 
ENDBRANCH  22  24
ENDBRANCH   2  17
TORSDOF 3
ENDMDL
MODEL 10
REMARK VINA RESULT:      -9.1      8.770     12.286
REMARK  3 active torsions:
REMARK  status: ('A' for Active; 'I' for Inactive)
REMARK    1  A    between atoms: C3_12  and  N1_9 
REMARK       I    between atoms: C8_17  and  N1_9 
REMARK    2  A    between atoms: C2_11  and  C8_17 
REMARK    3  A    between atoms: C16_25  and  C6_15 
ROOT
HETATM    1  O2  UNK     1      21.049  -3.577  36.739  1.00  0.00    -0.267 OA
HETATM    2  N1  UNK     1      19.633  -5.001  35.509  1.00  0.00    -0.323 N 
HETATM    3  C8  UNK     1      20.260  -3.803  35.823  1.00  0.00     0.262 C 
HETATM    4  H3  UNK     1      19.019  -5.026  34.698  1.00  0.00     0.169 HD
ENDROOT
BRANCH   3   5
HETATM    5  C2  UNK     1      19.884  -2.722  34.904  1.00  0.00     0.108 A 
HETATM    6  C11 UNK     1      19.001  -1.609  35.321  1.00  0.00     0.304 A 
HETATM    7  O1  UNK     1      18.717  -0.643  34.360  1.00  0.00    -0.274 OA
HETATM    8  O3  UNK     1      18.542  -1.536  36.456  1.00  0.00    -0.259 OA
HETATM    9  C4  UNK     1      19.239  -0.717  33.054  1.00  0.00     0.089 A 
HETATM   10  C1  UNK     1      20.067  -1.772  32.684  1.00  0.00     0.001 A 
HETATM   11  C12 UNK     1      18.898   0.297  32.162  1.00  0.00     0.040 A 
HETATM   12  C9  UNK     1      20.566  -1.811  31.379  1.00  0.00     0.038 A 
HETATM   13  C5  UNK     1      20.383  -2.798  33.665  1.00  0.00     0.037 A 
HETATM   14  C15 UNK     1      20.232  -0.800  30.472  1.00  0.00     0.035 A 
HETATM   15 Cl2  UNK     1      20.850  -0.852  28.866  1.00  0.00    -0.084 Cl
HETATM   16  C17 UNK     1      19.401   0.252  30.863  1.00  0.00     0.026 A 
ENDBRANCH   3   5
BRANCH   2  17
HETATM   17  C3  UNK     1      19.762  -6.243  36.175  1.00  0.00     0.035 A 
HETATM   18  C10 UNK     1      19.119  -6.431  37.386  1.00  0.00     0.031 A 
HETATM   19  C14 UNK     1      19.247  -7.655  38.043  1.00  0.00     0.027 A 
HETATM   20  C13 UNK     1      20.015  -8.673  37.478  1.00  0.00     0.049 A 
HETATM   21 Cl1  UNK     1      20.152 -10.173  38.321  1.00  0.00    -0.083 Cl
HETATM   22  C6  UNK     1      20.657  -8.467  36.257  1.00  0.00     0.071 A 
HETATM   23  C7  UNK     1      20.529  -7.242  35.600  1.00  0.00     0.047 A 
BRANCH  22  24
HETATM   24  C16 UNK     1      21.491  -9.531  35.619  1.00  0.00     0.419 C 
HETATM   25  F1  UNK     1      22.742  -9.633  36.154  1.00  0.00    -0.166 F 
HETATM   26  F2  UNK     1      20.951 -10.780  35.725  1.00  0.00    -0.166 F 
HETATM   27  F3  UNK     1      21.675  -9.320  34.285  1.00  0.00    -0.166 F 
ENDBRANCH  22  24
ENDBRANCH   2  17
TORSDOF 3
ENDMDL
