MODEL 1
REMARK VINA RESULT:      -7.0      0.000      0.000
REMARK  5 active torsions:
REMARK  status: ('A' for Active; 'I' for Inactive)
REMARK    1  A    between atoms: C1_5  and  N1_4 
REMARK    2  A    between atoms: C2_6  and  N1_4 
REMARK       I    between atoms: C7_11  and  N1_4 
REMARK    3  A    between atoms: C1_5  and  C3_7 
REMARK    4  A    between atoms: C2_6  and  C4_8 
REMARK    5  A    between atoms: C10_14  and  C7_11 
ROOT
HETATM    1  O2  UNK     1      18.908   1.202  32.719  1.00  0.00    -0.274 OA
HETATM    2  O3  UNK     1      18.185   2.838  34.140  1.00  0.00    -0.259 OA
HETATM    3  C10 UNK     1      18.205   3.369  31.832  1.00  0.00     0.108 A 
HETATM    4  C11 UNK     1      18.464   2.970  30.580  1.00  0.00     0.037 A 
HETATM    5  C12 UNK     1      18.422   2.477  32.993  1.00  0.00     0.304 A 
HETATM    6  C13 UNK     1      18.972   1.631  30.328  1.00  0.00    -0.001 A 
HETATM    7  C14 UNK     1      19.183   0.777  31.406  1.00  0.00     0.089 A 
HETATM    8  C15 UNK     1      19.257   1.173  29.040  1.00  0.00     0.014 A 
HETATM    9  C16 UNK     1      19.668  -0.518  31.232  1.00  0.00     0.038 A 
HETATM   10  C17 UNK     1      19.744  -0.124  28.849  1.00  0.00     0.001 A 
HETATM   11  C18 UNK     1      19.948  -0.967  29.943  1.00  0.00     0.003 A 
ENDROOT
BRANCH   3  12
HETATM   12  C7  UNK     1      17.695   4.737  31.984  1.00  0.00     0.260 C 
HETATM   13  O1  UNK     1      16.487   4.891  32.201  1.00  0.00    -0.267 OA
HETATM   14  N1  UNK     1      18.615   5.786  31.887  1.00  0.00    -0.339 N 
BRANCH  14  15
HETATM   15  C1  UNK     1      20.034   5.555  31.628  1.00  0.00     0.083 C 
HETATM   16  C5  UNK     1      20.367   5.948  30.193  1.00  0.00     0.032 C 
BRANCH  15  17
HETATM   17  C3  UNK     1      20.913   6.326  32.623  1.00  0.00     0.020 C 
HETATM   18  C8  UNK     1      22.386   5.954  32.515  1.00  0.00     0.007 C 
ENDBRANCH  15  17
ENDBRANCH  14  15
BRANCH  14  19
HETATM   19  C2  UNK     1      18.220   7.180  32.036  1.00  0.00     0.083 C 
HETATM   20  C6  UNK     1      17.787   7.440  33.475  1.00  0.00     0.032 C 
BRANCH  19  21
HETATM   21  C4  UNK     1      17.102   7.553  31.054  1.00  0.00     0.020 C 
HETATM   22  C9  UNK     1      15.958   8.305  31.722  1.00  0.00     0.007 C 
ENDBRANCH  19  21
ENDBRANCH  14  19
ENDBRANCH   3  12
TORSDOF 5
ENDMDL
MODEL 2
REMARK VINA RESULT:      -7.0      2.646      7.291
REMARK  5 active torsions:
REMARK  status: ('A' for Active; 'I' for Inactive)
REMARK    1  A    between atoms: C1_5  and  N1_4 
REMARK    2  A    between atoms: C2_6  and  N1_4 
REMARK       I    between atoms: C7_11  and  N1_4 
REMARK    3  A    between atoms: C1_5  and  C3_7 
REMARK    4  A    between atoms: C2_6  and  C4_8 
REMARK    5  A    between atoms: C10_14  and  C7_11 
ROOT
HETATM    1  O2  UNK     1      14.459   8.067  33.234  1.00  0.00    -0.274 OA
HETATM    2  O3  UNK     1      14.723   6.211  31.929  1.00  0.00    -0.259 OA
HETATM    3  C10 UNK     1      16.615   7.616  32.174  1.00  0.00     0.108 A 
HETATM    4  C11 UNK     1      17.141   8.723  32.709  1.00  0.00     0.037 A 
HETATM    5  C12 UNK     1      15.208   7.225  32.417  1.00  0.00     0.304 A 
HETATM    6  C13 UNK     1      16.331   9.583  33.558  1.00  0.00    -0.001 A 
HETATM    7  C14 UNK     1      15.006   9.234  33.801  1.00  0.00     0.089 A 
HETATM    8  C15 UNK     1      16.838  10.749  34.137  1.00  0.00     0.014 A 
HETATM    9  C16 UNK     1      14.177  10.015  34.604  1.00  0.00     0.038 A 
HETATM   10  C17 UNK     1      16.018  11.542  34.946  1.00  0.00     0.001 A 
HETATM   11  C18 UNK     1      14.691  11.175  35.179  1.00  0.00     0.003 A 
ENDROOT
BRANCH   3  12
HETATM   12  C7  UNK     1      17.512   6.813  31.333  1.00  0.00     0.260 C 
HETATM   13  O1  UNK     1      17.478   6.986  30.108  1.00  0.00    -0.267 OA
HETATM   14  N1  UNK     1      18.364   5.908  31.973  1.00  0.00    -0.339 N 
BRANCH  14  15
HETATM   15  C1  UNK     1      18.368   5.738  33.424  1.00  0.00     0.083 C 
HETATM   16  C5  UNK     1      18.256   4.257  33.769  1.00  0.00     0.032 C 
BRANCH  15  17
HETATM   17  C3  UNK     1      19.628   6.350  34.051  1.00  0.00     0.020 C 
HETATM   18  C8  UNK     1      19.325   7.584  34.893  1.00  0.00     0.007 C 
ENDBRANCH  15  17
ENDBRANCH  14  15
BRANCH  14  19
HETATM   19  C2  UNK     1      19.303   5.073  31.237  1.00  0.00     0.083 C 
HETATM   20  C6  UNK     1      20.356   5.951  30.568  1.00  0.00     0.032 C 
BRANCH  19  21
HETATM   21  C4  UNK     1      18.583   4.199  30.203  1.00  0.00     0.020 C 
HETATM   22  C9  UNK     1      18.657   2.714  30.534  1.00  0.00     0.007 C 
ENDBRANCH  19  21
ENDBRANCH  14  19
ENDBRANCH   3  12
TORSDOF 5
ENDMDL
MODEL 3
REMARK VINA RESULT:      -6.9     14.075     17.483
REMARK  5 active torsions:
REMARK  status: ('A' for Active; 'I' for Inactive)
REMARK    1  A    between atoms: C1_5  and  N1_4 
REMARK    2  A    between atoms: C2_6  and  N1_4 
REMARK       I    between atoms: C7_11  and  N1_4 
REMARK    3  A    between atoms: C1_5  and  C3_7 
REMARK    4  A    between atoms: C2_6  and  C4_8 
REMARK    5  A    between atoms: C10_14  and  C7_11 
ROOT
HETATM    1  O2  UNK     1      19.341   1.049  15.485  1.00  0.00    -0.274 OA
HETATM    2  O3  UNK     1      19.483  -0.421  13.742  1.00  0.00    -0.259 OA
HETATM    3  C10 UNK     1      18.990  -1.339  15.870  1.00  0.00     0.108 A 
HETATM    4  C11 UNK     1      18.779  -1.125  17.174  1.00  0.00     0.037 A 
HETATM    5  C12 UNK     1      19.290  -0.229  14.938  1.00  0.00     0.304 A 
HETATM    6  C13 UNK     1      18.840   0.223  17.715  1.00  0.00    -0.001 A 
HETATM    7  C14 UNK     1      19.120   1.281  16.856  1.00  0.00     0.089 A 
HETATM    8  C15 UNK     1      18.627   0.493  19.069  1.00  0.00     0.014 A 
HETATM    9  C16 UNK     1      19.193   2.597  17.311  1.00  0.00     0.038 A 
HETATM   10  C17 UNK     1      18.697   1.808  19.540  1.00  0.00     0.001 A 
HETATM   11  C18 UNK     1      18.979   2.856  18.663  1.00  0.00     0.003 A 
ENDROOT
BRANCH   3  12
HETATM   12  C7  UNK     1      18.906  -2.734  15.420  1.00  0.00     0.260 C 
HETATM   13  O1  UNK     1      17.849  -3.122  14.908  1.00  0.00    -0.267 OA
HETATM   14  N1  UNK     1      20.038  -3.538  15.586  1.00  0.00    -0.339 N 
BRANCH  14  15
HETATM   15  C1  UNK     1      21.267  -3.035  16.197  1.00  0.00     0.083 C 
HETATM   16  C5  UNK     1      21.396  -3.577  17.616  1.00  0.00     0.032 C 
BRANCH  15  17
HETATM   17  C3  UNK     1      22.497  -3.405  15.357  1.00  0.00     0.020 C 
HETATM   18  C8  UNK     1      23.740  -3.635  16.207  1.00  0.00     0.007 C 
ENDBRANCH  15  17
ENDBRANCH  14  15
BRANCH  14  19
HETATM   19  C2  UNK     1      20.070  -4.931  15.162  1.00  0.00     0.083 C 
HETATM   20  C6  UNK     1      19.935  -5.010  13.645  1.00  0.00     0.032 C 
BRANCH  19  21
HETATM   21  C4  UNK     1      18.971  -5.750  15.851  1.00  0.00     0.020 C 
HETATM   22  C9  UNK     1      18.144  -6.569  14.868  1.00  0.00     0.007 C 
ENDBRANCH  19  21
ENDBRANCH  14  19
ENDBRANCH   3  12
TORSDOF 5
ENDMDL
MODEL 4
REMARK VINA RESULT:      -6.8     14.033     15.864
REMARK  5 active torsions:
REMARK  status: ('A' for Active; 'I' for Inactive)
REMARK    1  A    between atoms: C1_5  and  N1_4 
REMARK    2  A    between atoms: C2_6  and  N1_4 
REMARK       I    between atoms: C7_11  and  N1_4 
REMARK    3  A    between atoms: C1_5  and  C3_7 
REMARK    4  A    between atoms: C2_6  and  C4_8 
REMARK    5  A    between atoms: C10_14  and  C7_11 
ROOT
HETATM    1  O2  UNK     1      29.345  -9.038  33.175  1.00  0.00    -0.274 OA
HETATM    2  O3  UNK     1      30.377  -9.126  35.211  1.00  0.00    -0.259 OA
HETATM    3  C10 UNK     1      29.202  -7.133  34.700  1.00  0.00     0.108 A 
HETATM    4  C11 UNK     1      28.458  -6.451  33.822  1.00  0.00     0.037 A 
HETATM    5  C12 UNK     1      29.695  -8.498  34.409  1.00  0.00     0.304 A 
HETATM    6  C13 UNK     1      28.109  -7.044  32.541  1.00  0.00    -0.001 A 
HETATM    7  C14 UNK     1      28.562  -8.326  32.246  1.00  0.00     0.089 A 
HETATM    8  C15 UNK     1      27.335  -6.369  31.594  1.00  0.00     0.014 A 
HETATM    9  C16 UNK     1      28.263  -8.950  31.037  1.00  0.00     0.038 A 
HETATM   10  C17 UNK     1      27.027  -6.982  30.375  1.00  0.00     0.001 A 
HETATM   11  C18 UNK     1      27.490  -8.270  30.099  1.00  0.00     0.003 A 
ENDROOT
BRANCH   3  12
HETATM   12  C7  UNK     1      29.501  -6.450  35.966  1.00  0.00     0.260 C 
HETATM   13  O1  UNK     1      28.650  -6.482  36.863  1.00  0.00    -0.267 OA
HETATM   14  N1  UNK     1      30.741  -5.816  36.083  1.00  0.00    -0.339 N 
BRANCH  14  15
HETATM   15  C1  UNK     1      31.715  -5.804  34.994  1.00  0.00     0.083 C 
HETATM   16  C5  UNK     1      32.203  -4.380  34.754  1.00  0.00     0.032 C 
BRANCH  15  17
HETATM   17  C3  UNK     1      32.893  -6.741  35.293  1.00  0.00     0.020 C 
HETATM   18  C8  UNK     1      34.229  -6.009  35.335  1.00  0.00     0.007 C 
ENDBRANCH  15  17
ENDBRANCH  14  15
BRANCH  14  19
HETATM   19  C2  UNK     1      31.145  -5.122  37.298  1.00  0.00     0.083 C 
HETATM   20  C6  UNK     1      31.322  -6.128  38.430  1.00  0.00     0.032 C 
BRANCH  19  21
HETATM   21  C4  UNK     1      30.133  -4.036  37.686  1.00  0.00     0.020 C 
HETATM   22  C9  UNK     1      29.719  -4.113  39.150  1.00  0.00     0.007 C 
ENDBRANCH  19  21
ENDBRANCH  14  19
ENDBRANCH   3  12
TORSDOF 5
ENDMDL
MODEL 5
REMARK VINA RESULT:      -6.8     15.783     17.496
REMARK  5 active torsions:
REMARK  status: ('A' for Active; 'I' for Inactive)
REMARK    1  A    between atoms: C1_5  and  N1_4 
REMARK    2  A    between atoms: C2_6  and  N1_4 
REMARK       I    between atoms: C7_11  and  N1_4 
REMARK    3  A    between atoms: C1_5  and  C3_7 
REMARK    4  A    between atoms: C2_6  and  C4_8 
REMARK    5  A    between atoms: C10_14  and  C7_11 
ROOT
HETATM    1  O2  UNK     1      28.139  -5.898  38.469  1.00  0.00    -0.274 OA
HETATM    2  O3  UNK     1      29.520  -4.156  37.940  1.00  0.00    -0.259 OA
HETATM    3  C10 UNK     1      30.510  -6.306  38.037  1.00  0.00     0.108 A 
HETATM    4  C11 UNK     1      30.351  -7.617  38.252  1.00  0.00     0.037 A 
HETATM    5  C12 UNK     1      29.378  -5.357  38.138  1.00  0.00     0.304 A 
HETATM    6  C13 UNK     1      29.042  -8.150  38.596  1.00  0.00    -0.001 A 
HETATM    7  C14 UNK     1      27.965  -7.276  38.697  1.00  0.00     0.089 A 
HETATM    8  C15 UNK     1      28.830  -9.510  38.831  1.00  0.00     0.014 A 
HETATM    9  C16 UNK     1      26.685  -7.722  39.023  1.00  0.00     0.038 A 
HETATM   10  C17 UNK     1      27.553  -9.974  39.159  1.00  0.00     0.001 A 
HETATM   11  C18 UNK     1      26.483  -9.081  39.254  1.00  0.00     0.003 A 
ENDROOT
BRANCH   3  12
HETATM   12  C7  UNK     1      31.868  -5.865  37.694  1.00  0.00     0.260 C 
HETATM   13  O1  UNK     1      32.535  -5.292  38.565  1.00  0.00    -0.267 OA
HETATM   14  N1  UNK     1      32.330  -6.134  36.403  1.00  0.00    -0.339 N 
BRANCH  14  15
HETATM   15  C1  UNK     1      31.505  -6.814  35.407  1.00  0.00     0.083 C 
HETATM   16  C5  UNK     1      31.008  -5.807  34.376  1.00  0.00     0.032 C 
BRANCH  15  17
HETATM   17  C3  UNK     1      32.279  -7.953  34.729  1.00  0.00     0.020 C 
HETATM   18  C8  UNK     1      32.371  -9.200  35.599  1.00  0.00     0.007 C 
ENDBRANCH  15  17
ENDBRANCH  14  15
BRANCH  14  19
HETATM   19  C2  UNK     1      33.666  -5.754  35.962  1.00  0.00     0.083 C 
HETATM   20  C6  UNK     1      34.705  -6.313  36.928  1.00  0.00     0.032 C 
BRANCH  19  21
HETATM   21  C4  UNK     1      33.801  -4.231  35.836  1.00  0.00     0.020 C 
HETATM   22  C9  UNK     1      34.422  -3.803  34.513  1.00  0.00     0.007 C 
ENDBRANCH  19  21
ENDBRANCH  14  19
ENDBRANCH   3  12
TORSDOF 5
ENDMDL
MODEL 6
REMARK VINA RESULT:      -6.8     14.115     15.862
REMARK  5 active torsions:
REMARK  status: ('A' for Active; 'I' for Inactive)
REMARK    1  A    between atoms: C1_5  and  N1_4 
REMARK    2  A    between atoms: C2_6  and  N1_4 
REMARK       I    between atoms: C7_11  and  N1_4 
REMARK    3  A    between atoms: C1_5  and  C3_7 
REMARK    4  A    between atoms: C2_6  and  C4_8 
REMARK    5  A    between atoms: C10_14  and  C7_11 
ROOT
HETATM    1  O2  UNK     1      28.700  -9.246  33.369  1.00  0.00    -0.274 OA
HETATM    2  O3  UNK     1      28.677  -9.814  35.582  1.00  0.00    -0.259 OA
HETATM    3  C10 UNK     1      28.249  -7.542  35.064  1.00  0.00     0.108 A 
HETATM    4  C11 UNK     1      28.116  -6.601  34.122  1.00  0.00     0.037 A 
HETATM    5  C12 UNK     1      28.556  -8.949  34.722  1.00  0.00     0.304 A 
HETATM    6  C13 UNK     1      28.273  -6.944  32.717  1.00  0.00    -0.001 A 
HETATM    7  C14 UNK     1      28.562  -8.261  32.373  1.00  0.00     0.089 A 
HETATM    8  C15 UNK     1      28.145  -5.995  31.700  1.00  0.00     0.014 A 
HETATM    9  C16 UNK     1      28.724  -8.654  31.046  1.00  0.00     0.038 A 
HETATM   10  C17 UNK     1      28.305  -6.374  30.363  1.00  0.00     0.001 A 
HETATM   11  C18 UNK     1      28.594  -7.701  30.038  1.00  0.00     0.003 A 
ENDROOT
BRANCH   3  12
HETATM   12  C7  UNK     1      28.072  -7.098  36.452  1.00  0.00     0.260 C 
HETATM   13  O1  UNK     1      26.921  -7.006  36.895  1.00  0.00    -0.267 OA
HETATM   14  N1  UNK     1      29.223  -6.821  37.196  1.00  0.00    -0.339 N 
BRANCH  14  15
HETATM   15  C1  UNK     1      30.564  -6.945  36.628  1.00  0.00     0.083 C 
HETATM   16  C5  UNK     1      31.065  -5.574  36.187  1.00  0.00     0.032 C 
BRANCH  15  17
HETATM   17  C3  UNK     1      31.535  -7.583  37.632  1.00  0.00     0.020 C 
HETATM   18  C8  UNK     1      31.471  -9.105  37.623  1.00  0.00     0.007 C 
ENDBRANCH  15  17
ENDBRANCH  14  15
BRANCH  14  19
HETATM   19  C2  UNK     1      29.164  -6.388  38.585  1.00  0.00     0.083 C 
HETATM   20  C6  UNK     1      28.288  -7.347  39.385  1.00  0.00     0.032 C 
BRANCH  19  21
HETATM   21  C4  UNK     1      28.645  -4.949  38.701  1.00  0.00     0.020 C 
HETATM   22  C9  UNK     1      29.690  -3.990  39.258  1.00  0.00     0.007 C 
ENDBRANCH  19  21
ENDBRANCH  14  19
ENDBRANCH   3  12
TORSDOF 5
ENDMDL
MODEL 7
REMARK VINA RESULT:      -6.6      7.238     11.241
REMARK  5 active torsions:
REMARK  status: ('A' for Active; 'I' for Inactive)
REMARK    1  A    between atoms: C1_5  and  N1_4 
REMARK    2  A    between atoms: C2_6  and  N1_4 
REMARK       I    between atoms: C7_11  and  N1_4 
REMARK    3  A    between atoms: C1_5  and  C3_7 
REMARK    4  A    between atoms: C2_6  and  C4_8 
REMARK    5  A    between atoms: C10_14  and  C7_11 
ROOT
HETATM    1  O2  UNK     1      19.544  -1.826  34.667  1.00  0.00    -0.274 OA
HETATM    2  O3  UNK     1      20.866  -3.684  34.526  1.00  0.00    -0.259 OA
HETATM    3  C10 UNK     1      19.836  -3.270  36.619  1.00  0.00     0.108 A 
HETATM    4  C11 UNK     1      19.037  -2.486  37.352  1.00  0.00     0.037 A 
HETATM    5  C12 UNK     1      20.136  -2.968  35.201  1.00  0.00     0.304 A 
HETATM    6  C13 UNK     1      18.435  -1.299  36.765  1.00  0.00    -0.001 A 
HETATM    7  C14 UNK     1      18.703  -0.997  35.434  1.00  0.00     0.089 A 
HETATM    8  C15 UNK     1      17.596  -0.452  37.492  1.00  0.00     0.014 A 
HETATM    9  C16 UNK     1      18.157   0.124  34.811  1.00  0.00     0.038 A 
HETATM   10  C17 UNK     1      17.041   0.677  36.882  1.00  0.00     0.001 A 
HETATM   11  C18 UNK     1      17.321   0.964  35.544  1.00  0.00     0.003 A 
ENDROOT
BRANCH   3  12
HETATM   12  C7  UNK     1      20.396  -4.444  37.300  1.00  0.00     0.260 C 
HETATM   13  O1  UNK     1      21.303  -4.266  38.122  1.00  0.00    -0.267 OA
HETATM   14  N1  UNK     1      19.855  -5.694  36.987  1.00  0.00    -0.339 N 
BRANCH  14  15
HETATM   15  C1  UNK     1      18.782  -5.854  36.008  1.00  0.00     0.083 C 
HETATM   16  C5  UNK     1      19.175  -6.910  34.981  1.00  0.00     0.032 C 
BRANCH  15  17
HETATM   17  C3  UNK     1      17.458  -6.223  36.690  1.00  0.00     0.020 C 
HETATM   18  C8  UNK     1      16.469  -6.882  35.736  1.00  0.00     0.007 C 
ENDBRANCH  15  17
ENDBRANCH  14  15
BRANCH  14  19
HETATM   19  C2  UNK     1      20.325  -6.922  37.614  1.00  0.00     0.083 C 
HETATM   20  C6  UNK     1      20.043  -6.875  39.112  1.00  0.00     0.032 C 
BRANCH  19  21
HETATM   21  C4  UNK     1      21.818  -7.151  37.346  1.00  0.00     0.020 C 
HETATM   22  C9  UNK     1      22.099  -8.500  36.696  1.00  0.00     0.007 C 
ENDBRANCH  19  21
ENDBRANCH  14  19
ENDBRANCH   3  12
TORSDOF 5
ENDMDL
MODEL 8
REMARK VINA RESULT:      -6.6     14.141     16.105
REMARK  5 active torsions:
REMARK  status: ('A' for Active; 'I' for Inactive)
REMARK    1  A    between atoms: C1_5  and  N1_4 
REMARK    2  A    between atoms: C2_6  and  N1_4 
REMARK       I    between atoms: C7_11  and  N1_4 
REMARK    3  A    between atoms: C1_5  and  C3_7 
REMARK    4  A    between atoms: C2_6  and  C4_8 
REMARK    5  A    between atoms: C10_14  and  C7_11 
ROOT
HETATM    1  O2  UNK     1      29.864  -8.782  32.675  1.00  0.00    -0.274 OA
HETATM    2  O3  UNK     1      31.349  -8.740  34.410  1.00  0.00    -0.259 OA
HETATM    3  C10 UNK     1      29.835  -6.924  34.264  1.00  0.00     0.108 A 
HETATM    4  C11 UNK     1      28.820  -6.346  33.610  1.00  0.00     0.037 A 
HETATM    5  C12 UNK     1      30.421  -8.206  33.814  1.00  0.00     0.304 A 
HETATM    6  C13 UNK     1      28.260  -6.973  32.423  1.00  0.00    -0.001 A 
HETATM    7  C14 UNK     1      28.796  -8.179  31.983  1.00  0.00     0.089 A 
HETATM    8  C15 UNK     1      27.203  -6.405  31.709  1.00  0.00     0.014 A 
HETATM    9  C16 UNK     1      28.306  -8.831  30.853  1.00  0.00     0.038 A 
HETATM   10  C17 UNK     1      26.700  -7.047  30.574  1.00  0.00     0.001 A 
HETATM   11  C18 UNK     1      27.250  -8.257  30.147  1.00  0.00     0.003 A 
ENDROOT
BRANCH   3  12
HETATM   12  C7  UNK     1      30.330  -6.215  35.450  1.00  0.00     0.260 C 
HETATM   13  O1  UNK     1      31.230  -5.380  35.300  1.00  0.00    -0.267 OA
HETATM   14  N1  UNK     1      29.739  -6.519  36.681  1.00  0.00    -0.339 N 
BRANCH  14  15
HETATM   15  C1  UNK     1      28.677  -7.515  36.809  1.00  0.00     0.083 C 
HETATM   16  C5  UNK     1      29.258  -8.822  37.336  1.00  0.00     0.032 C 
BRANCH  15  17
HETATM   17  C3  UNK     1      27.551  -7.011  37.722  1.00  0.00     0.020 C 
HETATM   18  C8  UNK     1      27.357  -7.887  38.953  1.00  0.00     0.007 C 
ENDBRANCH  15  17
ENDBRANCH  14  15
BRANCH  14  19
HETATM   19  C2  UNK     1      30.144  -5.865  37.918  1.00  0.00     0.083 C 
HETATM   20  C6  UNK     1      30.039  -4.352  37.758  1.00  0.00     0.032 C 
BRANCH  19  21
HETATM   21  C4  UNK     1      31.564  -6.274  38.328  1.00  0.00     0.020 C 
HETATM   22  C9  UNK     1      32.480  -5.076  38.548  1.00  0.00     0.007 C 
ENDBRANCH  19  21
ENDBRANCH  14  19
ENDBRANCH   3  12
TORSDOF 5
ENDMDL
MODEL 9
REMARK VINA RESULT:      -6.6     22.806     24.293
REMARK  5 active torsions:
REMARK  status: ('A' for Active; 'I' for Inactive)
REMARK    1  A    between atoms: C1_5  and  N1_4 
REMARK    2  A    between atoms: C2_6  and  N1_4 
REMARK       I    between atoms: C7_11  and  N1_4 
REMARK    3  A    between atoms: C1_5  and  C3_7 
REMARK    4  A    between atoms: C2_6  and  C4_8 
REMARK    5  A    between atoms: C10_14  and  C7_11 
ROOT
HETATM    1  O2  UNK     1      12.125   6.620   6.235  1.00  0.00    -0.274 OA
HETATM    2  O3  UNK     1      14.386   6.872   6.448  1.00  0.00    -0.259 OA
HETATM    3  C10 UNK     1      13.131   6.796   8.456  1.00  0.00     0.108 A 
HETATM    4  C11 UNK     1      11.931   6.682   9.038  1.00  0.00     0.037 A 
HETATM    5  C12 UNK     1      13.288   6.769   6.984  1.00  0.00     0.304 A 
HETATM    6  C13 UNK     1      10.734   6.528   8.226  1.00  0.00    -0.001 A 
HETATM    7  C14 UNK     1      10.859   6.500   6.841  1.00  0.00     0.089 A 
HETATM    8  C15 UNK     1       9.462   6.407   8.790  1.00  0.00     0.014 A 
HETATM    9  C16 UNK     1       9.753   6.355   6.006  1.00  0.00     0.038 A 
HETATM   10  C17 UNK     1       8.342   6.261   7.966  1.00  0.00     0.001 A 
HETATM   11  C18 UNK     1       8.488   6.234   6.578  1.00  0.00     0.003 A 
ENDROOT
BRANCH   3  12
HETATM   12  C7  UNK     1      14.278   6.947   9.359  1.00  0.00     0.260 C 
HETATM   13  O1  UNK     1      14.725   5.935   9.913  1.00  0.00    -0.267 OA
HETATM   14  N1  UNK     1      14.806   8.231   9.528  1.00  0.00    -0.339 N 
BRANCH  14  15
HETATM   15  C1  UNK     1      14.243   9.398   8.852  1.00  0.00     0.083 C 
HETATM   16  C5  UNK     1      13.222  10.075   9.759  1.00  0.00     0.032 C 
BRANCH  15  17
HETATM   17  C3  UNK     1      15.344  10.384   8.438  1.00  0.00     0.020 C 
HETATM   18  C8  UNK     1      15.134  11.777   9.018  1.00  0.00     0.007 C 
ENDBRANCH  15  17
ENDBRANCH  14  15
BRANCH  14  19
HETATM   19  C2  UNK     1      15.951   8.492  10.389  1.00  0.00     0.083 C 
HETATM   20  C6  UNK     1      17.145   7.666   9.920  1.00  0.00     0.032 C 
BRANCH  19  21
HETATM   21  C4  UNK     1      15.626   8.196  11.858  1.00  0.00     0.020 C 
HETATM   22  C9  UNK     1      14.818   9.307  12.517  1.00  0.00     0.007 C 
ENDBRANCH  19  21
ENDBRANCH  14  19
ENDBRANCH   3  12
TORSDOF 5
ENDMDL
MODEL 10
REMARK VINA RESULT:      -6.6     15.832     17.460
REMARK  5 active torsions:
REMARK  status: ('A' for Active; 'I' for Inactive)
REMARK    1  A    between atoms: C1_5  and  N1_4 
REMARK    2  A    between atoms: C2_6  and  N1_4 
REMARK       I    between atoms: C7_11  and  N1_4 
REMARK    3  A    between atoms: C1_5  and  C3_7 
REMARK    4  A    between atoms: C2_6  and  C4_8 
REMARK    5  A    between atoms: C10_14  and  C7_11 
ROOT
HETATM    1  O2  UNK     1      30.102  -9.745  38.570  1.00  0.00    -0.274 OA
HETATM    2  O3  UNK     1      32.118  -9.401  37.553  1.00  0.00    -0.259 OA
HETATM    3  C10 UNK     1      30.341  -7.979  36.897  1.00  0.00     0.108 A 
HETATM    4  C11 UNK     1      29.056  -7.634  37.037  1.00  0.00     0.037 A 
HETATM    5  C12 UNK     1      30.941  -9.083  37.679  1.00  0.00     0.304 A 
HETATM    6  C13 UNK     1      28.204  -8.347  37.978  1.00  0.00    -0.001 A 
HETATM    7  C14 UNK     1      28.748  -9.387  38.723  1.00  0.00     0.089 A 
HETATM    8  C15 UNK     1      26.858  -8.022  38.156  1.00  0.00     0.014 A 
HETATM    9  C16 UNK     1      27.987 -10.110  39.640  1.00  0.00     0.038 A 
HETATM   10  C17 UNK     1      26.081  -8.737  39.073  1.00  0.00     0.001 A 
HETATM   11  C18 UNK     1      26.645  -9.778  39.813  1.00  0.00     0.003 A 
ENDROOT
BRANCH   3  12
HETATM   12  C7  UNK     1      31.118  -7.201  35.924  1.00  0.00     0.260 C 
HETATM   13  O1  UNK     1      31.283  -7.674  34.793  1.00  0.00    -0.267 OA
HETATM   14  N1  UNK     1      31.614  -5.960  36.335  1.00  0.00    -0.339 N 
BRANCH  14  15
HETATM   15  C1  UNK     1      31.394  -5.442  37.684  1.00  0.00     0.083 C 
HETATM   16  C5  UNK     1      32.735  -5.170  38.356  1.00  0.00     0.032 C 
BRANCH  15  17
HETATM   17  C3  UNK     1      30.529  -4.175  37.658  1.00  0.00     0.020 C 
HETATM   18  C8  UNK     1      29.425  -4.196  38.708  1.00  0.00     0.007 C 
ENDBRANCH  15  17
ENDBRANCH  14  15
BRANCH  14  19
HETATM   19  C2  UNK     1      32.385  -5.100  35.448  1.00  0.00     0.083 C 
HETATM   20  C6  UNK     1      31.600  -4.851  34.164  1.00  0.00     0.032 C 
BRANCH  19  21
HETATM   21  C4  UNK     1      33.760  -5.705  35.138  1.00  0.00     0.020 C 
HETATM   22  C9  UNK     1      34.768  -4.664  34.666  1.00  0.00     0.007 C 
ENDBRANCH  19  21
ENDBRANCH  14  19
ENDBRANCH   3  12
TORSDOF 5
ENDMDL
