MODEL 1
REMARK VINA RESULT:      -7.2      0.000      0.000
REMARK  4 active torsions:
REMARK  status: ('A' for Active; 'I' for Inactive)
REMARK    1  A    between atoms: C3_6  and  O1_1 
REMARK    2  A    between atoms: C4_7  and  O1_1 
REMARK    3  A    between atoms: C1_4  and  C2_5 
REMARK    4  A    between atoms: C1_4  and  C3_6 
ROOT
HETATM    1  O2  UNK     1      19.894  -0.514  31.852  1.00  0.00    -0.275 OA
HETATM    2  O3  UNK     1      20.997  -2.518  31.953  1.00  0.00    -0.260 OA
HETATM    3  C4  UNK     1      18.194   2.624  30.977  1.00  0.00     0.071 A 
HETATM    4  C5  UNK     1      19.438   0.477  29.677  1.00  0.00    -0.002 A 
HETATM    5  C6  UNK     1      19.353   0.523  31.066  1.00  0.00     0.092 A 
HETATM    6  C7  UNK     1      18.738   1.583  31.728  1.00  0.00     0.075 A 
HETATM    7  C9  UNK     1      18.269   2.594  29.583  1.00  0.00     0.038 A 
HETATM    8  C10 UNK     1      18.889   1.524  28.932  1.00  0.00     0.017 A 
HETATM    9  C11 UNK     1      20.092  -0.659  29.052  1.00  0.00     0.020 A 
HETATM   10  C12 UNK     1      20.602  -1.638  29.804  1.00  0.00     0.083 A 
HETATM   11  C13 UNK     1      20.524  -1.612  31.276  1.00  0.00     0.288 A 
ENDROOT
BRANCH   3  12
HETATM   12  O1  UNK     1      17.588   3.671  31.602  1.00  0.00    -0.351 OA
BRANCH  12  13
HETATM   13  C3  UNK     1      18.335   4.341  32.616  1.00  0.00     0.175 C 
BRANCH  13  14
HETATM   14  C1  UNK     1      18.569   5.781  32.183  1.00  0.00     0.026 C 
BRANCH  14  15
HETATM   15  C2  UNK     1      19.958   5.970  31.580  1.00  0.00    -0.002 C 
HETATM   16  C8  UNK     1      19.925   5.874  30.063  1.00  0.00     0.005 C 
ENDBRANCH  14  15
ENDBRANCH  13  14
ENDBRANCH  12  13
ENDBRANCH   3  12
TORSDOF 4
ENDMDL
MODEL 2
REMARK VINA RESULT:      -6.6      2.561      6.827
REMARK  4 active torsions:
REMARK  status: ('A' for Active; 'I' for Inactive)
REMARK    1  A    between atoms: C3_6  and  O1_1 
REMARK    2  A    between atoms: C4_7  and  O1_1 
REMARK    3  A    between atoms: C1_4  and  C2_5 
REMARK    4  A    between atoms: C1_4  and  C3_6 
ROOT
HETATM    1  O2  UNK     1      17.291   6.242  33.549  1.00  0.00    -0.275 OA
HETATM    2  O3  UNK     1      16.626   7.406  35.405  1.00  0.00    -0.260 OA
HETATM    3  C4  UNK     1      18.980   4.727  30.658  1.00  0.00     0.071 A 
HETATM    4  C5  UNK     1      19.537   6.587  32.678  1.00  0.00    -0.002 A 
HETATM    5  C6  UNK     1      18.297   5.957  32.604  1.00  0.00     0.092 A 
HETATM    6  C7  UNK     1      18.004   5.030  31.606  1.00  0.00     0.075 A 
HETATM    7  C9  UNK     1      20.229   5.349  30.716  1.00  0.00     0.038 A 
HETATM    8  C10 UNK     1      20.509   6.277  31.724  1.00  0.00     0.017 A 
HETATM    9  C11 UNK     1      19.775   7.543  33.745  1.00  0.00     0.020 A 
HETATM   10  C12 UNK     1      18.816   7.808  34.637  1.00  0.00     0.083 A 
HETATM   11  C13 UNK     1      17.496   7.153  34.580  1.00  0.00     0.288 A 
ENDROOT
BRANCH   3  12
HETATM   12  O1  UNK     1      18.716   3.825  29.674  1.00  0.00    -0.351 OA
BRANCH  12  13
HETATM   13  C3  UNK     1      18.698   2.447  30.045  1.00  0.00     0.175 C 
BRANCH  13  14
HETATM   14  C1  UNK     1      18.066   1.643  28.918  1.00  0.00     0.026 C 
BRANCH  14  15
HETATM   15  C2  UNK     1      18.933   0.451  28.521  1.00  0.00    -0.002 C 
HETATM   16  C8  UNK     1      20.087   0.254  29.490  1.00  0.00     0.005 C 
ENDBRANCH  14  15
ENDBRANCH  13  14
ENDBRANCH  12  13
ENDBRANCH   3  12
TORSDOF 4
ENDMDL
MODEL 3
REMARK VINA RESULT:      -6.6     22.462     24.148
REMARK  4 active torsions:
REMARK  status: ('A' for Active; 'I' for Inactive)
REMARK    1  A    between atoms: C3_6  and  O1_1 
REMARK    2  A    between atoms: C4_7  and  O1_1 
REMARK    3  A    between atoms: C1_4  and  C2_5 
REMARK    4  A    between atoms: C1_4  and  C3_6 
ROOT
HETATM    1  O2  UNK     1       9.690   5.496   8.642  1.00  0.00    -0.275 OA
HETATM    2  O3  UNK     1       7.544   5.520   7.842  1.00  0.00    -0.260 OA
HETATM    3  C4  UNK     1      13.305   5.693   9.268  1.00  0.00     0.071 A 
HETATM    4  C5  UNK     1      11.508   6.168   7.172  1.00  0.00    -0.002 A 
HETATM    5  C6  UNK     1      11.062   5.721   8.413  1.00  0.00     0.092 A 
HETATM    6  C7  UNK     1      11.942   5.479   9.465  1.00  0.00     0.075 A 
HETATM    7  C9  UNK     1      13.771   6.142   8.030  1.00  0.00     0.038 A 
HETATM    8  C10 UNK     1      12.876   6.380   6.983  1.00  0.00     0.017 A 
HETATM    9  C11 UNK     1      10.536   6.401   6.119  1.00  0.00     0.020 A 
HETATM   10  C12 UNK     1       9.236   6.186   6.344  1.00  0.00     0.083 A 
HETATM   11  C13 UNK     1       8.740   5.713   7.650  1.00  0.00     0.288 A 
ENDROOT
BRANCH   3  12
HETATM   12  O1  UNK     1      14.185   5.463  10.281  1.00  0.00    -0.351 OA
BRANCH  12  13
HETATM   13  C3  UNK     1      15.556   5.771  10.033  1.00  0.00     0.175 C 
BRANCH  13  14
HETATM   14  C1  UNK     1      15.899   7.081  10.728  1.00  0.00     0.026 C 
BRANCH  14  15
HETATM   15  C2  UNK     1      17.220   7.656  10.224  1.00  0.00    -0.002 C 
HETATM   16  C8  UNK     1      17.067   9.105   9.789  1.00  0.00     0.005 C 
ENDBRANCH  14  15
ENDBRANCH  13  14
ENDBRANCH  12  13
ENDBRANCH   3  12
TORSDOF 4
ENDMDL
MODEL 4
REMARK VINA RESULT:      -6.5      3.078      4.912
REMARK  4 active torsions:
REMARK  status: ('A' for Active; 'I' for Inactive)
REMARK    1  A    between atoms: C3_6  and  O1_1 
REMARK    2  A    between atoms: C4_7  and  O1_1 
REMARK    3  A    between atoms: C1_4  and  C2_5 
REMARK    4  A    between atoms: C1_4  and  C3_6 
ROOT
HETATM    1  O2  UNK     1      18.730   0.648  30.713  1.00  0.00    -0.275 OA
HETATM    2  O3  UNK     1      18.710   1.649  28.654  1.00  0.00    -0.260 OA
HETATM    3  C4  UNK     1      19.263  -1.387  33.726  1.00  0.00     0.071 A 
HETATM    4  C5  UNK     1      20.223  -1.235  31.099  1.00  0.00    -0.002 A 
HETATM    5  C6  UNK     1      19.253  -0.349  31.561  1.00  0.00     0.092 A 
HETATM    6  C7  UNK     1      18.764  -0.411  32.865  1.00  0.00     0.075 A 
HETATM    7  C9  UNK     1      20.236  -2.283  33.280  1.00  0.00     0.038 A 
HETATM    8  C10 UNK     1      20.717  -2.209  31.970  1.00  0.00     0.017 A 
HETATM    9  C11 UNK     1      20.687  -1.113  29.728  1.00  0.00     0.020 A 
HETATM   10  C12 UNK     1      20.187  -0.165  28.931  1.00  0.00     0.083 A 
HETATM   11  C13 UNK     1      19.160   0.784  29.397  1.00  0.00     0.288 A 
ENDROOT
BRANCH   3  12
HETATM   12  O1  UNK     1      18.801  -1.467  35.004  1.00  0.00    -0.351 OA
BRANCH  12  13
HETATM   13  C3  UNK     1      17.741  -0.582  35.368  1.00  0.00     0.175 C 
BRANCH  13  14
HETATM   14  C1  UNK     1      17.977  -0.090  36.789  1.00  0.00     0.026 C 
BRANCH  14  15
HETATM   15  C2  UNK     1      18.043   1.433  36.854  1.00  0.00    -0.002 C 
HETATM   16  C8  UNK     1      19.012   1.993  35.825  1.00  0.00     0.005 C 
ENDBRANCH  14  15
ENDBRANCH  13  14
ENDBRANCH  12  13
ENDBRANCH   3  12
TORSDOF 4
ENDMDL
MODEL 5
REMARK VINA RESULT:      -6.5      1.570      2.296
REMARK  4 active torsions:
REMARK  status: ('A' for Active; 'I' for Inactive)
REMARK    1  A    between atoms: C3_6  and  O1_1 
REMARK    2  A    between atoms: C4_7  and  O1_1 
REMARK    3  A    between atoms: C1_4  and  C2_5 
REMARK    4  A    between atoms: C1_4  and  C3_6 
ROOT
HETATM    1  O2  UNK     1      19.632   0.867  29.549  1.00  0.00    -0.275 OA
HETATM    2  O3  UNK     1      20.595  -0.732  28.222  1.00  0.00    -0.260 OA
HETATM    3  C4  UNK     1      18.113   2.924  32.188  1.00  0.00     0.071 A 
HETATM    4  C5  UNK     1      19.118   0.329  31.866  1.00  0.00    -0.002 A 
HETATM    5  C6  UNK     1      19.121   1.236  30.810  1.00  0.00     0.092 A 
HETATM    6  C7  UNK     1      18.625   2.530  30.953  1.00  0.00     0.075 A 
HETATM    7  C9  UNK     1      18.102   2.028  33.259  1.00  0.00     0.038 A 
HETATM    8  C10 UNK     1      18.604   0.733  33.101  1.00  0.00     0.017 A 
HETATM    9  C11 UNK     1      19.652  -1.003  31.647  1.00  0.00     0.020 A 
HETATM   10  C12 UNK     1      20.135  -1.346  30.450  1.00  0.00     0.083 A 
HETATM   11  C13 UNK     1      20.149  -0.403  29.316  1.00  0.00     0.288 A 
ENDROOT
BRANCH   3  12
HETATM   12  O1  UNK     1      17.622   4.184  32.352  1.00  0.00    -0.351 OA
BRANCH  12  13
HETATM   13  C3  UNK     1      18.574   5.234  32.517  1.00  0.00     0.175 C 
BRANCH  13  14
HETATM   14  C1  UNK     1      18.206   6.382  31.588  1.00  0.00     0.026 C 
BRANCH  14  15
HETATM   15  C2  UNK     1      18.811   6.200  30.199  1.00  0.00    -0.002 C 
HETATM   16  C8  UNK     1      20.274   5.796  30.277  1.00  0.00     0.005 C 
ENDBRANCH  14  15
ENDBRANCH  13  14
ENDBRANCH  12  13
ENDBRANCH   3  12
TORSDOF 4
ENDMDL
MODEL 6
REMARK VINA RESULT:      -6.5      3.417      6.102
REMARK  4 active torsions:
REMARK  status: ('A' for Active; 'I' for Inactive)
REMARK    1  A    between atoms: C3_6  and  O1_1 
REMARK    2  A    between atoms: C4_7  and  O1_1 
REMARK    3  A    between atoms: C1_4  and  C2_5 
REMARK    4  A    between atoms: C1_4  and  C3_6 
ROOT
HETATM    1  O2  UNK     1      16.956  -0.208  34.138  1.00  0.00    -0.275 OA
HETATM    2  O3  UNK     1      15.343   0.571  35.565  1.00  0.00    -0.260 OA
HETATM    3  C4  UNK     1      19.835  -1.739  32.444  1.00  0.00     0.071 A 
HETATM    4  C5  UNK     1      18.803  -1.512  35.039  1.00  0.00    -0.002 A 
HETATM    5  C6  UNK     1      18.153  -0.929  33.954  1.00  0.00     0.092 A 
HETATM    6  C7  UNK     1      18.653  -1.032  32.657  1.00  0.00     0.075 A 
HETATM    7  C9  UNK     1      20.501  -2.331  33.520  1.00  0.00     0.038 A 
HETATM    8  C10 UNK     1      19.987  -2.219  34.816  1.00  0.00     0.017 A 
HETATM    9  C11 UNK     1      18.226  -1.365  36.363  1.00  0.00     0.020 A 
HETATM   10  C12 UNK     1      17.091  -0.680  36.530  1.00  0.00     0.083 A 
HETATM   11  C13 UNK     1      16.384  -0.055  35.397  1.00  0.00     0.288 A 
ENDROOT
BRANCH   3  12
HETATM   12  O1  UNK     1      20.343  -1.854  31.186  1.00  0.00    -0.351 OA
BRANCH  12  13
HETATM   13  C3  UNK     1      20.763  -0.650  30.544  1.00  0.00     0.175 C 
BRANCH  13  14
HETATM   14  C1  UNK     1      20.665  -0.838  29.037  1.00  0.00     0.026 C 
BRANCH  14  15
HETATM   15  C2  UNK     1      19.418  -0.169  28.466  1.00  0.00    -0.002 C 
HETATM   16  C8  UNK     1      19.042   1.075  29.254  1.00  0.00     0.005 C 
ENDBRANCH  14  15
ENDBRANCH  13  14
ENDBRANCH  12  13
ENDBRANCH   3  12
TORSDOF 4
ENDMDL
MODEL 7
REMARK VINA RESULT:      -6.4      2.071      6.545
REMARK  4 active torsions:
REMARK  status: ('A' for Active; 'I' for Inactive)
REMARK    1  A    between atoms: C3_6  and  O1_1 
REMARK    2  A    between atoms: C4_7  and  O1_1 
REMARK    3  A    between atoms: C1_4  and  C2_5 
REMARK    4  A    between atoms: C1_4  and  C3_6 
ROOT
HETATM    1  O2  UNK     1      17.291   5.830  33.758  1.00  0.00    -0.275 OA
HETATM    2  O3  UNK     1      16.994   7.450  35.349  1.00  0.00    -0.260 OA
HETATM    3  C4  UNK     1      18.336   3.628  31.008  1.00  0.00     0.071 A 
HETATM    4  C5  UNK     1      19.153   6.027  32.203  1.00  0.00    -0.002 A 
HETATM    5  C6  UNK     1      18.037   5.336  32.670  1.00  0.00     0.092 A 
HETATM    6  C7  UNK     1      17.618   4.142  32.087  1.00  0.00     0.075 A 
HETATM    7  C9  UNK     1      19.458   4.307  30.527  1.00  0.00     0.038 A 
HETATM    8  C10 UNK     1      19.867   5.504  31.123  1.00  0.00     0.017 A 
HETATM    9  C11 UNK     1      19.535   7.265  32.858  1.00  0.00     0.020 A 
HETATM   10  C12 UNK     1      18.822   7.728  33.890  1.00  0.00     0.083 A 
HETATM   11  C13 UNK     1      17.638   7.014  34.402  1.00  0.00     0.288 A 
ENDROOT
BRANCH   3  12
HETATM   12  O1  UNK     1      17.945   2.463  30.422  1.00  0.00    -0.351 OA
BRANCH  12  13
HETATM   13  C3  UNK     1      18.973   1.626  29.894  1.00  0.00     0.175 C 
BRANCH  13  14
HETATM   14  C1  UNK     1      19.364   0.603  30.951  1.00  0.00     0.026 C 
BRANCH  14  15
HETATM   15  C2  UNK     1      20.600  -0.191  30.536  1.00  0.00    -0.002 C 
HETATM   16  C8  UNK     1      20.547  -0.576  29.066  1.00  0.00     0.005 C 
ENDBRANCH  14  15
ENDBRANCH  13  14
ENDBRANCH  12  13
ENDBRANCH   3  12
TORSDOF 4
ENDMDL
MODEL 8
REMARK VINA RESULT:      -6.3      3.222      7.916
REMARK  4 active torsions:
REMARK  status: ('A' for Active; 'I' for Inactive)
REMARK    1  A    between atoms: C3_6  and  O1_1 
REMARK    2  A    between atoms: C4_7  and  O1_1 
REMARK    3  A    between atoms: C1_4  and  C2_5 
REMARK    4  A    between atoms: C1_4  and  C3_6 
ROOT
HETATM    1  O2  UNK     1      16.501   8.257  31.845  1.00  0.00    -0.275 OA
HETATM    2  O3  UNK     1      14.907   9.739  32.558  1.00  0.00    -0.260 OA
HETATM    3  C4  UNK     1      19.392   6.051  31.316  1.00  0.00     0.071 A 
HETATM    4  C5  UNK     1      18.463   7.872  33.232  1.00  0.00    -0.002 A 
HETATM    5  C6  UNK     1      17.731   7.609  32.077  1.00  0.00     0.092 A 
HETATM    6  C7  UNK     1      18.179   6.707  31.114  1.00  0.00     0.075 A 
HETATM    7  C9  UNK     1      20.139   6.301  32.469  1.00  0.00     0.038 A 
HETATM    8  C10 UNK     1      19.677   7.209  33.427  1.00  0.00     0.017 A 
HETATM    9  C11 UNK     1      17.937   8.823  34.194  1.00  0.00     0.020 A 
HETATM   10  C12 UNK     1      16.770   9.433  33.967  1.00  0.00     0.083 A 
HETATM   11  C13 UNK     1      15.976   9.171  32.752  1.00  0.00     0.288 A 
ENDROOT
BRANCH   3  12
HETATM   12  O1  UNK     1      19.850   5.165  30.390  1.00  0.00    -0.351 OA
BRANCH  12  13
HETATM   13  C3  UNK     1      18.894   4.274  29.817  1.00  0.00     0.175 C 
BRANCH  13  14
HETATM   14  C1  UNK     1      18.736   3.068  30.733  1.00  0.00     0.026 C 
BRANCH  14  15
HETATM   15  C2  UNK     1      18.748   1.759  29.948  1.00  0.00    -0.002 C 
HETATM   16  C8  UNK     1      17.876   1.846  28.706  1.00  0.00     0.005 C 
ENDBRANCH  14  15
ENDBRANCH  13  14
ENDBRANCH  12  13
ENDBRANCH   3  12
TORSDOF 4
ENDMDL
MODEL 9
REMARK VINA RESULT:      -6.3      3.487      5.556
REMARK  4 active torsions:
REMARK  status: ('A' for Active; 'I' for Inactive)
REMARK    1  A    between atoms: C3_6  and  O1_1 
REMARK    2  A    between atoms: C4_7  and  O1_1 
REMARK    3  A    between atoms: C1_4  and  C2_5 
REMARK    4  A    between atoms: C1_4  and  C3_6 
ROOT
HETATM    1  O2  UNK     1      20.708  -3.383  35.201  1.00  0.00    -0.275 OA
HETATM    2  O3  UNK     1      21.070  -4.324  37.257  1.00  0.00    -0.260 OA
HETATM    3  C4  UNK     1      19.653  -1.460  32.253  1.00  0.00     0.071 A 
HETATM    4  C5  UNK     1      19.077  -1.589  34.991  1.00  0.00    -0.002 A 
HETATM    5  C6  UNK     1      20.020  -2.437  34.415  1.00  0.00     0.092 A 
HETATM    6  C7  UNK     1      20.318  -2.386  33.055  1.00  0.00     0.075 A 
HETATM    7  C9  UNK     1      18.705  -0.601  32.813  1.00  0.00     0.038 A 
HETATM    8  C10 UNK     1      18.416  -0.664  34.179  1.00  0.00     0.017 A 
HETATM    9  C11 UNK     1      18.815  -1.696  36.415  1.00  0.00     0.020 A 
HETATM   10  C12 UNK     1      19.472  -2.596  37.154  1.00  0.00     0.083 A 
HETATM   11  C13 UNK     1      20.475  -3.503  36.567  1.00  0.00     0.288 A 
ENDROOT
BRANCH   3  12
HETATM   12  O1  UNK     1      19.928  -1.391  30.921  1.00  0.00    -0.351 OA
BRANCH  12  13
HETATM   13  C3  UNK     1      20.601  -0.221  30.457  1.00  0.00     0.175 C 
BRANCH  13  14
HETATM   14  C1  UNK     1      19.854   0.329  29.250  1.00  0.00     0.026 C 
BRANCH  14  15
HETATM   15  C2  UNK     1      18.933   1.484  29.636  1.00  0.00    -0.002 C 
HETATM   16  C8  UNK     1      17.861   1.717  28.584  1.00  0.00     0.005 C 
ENDBRANCH  14  15
ENDBRANCH  13  14
ENDBRANCH  12  13
ENDBRANCH   3  12
TORSDOF 4
ENDMDL
MODEL 10
REMARK VINA RESULT:      -6.2     22.488     24.211
REMARK  4 active torsions:
REMARK  status: ('A' for Active; 'I' for Inactive)
REMARK    1  A    between atoms: C3_6  and  O1_1 
REMARK    2  A    between atoms: C4_7  and  O1_1 
REMARK    3  A    between atoms: C1_4  and  C2_5 
REMARK    4  A    between atoms: C1_4  and  C3_6 
ROOT
HETATM    1  O2  UNK     1       9.430   5.488   9.071  1.00  0.00    -0.275 OA
HETATM    2  O3  UNK     1       7.150   5.644   8.931  1.00  0.00    -0.260 OA
HETATM    3  C4  UNK     1      13.077   5.484   8.619  1.00  0.00     0.071 A 
HETATM    4  C5  UNK     1      10.779   6.114   7.145  1.00  0.00    -0.002 A 
HETATM    5  C6  UNK     1      10.687   5.651   8.455  1.00  0.00     0.092 A 
HETATM    6  C7  UNK     1      11.820   5.333   9.201  1.00  0.00     0.075 A 
HETATM    7  C9  UNK     1      13.189   5.948   7.306  1.00  0.00     0.038 A 
HETATM    8  C10 UNK     1      12.044   6.263   6.569  1.00  0.00     0.017 A 
HETATM    9  C11 UNK     1       9.558   6.427   6.424  1.00  0.00     0.020 A 
HETATM   10  C12 UNK     1       8.370   6.271   7.015  1.00  0.00     0.083 A 
HETATM   11  C13 UNK     1       8.247   5.783   8.401  1.00  0.00     0.288 A 
ENDROOT
BRANCH   3  12
HETATM   12  O1  UNK     1      14.198   5.180   9.329  1.00  0.00    -0.351 OA
BRANCH  12  13
HETATM   13  C3  UNK     1      14.780   6.227  10.103  1.00  0.00     0.175 C 
BRANCH  13  14
HETATM   14  C1  UNK     1      16.268   6.298   9.795  1.00  0.00     0.026 C 
BRANCH  14  15
HETATM   15  C2  UNK     1      16.931   7.487  10.486  1.00  0.00    -0.002 C 
HETATM   16  C8  UNK     1      16.022   8.096  11.541  1.00  0.00     0.005 C 
ENDBRANCH  14  15
ENDBRANCH  13  14
ENDBRANCH  12  13
ENDBRANCH   3  12
TORSDOF 4
ENDMDL
