MODEL 1
REMARK VINA RESULT:      -8.1      0.000      0.000
REMARK  1 active torsions:
REMARK  status: ('A' for Active; 'I' for Inactive)
REMARK    1  A    between atoms: C12_16  and  C6_10 
ROOT
HETATM    1  O1  UNK     1      19.230  -1.897  34.998  1.00  0.00    -0.306 OA
HETATM    2  O2  UNK     1      18.441   1.181  31.556  1.00  0.00    -0.274 OA
HETATM    3  O4  UNK     1      18.026   2.708  29.906  1.00  0.00    -0.260 OA
HETATM    4  C1  UNK     1      18.888  -0.447  33.300  1.00  0.00     0.041 A 
HETATM    5  C2  UNK     1      19.093   0.003  31.983  1.00  0.00     0.103 A 
HETATM    6  C3  UNK     1      18.141  -0.012  34.428  1.00  0.00    -0.009 A 
HETATM    7  C4  UNK     1      19.539  -1.606  33.702  1.00  0.00     0.089 A 
HETATM    8  C5  UNK     1      19.933  -0.705  31.107  1.00  0.00     0.005 A 
HETATM    9  C6  UNK     1      18.383  -0.925  35.427  1.00  0.00     0.128 A 
HETATM   10  C7  UNK     1      20.113  -0.190  29.740  1.00  0.00    -0.043 A 
HETATM   11  C8  UNK     1      20.380  -2.349  32.880  1.00  0.00     0.039 A 
HETATM   12  C9  UNK     1      20.562  -1.871  31.574  1.00  0.00     0.017 A 
HETATM   13  C10 UNK     1      17.274   1.179  34.515  1.00  0.00     0.052 C 
HETATM   14  C11 UNK     1      19.476   0.931  29.373  1.00  0.00     0.090 A 
HETATM   15  C13 UNK     1      21.003  -0.919  28.775  1.00  0.00     0.049 C 
HETATM   16  C14 UNK     1      18.592   1.685  30.275  1.00  0.00     0.288 A 
ENDROOT
BRANCH   9  17
HETATM   17  C12 UNK     1      17.912  -1.007  36.769  1.00  0.00     0.179 C 
HETATM   18  O3  UNK     1      17.551  -2.095  37.298  1.00  0.00    -0.291 OA
HETATM   19  C15 UNK     1      17.817   0.246  37.660  1.00  0.00     0.099 C 
ENDBRANCH   9  17
TORSDOF 1
ENDMDL
MODEL 2
REMARK VINA RESULT:      -8.0      1.331      6.403
REMARK  1 active torsions:
REMARK  status: ('A' for Active; 'I' for Inactive)
REMARK    1  A    between atoms: C12_16  and  C6_10 
ROOT
HETATM    1  O1  UNK     1      18.615   1.889  31.786  1.00  0.00    -0.306 OA
HETATM    2  O2  UNK     1      18.811  -1.496  35.017  1.00  0.00    -0.274 OA
HETATM    3  O4  UNK     1      18.921  -3.179  36.561  1.00  0.00    -0.260 OA
HETATM    4  C1  UNK     1      18.690   0.299  33.388  1.00  0.00     0.041 A 
HETATM    5  C2  UNK     1      18.540  -0.143  34.715  1.00  0.00     0.103 A 
HETATM    6  C3  UNK     1      19.074  -0.284  32.150  1.00  0.00    -0.009 A 
HETATM    7  C4  UNK     1      18.420   1.632  33.110  1.00  0.00     0.089 A 
HETATM    8  C5  UNK     1      18.128   0.744  35.723  1.00  0.00     0.005 A 
HETATM    9  C6  UNK     1      19.011   0.721  31.214  1.00  0.00     0.128 A 
HETATM   10  C7  UNK     1      17.986   0.230  37.094  1.00  0.00    -0.043 A 
HETATM   11  C8  UNK     1      18.008   2.556  34.065  1.00  0.00     0.039 A 
HETATM   12  C9  UNK     1      17.868   2.082  35.378  1.00  0.00     0.017 A 
HETATM   13  C10 UNK     1      19.462  -1.687  31.911  1.00  0.00     0.052 C 
HETATM   14  C11 UNK     1      18.252  -1.061  37.341  1.00  0.00     0.090 A 
HETATM   15  C13 UNK     1      17.548   1.147  38.199  1.00  0.00     0.049 C 
HETATM   16  C14 UNK     1      18.685  -2.005  36.299  1.00  0.00     0.288 A 
ENDROOT
BRANCH   9  17
HETATM   17  C12 UNK     1      19.282   0.731  29.816  1.00  0.00     0.179 C 
HETATM   18  O3  UNK     1      20.351   0.269  29.326  1.00  0.00    -0.291 OA
HETATM   19  C15 UNK     1      18.271   1.313  28.810  1.00  0.00     0.099 C 
ENDBRANCH   9  17
TORSDOF 1
ENDMDL
MODEL 3
REMARK VINA RESULT:      -7.8      2.270      3.773
REMARK  1 active torsions:
REMARK  status: ('A' for Active; 'I' for Inactive)
REMARK    1  A    between atoms: C12_16  and  C6_10 
ROOT
HETATM    1  O1  UNK     1      18.169   2.389  35.556  1.00  0.00    -0.306 OA
HETATM    2  O2  UNK     1      18.507   1.400  30.990  1.00  0.00    -0.274 OA
HETATM    3  O4  UNK     1      18.669   0.870  28.772  1.00  0.00    -0.260 OA
HETATM    4  C1  UNK     1      18.336   1.975  33.342  1.00  0.00     0.041 A 
HETATM    5  C2  UNK     1      18.463   2.384  32.002  1.00  0.00     0.103 A 
HETATM    6  C3  UNK     1      18.229   0.737  34.030  1.00  0.00    -0.009 A 
HETATM    7  C4  UNK     1      18.293   2.957  34.323  1.00  0.00     0.089 A 
HETATM    8  C5  UNK     1      18.544   3.748  31.675  1.00  0.00     0.005 A 
HETATM    9  C6  UNK     1      18.131   1.044  35.367  1.00  0.00     0.128 A 
HETATM   10  C7  UNK     1      18.675   4.122  30.257  1.00  0.00    -0.043 A 
HETATM   11  C8  UNK     1      18.370   4.321  34.059  1.00  0.00     0.039 A 
HETATM   12  C9  UNK     1      18.496   4.694  32.713  1.00  0.00     0.017 A 
HETATM   13  C10 UNK     1      18.225  -0.614  33.435  1.00  0.00     0.052 C 
HETATM   14  C11 UNK     1      18.714   3.158  29.326  1.00  0.00     0.090 A 
HETATM   15  C13 UNK     1      18.765   5.569  29.868  1.00  0.00     0.049 C 
HETATM   16  C14 UNK     1      18.632   1.725  29.650  1.00  0.00     0.288 A 
ENDROOT
BRANCH   9  17
HETATM   17  C12 UNK     1      18.002   0.220  36.521  1.00  0.00     0.179 C 
HETATM   18  O3  UNK     1      18.318  -1.003  36.523  1.00  0.00    -0.291 OA
HETATM   19  C15 UNK     1      17.463   0.783  37.849  1.00  0.00     0.099 C 
ENDBRANCH   9  17
TORSDOF 1
ENDMDL
MODEL 4
REMARK VINA RESULT:      -7.8      1.795      2.233
REMARK  1 active torsions:
REMARK  status: ('A' for Active; 'I' for Inactive)
REMARK    1  A    between atoms: C12_16  and  C6_10 
ROOT
HETATM    1  O1  UNK     1      20.549  -3.495  34.264  1.00  0.00    -0.306 OA
HETATM    2  O2  UNK     1      18.732   0.584  32.850  1.00  0.00    -0.274 OA
HETATM    3  O4  UNK     1      17.829   2.583  32.205  1.00  0.00    -0.260 OA
HETATM    4  C1  UNK     1      19.693  -1.540  33.523  1.00  0.00     0.041 A 
HETATM    5  C2  UNK     1      19.434  -0.594  32.515  1.00  0.00     0.103 A 
HETATM    6  C3  UNK     1      19.423  -1.658  34.913  1.00  0.00    -0.009 A 
HETATM    7  C4  UNK     1      20.386  -2.692  33.175  1.00  0.00     0.089 A 
HETATM    8  C5  UNK     1      19.868  -0.816  31.197  1.00  0.00     0.005 A 
HETATM    9  C6  UNK     1      19.961  -2.859  35.312  1.00  0.00     0.128 A 
HETATM   10  C7  UNK     1      19.571   0.207  30.181  1.00  0.00    -0.043 A 
HETATM   11  C8  UNK     1      20.839  -2.966  31.888  1.00  0.00     0.039 A 
HETATM   12  C9  UNK     1      20.564  -2.002  30.907  1.00  0.00     0.017 A 
HETATM   13  C10 UNK     1      18.705  -0.689  35.764  1.00  0.00     0.052 C 
HETATM   14  C11 UNK     1      18.900   1.312  30.538  1.00  0.00     0.090 A 
HETATM   15  C13 UNK     1      20.018   0.006  28.762  1.00  0.00     0.049 C 
HETATM   16  C14 UNK     1      18.438   1.561  31.913  1.00  0.00     0.288 A 
ENDROOT
BRANCH   9  17
HETATM   17  C12 UNK     1      20.000  -3.504  36.581  1.00  0.00     0.179 C 
HETATM   18  O3  UNK     1      20.394  -2.921  37.630  1.00  0.00    -0.291 OA
HETATM   19  C15 UNK     1      19.556  -4.970  36.745  1.00  0.00     0.099 C 
ENDBRANCH   9  17
TORSDOF 1
ENDMDL
MODEL 5
REMARK VINA RESULT:      -7.8      3.185      4.522
REMARK  1 active torsions:
REMARK  status: ('A' for Active; 'I' for Inactive)
REMARK    1  A    between atoms: C12_16  and  C6_10 
ROOT
HETATM    1  O1  UNK     1      18.464   0.284  32.759  1.00  0.00    -0.306 OA
HETATM    2  O2  UNK     1      18.094   4.805  33.926  1.00  0.00    -0.274 OA
HETATM    3  O4  UNK     1      17.905   7.000  34.541  1.00  0.00    -0.260 OA
HETATM    4  C1  UNK     1      18.296   2.480  33.261  1.00  0.00     0.041 A 
HETATM    5  C2  UNK     1      18.310   3.844  32.915  1.00  0.00     0.103 A 
HETATM    6  C3  UNK     1      18.108   1.726  34.450  1.00  0.00    -0.009 A 
HETATM    7  C4  UNK     1      18.511   1.549  32.253  1.00  0.00     0.089 A 
HETATM    8  C5  UNK     1      18.536   4.243  31.587  1.00  0.00     0.005 A 
HETATM    9  C6  UNK     1      18.219   0.403  34.091  1.00  0.00     0.128 A 
HETATM   10  C7  UNK     1      18.540   5.682  31.279  1.00  0.00    -0.043 A 
HETATM   11  C8  UNK     1      18.739   1.885  30.922  1.00  0.00     0.039 A 
HETATM   12  C9  UNK     1      18.746   3.253  30.612  1.00  0.00     0.017 A 
HETATM   13  C10 UNK     1      17.845   2.251  35.804  1.00  0.00     0.052 C 
HETATM   14  C11 UNK     1      18.331   6.564  32.267  1.00  0.00     0.090 A 
HETATM   15  C13 UNK     1      18.778   6.148  29.872  1.00  0.00     0.049 C 
HETATM   16  C14 UNK     1      18.092   6.165  33.663  1.00  0.00     0.288 A 
ENDROOT
BRANCH   9  17
HETATM   17  C12 UNK     1      18.125  -0.796  34.853  1.00  0.00     0.179 C 
HETATM   18  O3  UNK     1      17.040  -1.198  35.358  1.00  0.00    -0.291 OA
HETATM   19  C15 UNK     1      19.361  -1.681  35.106  1.00  0.00     0.099 C 
ENDBRANCH   9  17
TORSDOF 1
ENDMDL
MODEL 6
REMARK VINA RESULT:      -7.8      2.421      5.140
REMARK  1 active torsions:
REMARK  status: ('A' for Active; 'I' for Inactive)
REMARK    1  A    between atoms: C12_16  and  C6_10 
ROOT
HETATM    1  O1  UNK     1      18.248   4.083  30.652  1.00  0.00    -0.306 OA
HETATM    2  O2  UNK     1      19.112   0.177  33.087  1.00  0.00    -0.274 OA
HETATM    3  O4  UNK     1      19.522  -1.707  34.317  1.00  0.00    -0.260 OA
HETATM    4  C1  UNK     1      18.681   2.170  31.771  1.00  0.00     0.041 A 
HETATM    5  C2  UNK     1      19.081   0.823  31.832  1.00  0.00     0.103 A 
HETATM    6  C3  UNK     1      18.260   3.158  32.702  1.00  0.00    -0.009 A 
HETATM    7  C4  UNK     1      18.655   2.789  30.528  1.00  0.00     0.089 A 
HETATM    8  C5  UNK     1      19.442   0.131  30.664  1.00  0.00     0.005 A 
HETATM    9  C6  UNK     1      18.011   4.297  31.973  1.00  0.00     0.128 A 
HETATM   10  C7  UNK     1      19.852  -1.277  30.783  1.00  0.00    -0.043 A 
HETATM   11  C8  UNK     1      19.002   2.155  29.339  1.00  0.00     0.039 A 
HETATM   12  C9  UNK     1      19.396   0.812  29.436  1.00  0.00     0.017 A 
HETATM   13  C10 UNK     1      18.119   3.000  34.163  1.00  0.00     0.052 C 
HETATM   14  C11 UNK     1      19.870  -1.855  31.993  1.00  0.00     0.090 A 
HETATM   15  C13 UNK     1      20.245  -2.051  29.558  1.00  0.00     0.049 C 
HETATM   16  C14 UNK     1      19.496  -1.146  33.227  1.00  0.00     0.288 A 
ENDROOT
BRANCH   9  17
HETATM   17  C12 UNK     1      17.567   5.593  32.362  1.00  0.00     0.179 C 
HETATM   18  O3  UNK     1      16.346   5.914  32.392  1.00  0.00    -0.291 OA
HETATM   19  C15 UNK     1      18.568   6.689  32.775  1.00  0.00     0.099 C 
ENDBRANCH   9  17
TORSDOF 1
ENDMDL
MODEL 7
REMARK VINA RESULT:      -7.6     24.430     26.167
REMARK  1 active torsions:
REMARK  status: ('A' for Active; 'I' for Inactive)
REMARK    1  A    between atoms: C12_16  and  C6_10 
ROOT
HETATM    1  O1  UNK     1      10.664   7.861   8.626  1.00  0.00    -0.306 OA
HETATM    2  O2  UNK     1      14.917   5.969   9.144  1.00  0.00    -0.274 OA
HETATM    3  O4  UNK     1      16.976   5.004   9.381  1.00  0.00    -0.260 OA
HETATM    4  C1  UNK     1      12.736   7.005   8.899  1.00  0.00     0.041 A 
HETATM    5  C2  UNK     1      14.087   7.104   9.277  1.00  0.00     0.103 A 
HETATM    6  C3  UNK     1      11.890   5.992   8.372  1.00  0.00    -0.009 A 
HETATM    7  C4  UNK     1      11.935   8.132   9.035  1.00  0.00     0.089 A 
HETATM    8  C5  UNK     1      14.604   8.311   9.776  1.00  0.00     0.005 A 
HETATM    9  C6  UNK     1      10.647   6.562   8.226  1.00  0.00     0.128 A 
HETATM   10  C7  UNK     1      16.024   8.361  10.157  1.00  0.00    -0.043 A 
HETATM   11  C8  UNK     1      12.391   9.352   9.524  1.00  0.00     0.039 A 
HETATM   12  C9  UNK     1      13.743   9.416   9.892  1.00  0.00     0.017 A 
HETATM   13  C10 UNK     1      12.264   4.602   8.046  1.00  0.00     0.052 C 
HETATM   14  C11 UNK     1      16.779   7.262  10.018  1.00  0.00     0.090 A 
HETATM   15  C13 UNK     1      16.613   9.633  10.695  1.00  0.00     0.049 C 
HETATM   16  C14 UNK     1      16.256   5.989   9.497  1.00  0.00     0.288 A 
ENDROOT
BRANCH   9  17
HETATM   17  C12 UNK     1       9.414   6.036   7.747  1.00  0.00     0.179 C 
HETATM   18  O3  UNK     1       8.666   5.303   8.454  1.00  0.00    -0.291 OA
HETATM   19  C15 UNK     1       8.918   6.335   6.320  1.00  0.00     0.099 C 
ENDBRANCH   9  17
TORSDOF 1
ENDMDL
MODEL 8
REMARK VINA RESULT:      -7.6     23.618     25.989
REMARK  1 active torsions:
REMARK  status: ('A' for Active; 'I' for Inactive)
REMARK    1  A    between atoms: C12_16  and  C6_10 
ROOT
HETATM    1  O1  UNK     1      11.825   5.512   7.501  1.00  0.00    -0.306 OA
HETATM    2  O2  UNK     1      12.966   8.750  10.687  1.00  0.00    -0.274 OA
HETATM    3  O4  UNK     1      13.478  10.348  12.240  1.00  0.00    -0.260 OA
HETATM    4  C1  UNK     1      12.435   7.051   9.038  1.00  0.00     0.041 A 
HETATM    5  C2  UNK     1      13.374   7.655   9.894  1.00  0.00     0.103 A 
HETATM    6  C3  UNK     1      11.066   7.247   8.715  1.00  0.00    -0.009 A 
HETATM    7  C4  UNK     1      12.854   5.974   8.266  1.00  0.00     0.089 A 
HETATM    8  C5  UNK     1      14.693   7.178   9.960  1.00  0.00     0.005 A 
HETATM    9  C6  UNK     1      10.747   6.291   7.780  1.00  0.00     0.128 A 
HETATM   10  C7  UNK     1      15.635   7.847  10.872  1.00  0.00    -0.043 A 
HETATM   11  C8  UNK     1      14.146   5.459   8.289  1.00  0.00     0.039 A 
HETATM   12  C9  UNK     1      15.056   6.086   9.154  1.00  0.00     0.017 A 
HETATM   13  C10 UNK     1      10.160   8.273   9.268  1.00  0.00     0.052 C 
HETATM   14  C11 UNK     1      15.210   8.884  11.608  1.00  0.00     0.090 A 
HETATM   15  C13 UNK     1      17.054   7.366  10.971  1.00  0.00     0.049 C 
HETATM   16  C14 UNK     1      13.833   9.398  11.552  1.00  0.00     0.288 A 
ENDROOT
BRANCH   9  17
HETATM   17  C12 UNK     1       9.531   6.003   7.097  1.00  0.00     0.179 C 
HETATM   18  O3  UNK     1       8.585   5.361   7.633  1.00  0.00    -0.291 OA
HETATM   19  C15 UNK     1       9.301   6.465   5.646  1.00  0.00     0.099 C 
ENDBRANCH   9  17
TORSDOF 1
ENDMDL
MODEL 9
REMARK VINA RESULT:      -7.5      7.412      9.314
REMARK  1 active torsions:
REMARK  status: ('A' for Active; 'I' for Inactive)
REMARK    1  A    between atoms: C12_16  and  C6_10 
ROOT
HETATM    1  O1  UNK     1      16.863  10.276  34.869  1.00  0.00    -0.306 OA
HETATM    2  O2  UNK     1      17.232   6.064  32.855  1.00  0.00    -0.274 OA
HETATM    3  O4  UNK     1      17.365   4.002  31.874  1.00  0.00    -0.260 OA
HETATM    4  C1  UNK     1      17.105   8.252  33.896  1.00  0.00     0.041 A 
HETATM    5  C2  UNK     1      17.881   7.222  33.336  1.00  0.00     0.103 A 
HETATM    6  C3  UNK     1      15.723   8.479  34.137  1.00  0.00    -0.009 A 
HETATM    7  C4  UNK     1      17.760   9.384  34.362  1.00  0.00     0.089 A 
HETATM    8  C5  UNK     1      19.278   7.342  33.254  1.00  0.00     0.005 A 
HETATM    9  C6  UNK     1      15.632   9.718  34.728  1.00  0.00     0.128 A 
HETATM   10  C7  UNK     1      20.044   6.235  32.659  1.00  0.00    -0.043 A 
HETATM   11  C8  UNK     1      19.140   9.559  34.309  1.00  0.00     0.039 A 
HETATM   12  C9  UNK     1      19.884   8.512  33.745  1.00  0.00     0.017 A 
HETATM   13  C10 UNK     1      14.604   7.570  33.821  1.00  0.00     0.052 C 
HETATM   14  C11 UNK     1      19.391   5.151  32.215  1.00  0.00     0.090 A 
HETATM   15  C13 UNK     1      21.539   6.327  32.555  1.00  0.00     0.049 C 
HETATM   16  C14 UNK     1      17.929   5.007  32.292  1.00  0.00     0.288 A 
ENDROOT
BRANCH   9  17
HETATM   17  C12 UNK     1      14.512  10.467  35.189  1.00  0.00     0.179 C 
HETATM   18  O3  UNK     1      14.295  10.684  36.414  1.00  0.00    -0.291 OA
HETATM   19  C15 UNK     1      13.488  11.062  34.203  1.00  0.00     0.099 C 
ENDBRANCH   9  17
TORSDOF 1
ENDMDL
MODEL 10
REMARK VINA RESULT:      -7.4     13.121     13.813
REMARK  1 active torsions:
REMARK  status: ('A' for Active; 'I' for Inactive)
REMARK    1  A    between atoms: C12_16  and  C6_10 
ROOT
HETATM    1  O1  UNK     1      28.111  -6.666  39.523  1.00  0.00    -0.306 OA
HETATM    2  O2  UNK     1      31.141  -6.853  35.957  1.00  0.00    -0.274 OA
HETATM    3  O4  UNK     1      32.609  -6.991  34.209  1.00  0.00    -0.260 OA
HETATM    4  C1  UNK     1      29.587  -6.695  37.814  1.00  0.00     0.041 A 
HETATM    5  C2  UNK     1      30.543  -6.087  36.981  1.00  0.00     0.103 A 
HETATM    6  C3  UNK     1      28.997  -7.983  37.928  1.00  0.00    -0.009 A 
HETATM    7  C4  UNK     1      29.008  -5.925  38.815  1.00  0.00     0.089 A 
HETATM    8  C5  UNK     1      30.897  -4.739  37.162  1.00  0.00     0.005 A 
HETATM    9  C6  UNK     1      28.112  -7.911  38.978  1.00  0.00     0.128 A 
HETATM   10  C7  UNK     1      31.902  -4.152  36.262  1.00  0.00    -0.043 A 
HETATM   11  C8  UNK     1      29.319  -4.588  39.042  1.00  0.00     0.039 A 
HETATM   12  C9  UNK     1      30.277  -4.013  38.193  1.00  0.00     0.017 A 
HETATM   13  C10 UNK     1      29.276  -9.166  37.091  1.00  0.00     0.052 C 
HETATM   14  C11 UNK     1      32.448  -4.913  35.303  1.00  0.00     0.090 A 
HETATM   15  C13 UNK     1      32.307  -2.715  36.425  1.00  0.00     0.049 C 
HETATM   16  C14 UNK     1      32.091  -6.325  35.098  1.00  0.00     0.288 A 
ENDROOT
BRANCH   9  17
HETATM   17  C12 UNK     1      27.242  -8.882  39.551  1.00  0.00     0.179 C 
HETATM   18  O3  UNK     1      25.986  -8.821  39.441  1.00  0.00    -0.291 OA
HETATM   19  C15 UNK     1      27.796 -10.078  40.349  1.00  0.00     0.099 C 
ENDBRANCH   9  17
TORSDOF 1
ENDMDL
