MODEL 1
REMARK VINA RESULT:      -9.6      0.000      0.000
REMARK  9 active torsions:
REMARK  status: ('A' for Active; 'I' for Inactive)
REMARK    1  A    between atoms: C15_23  and  O1_2 
REMARK    2  A    between atoms: C21_29  and  O1_2 
REMARK    3  A    between atoms: C24_32  and  O5_6 
REMARK    4  A    between atoms: C13_21  and  N1_8 
REMARK       I    between atoms: C16_24  and  N1_8 
REMARK    5  A    between atoms: C1_9  and  C2_10 
REMARK    6  A    between atoms: C11_19  and  C8_16 
REMARK    7  A    between atoms: C12_20  and  C15_23 
REMARK    8  A    between atoms: C16_24  and  C17_25 
REMARK    9  A    between atoms: C21_29  and  C22_30 
ROOT
HETATM    1  S1  UNK     1      18.006  -0.923  37.414  1.00  0.00    -0.082 SA
HETATM    2  C11 UNK     1      19.481  -2.958  36.883  1.00  0.00    -0.000 A 
HETATM    3  C12 UNK     1      19.721  -2.014  35.843  1.00  0.00     0.085 A 
HETATM    4  C13 UNK     1      18.982  -0.863  36.009  1.00  0.00     0.094 A 
HETATM    5  C14 UNK     1      18.569  -2.493  37.804  1.00  0.00     0.065 A 
ENDROOT
BRANCH   4   6
HETATM    6  N1  UNK     1      18.905   0.303  35.244  1.00  0.00    -0.316 N 
HETATM    7  C16 UNK     1      18.084   0.509  34.144  1.00  0.00     0.262 C 
HETATM    8  O4  UNK     1      17.278  -0.268  33.633  1.00  0.00    -0.267 OA
HETATM    9  H15 UNK     1      19.524   1.055  35.541  1.00  0.00     0.169 HD
BRANCH   7  10
HETATM   10  C17 UNK     1      18.257   1.850  33.574  1.00  0.00     0.108 A 
HETATM   11  C19 UNK     1      18.384   1.916  32.244  1.00  0.00     0.037 A 
HETATM   12  C18 UNK     1      18.559   3.202  31.587  1.00  0.00     0.002 A 
HETATM   13  C20 UNK     1      18.594   4.355  32.362  1.00  0.00     0.123 A 
HETATM   14  C25 UNK     1      18.694   3.318  30.200  1.00  0.00     0.014 A 
HETATM   15  C24 UNK     1      18.759   5.617  31.795  1.00  0.00     0.102 A 
HETATM   16  O2  UNK     1      18.460   4.280  33.763  1.00  0.00    -0.271 OA
HETATM   17  C26 UNK     1      18.894   5.724  30.413  1.00  0.00     0.040 A 
HETATM   18  C27 UNK     1      18.861   4.577  29.617  1.00  0.00     0.004 A 
HETATM   19  C23 UNK     1      18.289   3.065  34.420  1.00  0.00     0.304 A 
HETATM   20  O6  UNK     1      18.173   3.009  35.639  1.00  0.00    -0.259 OA
BRANCH  15  21
HETATM   21  O5  UNK     1      18.792   6.737  32.566  1.00  0.00    -0.353 OA
HETATM   22  C29 UNK     1      17.618   7.549  32.582  1.00  0.00     0.210 C 
ENDBRANCH  15  21
ENDBRANCH   7  10
ENDBRANCH   4   6
BRANCH   3  23
HETATM   23  C15 UNK     1      20.620  -2.201  34.731  1.00  0.00     0.297 C 
HETATM   24  O3  UNK     1      21.854  -2.140  34.824  1.00  0.00    -0.259 OA
BRANCH  23  25
HETATM   25  O1  UNK     1      19.985  -2.458  33.536  1.00  0.00    -0.317 OA
BRANCH  25  26
HETATM   26  C21 UNK     1      20.726  -2.191  32.339  1.00  0.00     0.178 C 
BRANCH  26  27
HETATM   27  C22 UNK     1      19.856  -1.378  31.394  1.00  0.00     0.022 C 
HETATM   28  C28 UNK     1      20.680  -0.429  30.543  1.00  0.00     0.007 C 
ENDBRANCH  26  27
ENDBRANCH  25  26
ENDBRANCH  23  25
ENDBRANCH   3  23
BRANCH   2  29
HETATM   29  C8  UNK     1      20.070  -4.263  37.040  1.00  0.00    -0.024 A 
HETATM   30  C10 UNK     1      21.195  -4.429  37.846  1.00  0.00     0.013 A 
HETATM   31  C7  UNK     1      21.764  -5.694  37.999  1.00  0.00     0.009 A 
HETATM   32  C2  UNK     1      21.207  -6.792  37.344  1.00  0.00    -0.051 A 
HETATM   33  C6  UNK     1      20.081  -6.626  36.538  1.00  0.00     0.009 A 
HETATM   34  C9  UNK     1      19.513  -5.362  36.385  1.00  0.00     0.013 A 
BRANCH  32  35
HETATM   35  C1  UNK     1      21.816  -8.144  37.506  1.00  0.00    -0.024 C 
HETATM   36  C3  UNK     1      23.186  -8.062  38.249  1.00  0.00     0.019 C 
HETATM   37  C4  UNK     1      22.070  -8.820  36.123  1.00  0.00     0.019 C 
HETATM   38  C5  UNK     1      20.961  -9.172  38.319  1.00  0.00     0.019 C 
ENDBRANCH  32  35
ENDBRANCH   2  29
TORSDOF 9
ENDMDL
MODEL 2
REMARK VINA RESULT:      -9.5      1.109      2.161
REMARK  9 active torsions:
REMARK  status: ('A' for Active; 'I' for Inactive)
REMARK    1  A    between atoms: C15_23  and  O1_2 
REMARK    2  A    between atoms: C21_29  and  O1_2 
REMARK    3  A    between atoms: C24_32  and  O5_6 
REMARK    4  A    between atoms: C13_21  and  N1_8 
REMARK       I    between atoms: C16_24  and  N1_8 
REMARK    5  A    between atoms: C1_9  and  C2_10 
REMARK    6  A    between atoms: C11_19  and  C8_16 
REMARK    7  A    between atoms: C12_20  and  C15_23 
REMARK    8  A    between atoms: C16_24  and  C17_25 
REMARK    9  A    between atoms: C21_29  and  C22_30 
ROOT
HETATM    1  S1  UNK     1      17.923  -0.447  37.205  1.00  0.00    -0.082 SA
HETATM    2  C11 UNK     1      19.337  -2.542  36.744  1.00  0.00    -0.000 A 
HETATM    3  C12 UNK     1      19.594  -1.647  35.665  1.00  0.00     0.085 A 
HETATM    4  C13 UNK     1      18.889  -0.470  35.791  1.00  0.00     0.094 A 
HETATM    5  C14 UNK     1      18.446  -2.016  37.653  1.00  0.00     0.065 A 
ENDROOT
BRANCH   4   6
HETATM    6  N1  UNK     1      18.838   0.667  34.981  1.00  0.00    -0.316 N 
HETATM    7  C16 UNK     1      17.762   1.070  34.202  1.00  0.00     0.262 C 
HETATM    8  O4  UNK     1      16.666   0.528  34.069  1.00  0.00    -0.267 OA
HETATM    9  H15 UNK     1      19.684   1.232  34.978  1.00  0.00     0.169 HD
BRANCH   7  10
HETATM   10  C17 UNK     1      18.048   2.312  33.475  1.00  0.00     0.108 A 
HETATM   11  C19 UNK     1      18.008   3.440  34.193  1.00  0.00     0.037 A 
HETATM   12  C18 UNK     1      18.278   4.722  33.560  1.00  0.00     0.002 A 
HETATM   13  C20 UNK     1      18.575   4.753  32.202  1.00  0.00     0.123 A 
HETATM   14  C25 UNK     1      18.248   5.925  34.271  1.00  0.00     0.014 A 
HETATM   15  C24 UNK     1      18.842   5.948  31.536  1.00  0.00     0.102 A 
HETATM   16  O2  UNK     1      18.615   3.562  31.451  1.00  0.00    -0.271 OA
HETATM   17  C26 UNK     1      18.810   7.142  32.252  1.00  0.00     0.040 A 
HETATM   18  C27 UNK     1      18.514   7.132  33.617  1.00  0.00     0.004 A 
HETATM   19  C23 UNK     1      18.363   2.321  32.028  1.00  0.00     0.304 A 
HETATM   20  O6  UNK     1      18.400   1.290  31.367  1.00  0.00    -0.259 OA
BRANCH  15  21
HETATM   21  O5  UNK     1      19.131   5.964  30.207  1.00  0.00    -0.353 OA
HETATM   22  C29 UNK     1      20.511   5.964  29.842  1.00  0.00     0.210 C 
ENDBRANCH  15  21
ENDBRANCH   7  10
ENDBRANCH   4   6
BRANCH   3  23
HETATM   23  C15 UNK     1      20.478  -1.903  34.555  1.00  0.00     0.297 C 
HETATM   24  O3  UNK     1      21.701  -2.063  34.670  1.00  0.00    -0.259 OA
BRANCH  23  25
HETATM   25  O1  UNK     1      19.841  -1.956  33.334  1.00  0.00    -0.317 OA
BRANCH  25  26
HETATM   26  C21 UNK     1      20.671  -2.122  32.179  1.00  0.00     0.178 C 
BRANCH  26  27
HETATM   27  C22 UNK     1      19.833  -1.885  30.933  1.00  0.00     0.022 C 
HETATM   28  C28 UNK     1      20.693  -1.552  29.728  1.00  0.00     0.007 C 
ENDBRANCH  26  27
ENDBRANCH  25  26
ENDBRANCH  23  25
ENDBRANCH   3  23
BRANCH   2  29
HETATM   29  C8  UNK     1      19.890  -3.857  36.948  1.00  0.00    -0.024 A 
HETATM   30  C10 UNK     1      19.249  -4.974  36.415  1.00  0.00     0.013 A 
HETATM   31  C7  UNK     1      19.787  -6.247  36.611  1.00  0.00     0.009 A 
HETATM   32  C2  UNK     1      20.964  -6.400  37.342  1.00  0.00    -0.051 A 
HETATM   33  C6  UNK     1      21.606  -5.282  37.875  1.00  0.00     0.009 A 
HETATM   34  C9  UNK     1      21.068  -4.011  37.679  1.00  0.00     0.013 A 
BRANCH  32  35
HETATM   35  C1  UNK     1      21.539  -7.761  37.554  1.00  0.00    -0.024 C 
HETATM   36  C3  UNK     1      21.811  -8.477  36.195  1.00  0.00     0.019 C 
HETATM   37  C4  UNK     1      20.566  -8.663  38.376  1.00  0.00     0.019 C 
HETATM   38  C5  UNK     1      22.898  -7.803  38.328  1.00  0.00     0.019 C 
ENDBRANCH  32  35
ENDBRANCH   2  29
TORSDOF 9
ENDMDL
MODEL 3
REMARK VINA RESULT:      -9.3      2.329     10.612
REMARK  9 active torsions:
REMARK  status: ('A' for Active; 'I' for Inactive)
REMARK    1  A    between atoms: C15_23  and  O1_2 
REMARK    2  A    between atoms: C21_29  and  O1_2 
REMARK    3  A    between atoms: C24_32  and  O5_6 
REMARK    4  A    between atoms: C13_21  and  N1_8 
REMARK       I    between atoms: C16_24  and  N1_8 
REMARK    5  A    between atoms: C1_9  and  C2_10 
REMARK    6  A    between atoms: C11_19  and  C8_16 
REMARK    7  A    between atoms: C12_20  and  C15_23 
REMARK    8  A    between atoms: C16_24  and  C17_25 
REMARK    9  A    between atoms: C21_29  and  C22_30 
ROOT
HETATM    1  S1  UNK     1      17.615  -1.419  37.630  1.00  0.00    -0.082 SA
HETATM    2  C11 UNK     1      18.236   0.115  35.665  1.00  0.00    -0.000 A 
HETATM    3  C12 UNK     1      18.809  -1.156  35.370  1.00  0.00     0.085 A 
HETATM    4  C13 UNK     1      18.547  -2.082  36.356  1.00  0.00     0.094 A 
HETATM    5  C14 UNK     1      17.559   0.112  36.864  1.00  0.00     0.065 A 
ENDROOT
BRANCH   4   6
HETATM    6  N1  UNK     1      18.906  -3.427  36.479  1.00  0.00    -0.316 N 
HETATM    7  C16 UNK     1      20.015  -3.921  37.153  1.00  0.00     0.262 C 
HETATM    8  O4  UNK     1      20.881  -3.296  37.764  1.00  0.00    -0.267 OA
HETATM    9  H15 UNK     1      18.281  -4.084  36.017  1.00  0.00     0.169 HD
BRANCH   7  10
HETATM   10  C17 UNK     1      20.091  -5.384  37.083  1.00  0.00     0.108 A 
HETATM   11  C19 UNK     1      20.008  -6.037  38.249  1.00  0.00     0.037 A 
HETATM   12  C18 UNK     1      20.073  -7.490  38.281  1.00  0.00     0.002 A 
HETATM   13  C20 UNK     1      20.225  -8.184  37.085  1.00  0.00     0.123 A 
HETATM   14  C25 UNK     1      19.989  -8.213  39.474  1.00  0.00     0.014 A 
HETATM   15  C24 UNK     1      20.295  -9.575  37.048  1.00  0.00     0.102 A 
HETATM   16  O2  UNK     1      20.313  -7.491  35.862  1.00  0.00    -0.271 OA
HETATM   17  C26 UNK     1      20.211 -10.288  38.242  1.00  0.00     0.040 A 
HETATM   18  C27 UNK     1      20.058  -9.609  39.452  1.00  0.00     0.004 A 
HETATM   19  C23 UNK     1      20.252  -6.102  35.799  1.00  0.00     0.304 A 
HETATM   20  O6  UNK     1      20.329  -5.507  34.729  1.00  0.00    -0.259 OA
BRANCH  15  21
HETATM   21  O5  UNK     1      20.444 -10.241  35.871  1.00  0.00    -0.353 OA
HETATM   22  C29 UNK     1      21.743 -10.752  35.574  1.00  0.00     0.210 C 
ENDBRANCH  15  21
ENDBRANCH   7  10
ENDBRANCH   4   6
BRANCH   3  23
HETATM   23  C15 UNK     1      19.576  -1.478  34.193  1.00  0.00     0.297 C 
HETATM   24  O3  UNK     1      20.746  -1.886  34.222  1.00  0.00    -0.259 OA
BRANCH  23  25
HETATM   25  O1  UNK     1      18.892  -1.292  33.011  1.00  0.00    -0.317 OA
BRANCH  25  26
HETATM   26  C21 UNK     1      19.584  -1.629  31.803  1.00  0.00     0.178 C 
BRANCH  26  27
HETATM   27  C22 UNK     1      19.969  -0.347  31.082  1.00  0.00     0.022 C 
HETATM   28  C28 UNK     1      20.518  -0.623  29.694  1.00  0.00     0.007 C 
ENDBRANCH  26  27
ENDBRANCH  25  26
ENDBRANCH  23  25
ENDBRANCH   3  23
BRANCH   2  29
HETATM   29  C8  UNK     1      18.302   1.315  34.871  1.00  0.00    -0.024 A 
HETATM   30  C10 UNK     1      17.913   1.289  33.532  1.00  0.00     0.013 A 
HETATM   31  C7  UNK     1      17.975   2.453  32.765  1.00  0.00     0.009 A 
HETATM   32  C2  UNK     1      18.428   3.641  33.337  1.00  0.00    -0.051 A 
HETATM   33  C6  UNK     1      18.817   3.667  34.676  1.00  0.00     0.009 A 
HETATM   34  C9  UNK     1      18.754   2.504  35.443  1.00  0.00     0.013 A 
BRANCH  32  35
HETATM   35  C1  UNK     1      18.496   4.885  32.516  1.00  0.00    -0.024 C 
HETATM   36  C3  UNK     1      18.859   4.564  31.033  1.00  0.00     0.019 C 
HETATM   37  C4  UNK     1      19.579   5.866  33.065  1.00  0.00     0.019 C 
HETATM   38  C5  UNK     1      17.175   5.720  32.451  1.00  0.00     0.019 C 
ENDBRANCH  32  35
ENDBRANCH   2  29
TORSDOF 9
ENDMDL
MODEL 4
REMARK VINA RESULT:      -8.1     25.581     27.934
REMARK  9 active torsions:
REMARK  status: ('A' for Active; 'I' for Inactive)
REMARK    1  A    between atoms: C15_23  and  O1_2 
REMARK    2  A    between atoms: C21_29  and  O1_2 
REMARK    3  A    between atoms: C24_32  and  O5_6 
REMARK    4  A    between atoms: C13_21  and  N1_8 
REMARK       I    between atoms: C16_24  and  N1_8 
REMARK    5  A    between atoms: C1_9  and  C2_10 
REMARK    6  A    between atoms: C11_19  and  C8_16 
REMARK    7  A    between atoms: C12_20  and  C15_23 
REMARK    8  A    between atoms: C16_24  and  C17_25 
REMARK    9  A    between atoms: C21_29  and  C22_30 
ROOT
HETATM    1  S1  UNK     1      16.746  11.968   7.806  1.00  0.00    -0.082 SA
HETATM    2  C11 UNK     1      15.257   9.983   8.471  1.00  0.00    -0.000 A 
HETATM    3  C12 UNK     1      16.420   9.895   9.289  1.00  0.00     0.085 A 
HETATM    4  C13 UNK     1      17.312  10.912   9.030  1.00  0.00     0.094 A 
HETATM    5  C14 UNK     1      15.304  11.064   7.618  1.00  0.00     0.065 A 
ENDROOT
BRANCH   4   6
HETATM    6  N1  UNK     1      18.558  11.211   9.586  1.00  0.00    -0.316 N 
HETATM    7  C16 UNK     1      18.844  12.272  10.436  1.00  0.00     0.262 C 
HETATM    8  O4  UNK     1      18.082  13.138  10.863  1.00  0.00    -0.267 OA
HETATM    9  H15 UNK     1      19.311  10.578   9.323  1.00  0.00     0.169 HD
BRANCH   7  10
HETATM   10  C17 UNK     1      20.256  12.291  10.832  1.00  0.00     0.108 A 
HETATM   11  C19 UNK     1      20.503  12.480  12.134  1.00  0.00     0.037 A 
HETATM   12  C18 UNK     1      21.872  12.514  12.623  1.00  0.00     0.002 A 
HETATM   13  C20 UNK     1      22.915  12.350  11.718  1.00  0.00     0.123 A 
HETATM   14  C25 UNK     1      22.176  12.707  13.973  1.00  0.00     0.014 A 
HETATM   15  C24 UNK     1      24.248  12.374  12.122  1.00  0.00     0.102 A 
HETATM   16  O2  UNK     1      22.649  12.152  10.348  1.00  0.00    -0.271 OA
HETATM   17  C26 UNK     1      24.543  12.567  13.469  1.00  0.00     0.040 A 
HETATM   18  C27 UNK     1      23.510  12.733  14.394  1.00  0.00     0.004 A 
HETATM   19  C23 UNK     1      21.350  12.113   9.851  1.00  0.00     0.304 A 
HETATM   20  O6  UNK     1      21.128  11.940   8.657  1.00  0.00    -0.259 OA
BRANCH  15  21
HETATM   21  O5  UNK     1      25.259  12.212  11.225  1.00  0.00    -0.353 OA
HETATM   22  C29 UNK     1      26.583  12.486  11.682  1.00  0.00     0.210 C 
ENDBRANCH  15  21
ENDBRANCH   7  10
ENDBRANCH   4   6
BRANCH   3  23
HETATM   23  C15 UNK     1      16.673   8.879  10.281  1.00  0.00     0.297 C 
HETATM   24  O3  UNK     1      16.106   8.834  11.382  1.00  0.00    -0.259 OA
BRANCH  23  25
HETATM   25  O1  UNK     1      17.612   7.947   9.899  1.00  0.00    -0.317 OA
BRANCH  25  26
HETATM   26  C21 UNK     1      17.363   6.587  10.275  1.00  0.00     0.178 C 
BRANCH  26  27
HETATM   27  C22 UNK     1      16.269   6.023   9.383  1.00  0.00     0.022 C 
HETATM   28  C28 UNK     1      15.082   5.529  10.189  1.00  0.00     0.007 C 
ENDBRANCH  26  27
ENDBRANCH  25  26
ENDBRANCH  23  25
ENDBRANCH   3  23
BRANCH   2  29
HETATM   29  C8  UNK     1      14.118   9.100   8.461  1.00  0.00    -0.024 A 
HETATM   30  C10 UNK     1      13.069   9.304   9.357  1.00  0.00     0.013 A 
HETATM   31  C7  UNK     1      11.966   8.449   9.346  1.00  0.00     0.009 A 
HETATM   32  C2  UNK     1      11.915   7.391   8.439  1.00  0.00    -0.051 A 
HETATM   33  C6  UNK     1      12.964   7.187   7.544  1.00  0.00     0.009 A 
HETATM   34  C9  UNK     1      14.066   8.041   7.555  1.00  0.00     0.013 A 
BRANCH  32  35
HETATM   35  C1  UNK     1      10.736   6.476   8.428  1.00  0.00    -0.024 C 
HETATM   36  C3  UNK     1      11.024   5.173   9.238  1.00  0.00     0.019 C 
HETATM   37  C4  UNK     1      10.362   6.052   6.974  1.00  0.00     0.019 C 
HETATM   38  C5  UNK     1       9.423   7.065   9.040  1.00  0.00     0.019 C 
ENDBRANCH  32  35
ENDBRANCH   2  29
TORSDOF 9
ENDMDL
MODEL 5
REMARK VINA RESULT:      -7.9     25.854     27.674
REMARK  9 active torsions:
REMARK  status: ('A' for Active; 'I' for Inactive)
REMARK    1  A    between atoms: C15_23  and  O1_2 
REMARK    2  A    between atoms: C21_29  and  O1_2 
REMARK    3  A    between atoms: C24_32  and  O5_6 
REMARK    4  A    between atoms: C13_21  and  N1_8 
REMARK       I    between atoms: C16_24  and  N1_8 
REMARK    5  A    between atoms: C1_9  and  C2_10 
REMARK    6  A    between atoms: C11_19  and  C8_16 
REMARK    7  A    between atoms: C12_20  and  C15_23 
REMARK    8  A    between atoms: C16_24  and  C17_25 
REMARK    9  A    between atoms: C21_29  and  C22_30 
ROOT
HETATM    1  S1  UNK     1      15.597  12.788  10.473  1.00  0.00    -0.082 SA
HETATM    2  C11 UNK     1      14.785  10.470   9.721  1.00  0.00    -0.000 A 
HETATM    3  C12 UNK     1      16.147  10.306  10.104  1.00  0.00     0.085 A 
HETATM    4  C13 UNK     1      16.710  11.488  10.533  1.00  0.00     0.094 A 
HETATM    5  C14 UNK     1      14.357  11.771   9.871  1.00  0.00     0.065 A 
ENDROOT
BRANCH   4   6
HETATM    6  N1  UNK     1      17.995  11.786  10.993  1.00  0.00    -0.316 N 
HETATM    7  C16 UNK     1      19.013  12.374  10.255  1.00  0.00     0.262 C 
HETATM    8  O4  UNK     1      18.995  12.744   9.082  1.00  0.00    -0.267 OA
HETATM    9  H15 UNK     1      18.175  11.534  11.962  1.00  0.00     0.169 HD
BRANCH   7  10
HETATM   10  C17 UNK     1      20.236  12.543  11.048  1.00  0.00     0.108 A 
HETATM   11  C19 UNK     1      21.383  12.212  10.443  1.00  0.00     0.037 A 
HETATM   12  C18 UNK     1      22.649  12.346  11.148  1.00  0.00     0.002 A 
HETATM   13  C20 UNK     1      22.644  12.819  12.456  1.00  0.00     0.123 A 
HETATM   14  C25 UNK     1      23.870  12.014  10.556  1.00  0.00     0.014 A 
HETATM   15  C24 UNK     1      23.821  12.970  13.186  1.00  0.00     0.102 A 
HETATM   16  O2  UNK     1      21.433  13.166  13.087  1.00  0.00    -0.271 OA
HETATM   17  C26 UNK     1      25.035  12.636  12.588  1.00  0.00     0.040 A 
HETATM   18  C27 UNK     1      25.060  12.159  11.276  1.00  0.00     0.004 A 
HETATM   19  C23 UNK     1      20.208  13.050  12.439  1.00  0.00     0.304 A 
HETATM   20  O6  UNK     1      19.159  13.354  12.996  1.00  0.00    -0.259 OA
BRANCH  15  21
HETATM   21  O5  UNK     1      23.802  13.434  14.465  1.00  0.00    -0.353 OA
HETATM   22  C29 UNK     1      24.283  14.761  14.682  1.00  0.00     0.210 C 
ENDBRANCH  15  21
ENDBRANCH   7  10
ENDBRANCH   4   6
BRANCH   3  23
HETATM   23  C15 UNK     1      16.887   9.069  10.063  1.00  0.00     0.297 C 
HETATM   24  O3  UNK     1      17.933   8.911   9.418  1.00  0.00    -0.259 OA
BRANCH  23  25
HETATM   25  O1  UNK     1      16.327   8.058  10.813  1.00  0.00    -0.317 OA
BRANCH  25  26
HETATM   26  C21 UNK     1      16.395   6.735  10.269  1.00  0.00     0.178 C 
BRANCH  26  27
HETATM   27  C22 UNK     1      15.024   6.087  10.378  1.00  0.00     0.022 C 
HETATM   28  C28 UNK     1      15.026   4.667   9.843  1.00  0.00     0.007 C 
ENDBRANCH  26  27
ENDBRANCH  25  26
ENDBRANCH  23  25
ENDBRANCH   3  23
BRANCH   2  29
HETATM   29  C8  UNK     1      13.882   9.463   9.225  1.00  0.00    -0.024 A 
HETATM   30  C10 UNK     1      14.180   8.777   8.048  1.00  0.00     0.013 A 
HETATM   31  C7  UNK     1      13.306   7.801   7.569  1.00  0.00     0.009 A 
HETATM   32  C2  UNK     1      12.134   7.512   8.267  1.00  0.00    -0.051 A 
HETATM   33  C6  UNK     1      11.836   8.197   9.444  1.00  0.00     0.009 A 
HETATM   34  C9  UNK     1      12.710   9.173   9.923  1.00  0.00     0.013 A 
BRANCH  32  35
HETATM   35  C1  UNK     1      11.199   6.469   7.754  1.00  0.00    -0.024 C 
HETATM   36  C3  UNK     1       9.800   6.578   8.438  1.00  0.00     0.019 C 
HETATM   37  C4  UNK     1      11.746   5.033   8.029  1.00  0.00     0.019 C 
HETATM   38  C5  UNK     1      10.916   6.518   6.217  1.00  0.00     0.019 C 
ENDBRANCH  32  35
ENDBRANCH   2  29
TORSDOF 9
ENDMDL
MODEL 6
REMARK VINA RESULT:      -7.9      9.908     13.453
REMARK  9 active torsions:
REMARK  status: ('A' for Active; 'I' for Inactive)
REMARK    1  A    between atoms: C15_23  and  O1_2 
REMARK    2  A    between atoms: C21_29  and  O1_2 
REMARK    3  A    between atoms: C24_32  and  O5_6 
REMARK    4  A    between atoms: C13_21  and  N1_8 
REMARK       I    between atoms: C16_24  and  N1_8 
REMARK    5  A    between atoms: C1_9  and  C2_10 
REMARK    6  A    between atoms: C11_19  and  C8_16 
REMARK    7  A    between atoms: C12_20  and  C15_23 
REMARK    8  A    between atoms: C16_24  and  C17_25 
REMARK    9  A    between atoms: C21_29  and  C22_30 
ROOT
HETATM    1  S1  UNK     1      28.888  -6.237  38.780  1.00  0.00    -0.082 SA
HETATM    2  C11 UNK     1      30.508  -6.894  36.898  1.00  0.00    -0.000 A 
HETATM    3  C12 UNK     1      29.239  -7.429  36.532  1.00  0.00     0.085 A 
HETATM    4  C13 UNK     1      28.269  -7.145  37.467  1.00  0.00     0.094 A 
HETATM    5  C14 UNK     1      30.459  -6.222  38.100  1.00  0.00     0.065 A 
ENDROOT
BRANCH   4   6
HETATM    6  N1  UNK     1      26.910  -7.466  37.514  1.00  0.00    -0.316 N 
HETATM    7  C16 UNK     1      26.283  -8.236  38.484  1.00  0.00     0.262 C 
HETATM    8  O4  UNK     1      26.779  -8.777  39.471  1.00  0.00    -0.267 OA
HETATM    9  H15 UNK     1      26.351  -7.089  36.751  1.00  0.00     0.169 HD
BRANCH   7  10
HETATM   10  C17 UNK     1      24.845  -8.376  38.228  1.00  0.00     0.108 A 
HETATM   11  C19 UNK     1      24.035  -7.624  38.981  1.00  0.00     0.037 A 
HETATM   12  C18 UNK     1      22.593  -7.692  38.800  1.00  0.00     0.002 A 
HETATM   13  C20 UNK     1      22.075  -8.551  37.837  1.00  0.00     0.123 A 
HETATM   14  C25 UNK     1      21.709  -6.924  39.563  1.00  0.00     0.014 A 
HETATM   15  C24 UNK     1      20.704  -8.664  37.615  1.00  0.00     0.102 A 
HETATM   16  O2  UNK     1      22.934  -9.341  37.047  1.00  0.00    -0.271 OA
HETATM   17  C26 UNK     1      19.830  -7.895  38.380  1.00  0.00     0.040 A 
HETATM   18  C27 UNK     1      20.331  -7.027  39.352  1.00  0.00     0.004 A 
HETATM   19  C23 UNK     1      24.316  -9.297  37.196  1.00  0.00     0.304 A 
HETATM   20  O6  UNK     1      25.056  -9.988  36.504  1.00  0.00    -0.259 OA
BRANCH  15  21
HETATM   21  O5  UNK     1      20.211  -9.509  36.669  1.00  0.00    -0.353 OA
HETATM   22  C29 UNK     1      19.671 -10.750  37.124  1.00  0.00     0.210 C 
ENDBRANCH  15  21
ENDBRANCH   7  10
ENDBRANCH   4   6
BRANCH   3  23
HETATM   23  C15 UNK     1      28.961  -8.183  35.334  1.00  0.00     0.297 C 
HETATM   24  O3  UNK     1      28.542  -9.349  35.335  1.00  0.00    -0.259 OA
BRANCH  23  25
HETATM   25  O1  UNK     1      29.203  -7.489  34.169  1.00  0.00    -0.317 OA
BRANCH  25  26
HETATM   26  C21 UNK     1      29.949  -8.170  33.153  1.00  0.00     0.178 C 
BRANCH  26  27
HETATM   27  C22 UNK     1      30.858  -7.170  32.456  1.00  0.00     0.022 C 
HETATM   28  C28 UNK     1      32.083  -7.840  31.862  1.00  0.00     0.007 C 
ENDBRANCH  26  27
ENDBRANCH  25  26
ENDBRANCH  23  25
ENDBRANCH   3  23
BRANCH   2  29
HETATM   29  C8  UNK     1      31.748  -6.991  36.171  1.00  0.00    -0.024 A 
HETATM   30  C10 UNK     1      32.407  -8.216  36.075  1.00  0.00     0.013 A 
HETATM   31  C7  UNK     1      33.606  -8.310  35.369  1.00  0.00     0.009 A 
HETATM   32  C2  UNK     1      34.147  -7.177  34.761  1.00  0.00    -0.051 A 
HETATM   33  C6  UNK     1      33.489  -5.952  34.858  1.00  0.00     0.009 A 
HETATM   34  C9  UNK     1      32.289  -5.859  35.563  1.00  0.00     0.013 A 
BRANCH  32  35
HETATM   35  C1  UNK     1      35.431  -7.277  34.008  1.00  0.00    -0.024 C 
HETATM   36  C3  UNK     1      35.627  -8.705  33.410  1.00  0.00     0.019 C 
HETATM   37  C4  UNK     1      36.654  -6.981  34.932  1.00  0.00     0.019 C 
HETATM   38  C5  UNK     1      35.577  -6.295  32.799  1.00  0.00     0.019 C 
ENDBRANCH  32  35
ENDBRANCH   2  29
TORSDOF 9
ENDMDL
MODEL 7
REMARK VINA RESULT:      -7.8     10.142     13.856
REMARK  9 active torsions:
REMARK  status: ('A' for Active; 'I' for Inactive)
REMARK    1  A    between atoms: C15_23  and  O1_2 
REMARK    2  A    between atoms: C21_29  and  O1_2 
REMARK    3  A    between atoms: C24_32  and  O5_6 
REMARK    4  A    between atoms: C13_21  and  N1_8 
REMARK       I    between atoms: C16_24  and  N1_8 
REMARK    5  A    between atoms: C1_9  and  C2_10 
REMARK    6  A    between atoms: C11_19  and  C8_16 
REMARK    7  A    between atoms: C12_20  and  C15_23 
REMARK    8  A    between atoms: C16_24  and  C17_25 
REMARK    9  A    between atoms: C21_29  and  C22_30 
ROOT
HETATM    1  S1  UNK     1      29.511  -6.710  38.329  1.00  0.00    -0.082 SA
HETATM    2  C11 UNK     1      31.091  -7.213  36.367  1.00  0.00    -0.000 A 
HETATM    3  C12 UNK     1      29.810  -7.702  35.978  1.00  0.00     0.085 A 
HETATM    4  C13 UNK     1      28.859  -7.492  36.953  1.00  0.00     0.094 A 
HETATM    5  C14 UNK     1      31.070  -6.650  37.624  1.00  0.00     0.065 A 
ENDROOT
BRANCH   4   6
HETATM    6  N1  UNK     1      27.498  -7.803  36.997  1.00  0.00    -0.316 N 
HETATM    7  C16 UNK     1      26.939  -8.965  37.513  1.00  0.00     0.262 C 
HETATM    8  O4  UNK     1      27.508  -9.928  38.023  1.00  0.00    -0.267 OA
HETATM    9  H15 UNK     1      26.881  -7.096  36.603  1.00  0.00     0.169 HD
BRANCH   7  10
HETATM   10  C17 UNK     1      25.476  -8.966  37.398  1.00  0.00     0.108 A 
HETATM   11  C19 UNK     1      24.943  -9.931  36.640  1.00  0.00     0.037 A 
HETATM   12  C18 UNK     1      23.501 -10.016  36.467  1.00  0.00     0.002 A 
HETATM   13  C20 UNK     1      22.691  -9.078  37.098  1.00  0.00     0.123 A 
HETATM   14  C25 UNK     1      22.901 -11.007  35.686  1.00  0.00     0.014 A 
HETATM   15  C24 UNK     1      21.304  -9.103  36.972  1.00  0.00     0.102 A 
HETATM   16  O2  UNK     1      23.258  -8.064  37.895  1.00  0.00    -0.271 OA
HETATM   17  C26 UNK     1      20.714 -10.094  36.191  1.00  0.00     0.040 A 
HETATM   18  C27 UNK     1      21.510 -11.045  35.549  1.00  0.00     0.004 A 
HETATM   19  C23 UNK     1      24.633  -7.958  38.081  1.00  0.00     0.304 A 
HETATM   20  O6  UNK     1      25.118  -7.073  38.776  1.00  0.00    -0.259 OA
BRANCH  15  21
HETATM   21  O5  UNK     1      20.523  -8.179  37.596  1.00  0.00    -0.353 OA
HETATM   22  C29 UNK     1      19.226  -8.601  38.015  1.00  0.00     0.210 C 
ENDBRANCH  15  21
ENDBRANCH   7  10
ENDBRANCH   4   6
BRANCH   3  23
HETATM   23  C15 UNK     1      29.502  -8.343  34.724  1.00  0.00     0.297 C 
HETATM   24  O3  UNK     1      29.055  -9.495  34.630  1.00  0.00    -0.259 OA
BRANCH  23  25
HETATM   25  O1  UNK     1      29.749  -7.559  33.619  1.00  0.00    -0.317 OA
BRANCH  25  26
HETATM   26  C21 UNK     1      30.431  -8.180  32.523  1.00  0.00     0.178 C 
BRANCH  26  27
HETATM   27  C22 UNK     1      31.403  -7.180  31.917  1.00  0.00     0.022 C 
HETATM   28  C28 UNK     1      32.579  -7.869  31.249  1.00  0.00     0.007 C 
ENDBRANCH  26  27
ENDBRANCH  25  26
ENDBRANCH  23  25
ENDBRANCH   3  23
BRANCH   2  29
HETATM   29  C8  UNK     1      32.316  -7.257  35.611  1.00  0.00    -0.024 A 
HETATM   30  C10 UNK     1      32.945  -8.478  35.371  1.00  0.00     0.013 A 
HETATM   31  C7  UNK     1      34.131  -8.520  34.637  1.00  0.00     0.009 A 
HETATM   32  C2  UNK     1      34.688  -7.340  34.146  1.00  0.00    -0.051 A 
HETATM   33  C6  UNK     1      34.060  -6.118  34.387  1.00  0.00     0.009 A 
HETATM   34  C9  UNK     1      32.874  -6.077  35.120  1.00  0.00     0.013 A 
BRANCH  32  35
HETATM   35  C1  UNK     1      35.957  -7.384  33.363  1.00  0.00    -0.024 C 
HETATM   36  C3  UNK     1      37.202  -7.271  34.298  1.00  0.00     0.019 C 
HETATM   37  C4  UNK     1      36.031  -6.210  32.338  1.00  0.00     0.019 C 
HETATM   38  C5  UNK     1      36.183  -8.684  32.523  1.00  0.00     0.019 C 
ENDBRANCH  32  35
ENDBRANCH   2  29
TORSDOF 9
ENDMDL
MODEL 8
REMARK VINA RESULT:      -7.7     26.210     28.687
REMARK  9 active torsions:
REMARK  status: ('A' for Active; 'I' for Inactive)
REMARK    1  A    between atoms: C15_23  and  O1_2 
REMARK    2  A    between atoms: C21_29  and  O1_2 
REMARK    3  A    between atoms: C24_32  and  O5_6 
REMARK    4  A    between atoms: C13_21  and  N1_8 
REMARK       I    between atoms: C16_24  and  N1_8 
REMARK    5  A    between atoms: C1_9  and  C2_10 
REMARK    6  A    between atoms: C11_19  and  C8_16 
REMARK    7  A    between atoms: C12_20  and  C15_23 
REMARK    8  A    between atoms: C16_24  and  C17_25 
REMARK    9  A    between atoms: C21_29  and  C22_30 
ROOT
HETATM    1  S1  UNK     1      12.525   5.640   7.928  1.00  0.00    -0.082 SA
HETATM    2  C11 UNK     1      13.761   7.763   8.678  1.00  0.00    -0.000 A 
HETATM    3  C12 UNK     1      12.511   7.772   9.361  1.00  0.00     0.085 A 
HETATM    4  C13 UNK     1      11.741   6.675   9.044  1.00  0.00     0.094 A 
HETATM    5  C14 UNK     1      13.899   6.660   7.865  1.00  0.00     0.065 A 
ENDROOT
BRANCH   4   6
HETATM    6  N1  UNK     1      10.470   6.284   9.472  1.00  0.00    -0.316 N 
HETATM    7  C16 UNK     1       9.310   6.293   8.710  1.00  0.00     0.262 C 
HETATM    8  O4  UNK     1       9.166   6.635   7.537  1.00  0.00    -0.267 OA
HETATM    9  H15 UNK     1      10.418   5.971  10.440  1.00  0.00     0.169 HD
BRANCH   7  10
HETATM   10  C17 UNK     1       8.149   5.819   9.473  1.00  0.00     0.108 A 
HETATM   11  C19 UNK     1       7.769   4.556   9.246  1.00  0.00     0.037 A 
HETATM   12  C18 UNK     1       6.629   3.996   9.956  1.00  0.00     0.002 A 
HETATM   13  C20 UNK     1       5.945   4.793  10.867  1.00  0.00     0.123 A 
HETATM   14  C25 UNK     1       6.197   2.683   9.752  1.00  0.00     0.014 A 
HETATM   15  C24 UNK     1       4.845   4.317  11.578  1.00  0.00     0.102 A 
HETATM   16  O2  UNK     1       6.350   6.122  11.101  1.00  0.00    -0.271 OA
HETATM   17  C26 UNK     1       4.420   3.007  11.368  1.00  0.00     0.040 A 
HETATM   18  C27 UNK     1       5.095   2.191  10.457  1.00  0.00     0.004 A 
HETATM   19  C23 UNK     1       7.437   6.685  10.440  1.00  0.00     0.304 A 
HETATM   20  O6  UNK     1       7.783   7.842  10.650  1.00  0.00    -0.259 OA
BRANCH  15  21
HETATM   21  O5  UNK     1       4.185   5.108  12.467  1.00  0.00    -0.353 OA
HETATM   22  C29 UNK     1       4.421   4.864  13.853  1.00  0.00     0.210 C 
ENDBRANCH  15  21
ENDBRANCH   7  10
ENDBRANCH   4   6
BRANCH   3  23
HETATM   23  C15 UNK     1      12.066   8.788  10.283  1.00  0.00     0.297 C 
HETATM   24  O3  UNK     1      11.365   9.756   9.957  1.00  0.00    -0.259 OA
BRANCH  23  25
HETATM   25  O1  UNK     1      12.489   8.591  11.579  1.00  0.00    -0.317 OA
BRANCH  25  26
HETATM   26  C21 UNK     1      12.742   9.764  12.362  1.00  0.00     0.178 C 
BRANCH  26  27
HETATM   27  C22 UNK     1      14.215  10.124  12.248  1.00  0.00     0.022 C 
HETATM   28  C28 UNK     1      14.416  11.479  11.597  1.00  0.00     0.007 C 
ENDBRANCH  26  27
ENDBRANCH  25  26
ENDBRANCH  23  25
ENDBRANCH   3  23
BRANCH   2  29
HETATM   29  C8  UNK     1      14.816   8.741   8.760  1.00  0.00    -0.024 A 
HETATM   30  C10 UNK     1      15.952   8.480   9.526  1.00  0.00     0.013 A 
HETATM   31  C7  UNK     1      16.974   9.427   9.603  1.00  0.00     0.009 A 
HETATM   32  C2  UNK     1      16.858  10.634   8.916  1.00  0.00    -0.051 A 
HETATM   33  C6  UNK     1      15.722  10.896   8.151  1.00  0.00     0.009 A 
HETATM   34  C9  UNK     1      14.701   9.949   8.073  1.00  0.00     0.013 A 
BRANCH  32  35
HETATM   35  C1  UNK     1      17.950  11.648   9.000  1.00  0.00    -0.024 C 
HETATM   36  C3  UNK     1      17.384  13.099   8.898  1.00  0.00     0.019 C 
HETATM   37  C4  UNK     1      18.983  11.463   7.845  1.00  0.00     0.019 C 
HETATM   38  C5  UNK     1      18.791  11.620  10.319  1.00  0.00     0.019 C 
ENDBRANCH  32  35
ENDBRANCH   2  29
TORSDOF 9
ENDMDL
MODEL 9
REMARK VINA RESULT:      -7.6     26.239     28.411
REMARK  9 active torsions:
REMARK  status: ('A' for Active; 'I' for Inactive)
REMARK    1  A    between atoms: C15_23  and  O1_2 
REMARK    2  A    between atoms: C21_29  and  O1_2 
REMARK    3  A    between atoms: C24_32  and  O5_6 
REMARK    4  A    between atoms: C13_21  and  N1_8 
REMARK       I    between atoms: C16_24  and  N1_8 
REMARK    5  A    between atoms: C1_9  and  C2_10 
REMARK    6  A    between atoms: C11_19  and  C8_16 
REMARK    7  A    between atoms: C12_20  and  C15_23 
REMARK    8  A    between atoms: C16_24  and  C17_25 
REMARK    9  A    between atoms: C21_29  and  C22_30 
ROOT
HETATM    1  S1  UNK     1      14.779  13.103  10.487  1.00  0.00    -0.082 SA
HETATM    2  C11 UNK     1      17.272  12.485  10.551  1.00  0.00    -0.000 A 
HETATM    3  C12 UNK     1      16.587  11.316  10.110  1.00  0.00     0.085 A 
HETATM    4  C13 UNK     1      15.226  11.513  10.031  1.00  0.00     0.094 A 
HETATM    5  C14 UNK     1      16.409  13.531  10.792  1.00  0.00     0.065 A 
ENDROOT
BRANCH   4   6
HETATM    6  N1  UNK     1      14.189  10.657   9.652  1.00  0.00    -0.316 N 
HETATM    7  C16 UNK     1      13.523   9.761  10.477  1.00  0.00     0.262 C 
HETATM    8  O4  UNK     1      13.702   9.543  11.675  1.00  0.00    -0.267 OA
HETATM    9  H15 UNK     1      13.919  10.714   8.672  1.00  0.00     0.169 HD
BRANCH   7  10
HETATM   10  C17 UNK     1      12.487   9.016   9.753  1.00  0.00     0.108 A 
HETATM   11  C19 UNK     1      12.902   8.289   8.709  1.00  0.00     0.037 A 
HETATM   12  C18 UNK     1      11.948   7.515   7.930  1.00  0.00     0.002 A 
HETATM   13  C20 UNK     1      10.604   7.546   8.286  1.00  0.00     0.123 A 
HETATM   14  C25 UNK     1      12.336   6.741   6.833  1.00  0.00     0.014 A 
HETATM   15  C24 UNK     1       9.641   6.829   7.580  1.00  0.00     0.102 A 
HETATM   16  O2  UNK     1      10.174   8.314   9.386  1.00  0.00    -0.271 OA
HETATM   17  C26 UNK     1      10.036   6.060   6.488  1.00  0.00     0.040 A 
HETATM   18  C27 UNK     1      11.381   6.016   6.114  1.00  0.00     0.004 A 
HETATM   19  C23 UNK     1      11.062   9.063  10.152  1.00  0.00     0.304 A 
HETATM   20  O6  UNK     1      10.678   9.728  11.108  1.00  0.00    -0.259 OA
BRANCH  15  21
HETATM   21  O5  UNK     1       8.329   6.868   7.940  1.00  0.00    -0.353 OA
HETATM   22  C29 UNK     1       7.821   5.749   8.666  1.00  0.00     0.210 C 
ENDBRANCH  15  21
ENDBRANCH   7  10
ENDBRANCH   4   6
BRANCH   3  23
HETATM   23  C15 UNK     1      17.205  10.057   9.776  1.00  0.00     0.297 C 
HETATM   24  O3  UNK     1      17.949   9.892   8.799  1.00  0.00    -0.259 OA
BRANCH  23  25
HETATM   25  O1  UNK     1      16.897   9.035  10.646  1.00  0.00    -0.317 OA
BRANCH  25  26
HETATM   26  C21 UNK     1      17.101   7.698  10.172  1.00  0.00     0.178 C 
BRANCH  26  27
HETATM   27  C22 UNK     1      15.842   6.887  10.432  1.00  0.00     0.022 C 
HETATM   28  C28 UNK     1      15.685   5.753   9.435  1.00  0.00     0.007 C 
ENDBRANCH  26  27
ENDBRANCH  25  26
ENDBRANCH  23  25
ENDBRANCH   3  23
BRANCH   2  29
HETATM   29  C8  UNK     1      18.689  12.652  10.751  1.00  0.00    -0.024 A 
HETATM   30  C10 UNK     1      19.555  12.637   9.658  1.00  0.00     0.013 A 
HETATM   31  C7  UNK     1      20.927  12.800   9.853  1.00  0.00     0.009 A 
HETATM   32  C2  UNK     1      21.431  12.978  11.141  1.00  0.00    -0.051 A 
HETATM   33  C6  UNK     1      20.565  12.993  12.234  1.00  0.00     0.009 A 
HETATM   34  C9  UNK     1      19.194  12.830  12.039  1.00  0.00     0.013 A 
BRANCH  32  35
HETATM   35  C1  UNK     1      22.898  13.151  11.350  1.00  0.00    -0.024 C 
HETATM   36  C3  UNK     1      23.190  14.122  12.536  1.00  0.00     0.019 C 
HETATM   37  C4  UNK     1      23.585  13.741  10.079  1.00  0.00     0.019 C 
HETATM   38  C5  UNK     1      23.688  11.842  11.679  1.00  0.00     0.019 C 
ENDBRANCH  32  35
ENDBRANCH   2  29
TORSDOF 9
ENDMDL
MODEL 10
REMARK VINA RESULT:      -7.6     27.010     29.254
REMARK  9 active torsions:
REMARK  status: ('A' for Active; 'I' for Inactive)
REMARK    1  A    between atoms: C15_23  and  O1_2 
REMARK    2  A    between atoms: C21_29  and  O1_2 
REMARK    3  A    between atoms: C24_32  and  O5_6 
REMARK    4  A    between atoms: C13_21  and  N1_8 
REMARK       I    between atoms: C16_24  and  N1_8 
REMARK    5  A    between atoms: C1_9  and  C2_10 
REMARK    6  A    between atoms: C11_19  and  C8_16 
REMARK    7  A    between atoms: C12_20  and  C15_23 
REMARK    8  A    between atoms: C16_24  and  C17_25 
REMARK    9  A    between atoms: C21_29  and  C22_30 
ROOT
HETATM    1  S1  UNK     1      16.309   7.087  10.113  1.00  0.00    -0.082 SA
HETATM    2  C11 UNK     1      16.978   9.540   9.745  1.00  0.00    -0.000 A 
HETATM    3  C12 UNK     1      15.578   9.469   9.486  1.00  0.00     0.085 A 
HETATM    4  C13 UNK     1      15.087   8.192   9.649  1.00  0.00     0.094 A 
HETATM    5  C14 UNK     1      17.502   8.315  10.096  1.00  0.00     0.065 A 
ENDROOT
BRANCH   4   6
HETATM    6  N1  UNK     1      13.798   7.674   9.503  1.00  0.00    -0.316 N 
HETATM    7  C16 UNK     1      13.199   7.289   8.311  1.00  0.00     0.262 C 
HETATM    8  O4  UNK     1      13.665   7.323   7.174  1.00  0.00    -0.267 OA
HETATM    9  H15 UNK     1      13.269   7.584  10.368  1.00  0.00     0.169 HD
BRANCH   7  10
HETATM   10  C17 UNK     1      11.835   6.788   8.520  1.00  0.00     0.108 A 
HETATM   11  C19 UNK     1      10.927   7.690   8.908  1.00  0.00     0.037 A 
HETATM   12  C18 UNK     1       9.548   7.289   9.140  1.00  0.00     0.002 A 
HETATM   13  C20 UNK     1       9.194   5.957   8.953  1.00  0.00     0.123 A 
HETATM   14  C25 UNK     1       8.566   8.197   9.545  1.00  0.00     0.014 A 
HETATM   15  C24 UNK     1       7.891   5.509   9.158  1.00  0.00     0.102 A 
HETATM   16  O2  UNK     1      10.155   5.012   8.544  1.00  0.00    -0.271 OA
HETATM   17  C26 UNK     1       6.918   6.420   9.563  1.00  0.00     0.040 A 
HETATM   18  C27 UNK     1       7.254   7.762   9.755  1.00  0.00     0.004 A 
HETATM   19  C23 UNK     1      11.481   5.366   8.313  1.00  0.00     0.304 A 
HETATM   20  O6  UNK     1      12.311   4.536   7.957  1.00  0.00    -0.259 OA
BRANCH  15  21
HETATM   21  O5  UNK     1       7.558   4.203   8.972  1.00  0.00    -0.353 OA
HETATM   22  C29 UNK     1       6.660   3.620   9.915  1.00  0.00     0.210 C 
ENDBRANCH  15  21
ENDBRANCH   7  10
ENDBRANCH   4   6
BRANCH   3  23
HETATM   23  C15 UNK     1      14.740  10.576   9.097  1.00  0.00     0.297 C 
HETATM   24  O3  UNK     1      13.707  10.903   9.698  1.00  0.00    -0.259 OA
BRANCH  23  25
HETATM   25  O1  UNK     1      15.188  11.252   7.984  1.00  0.00    -0.317 OA
BRANCH  25  26
HETATM   26  C21 UNK     1      15.176  12.683   8.048  1.00  0.00     0.178 C 
BRANCH  26  27
HETATM   27  C22 UNK     1      16.329  13.223   7.216  1.00  0.00     0.022 C 
HETATM   28  C28 UNK     1      16.754  14.607   7.670  1.00  0.00     0.007 C 
ENDBRANCH  26  27
ENDBRANCH  25  26
ENDBRANCH  23  25
ENDBRANCH   3  23
BRANCH   2  29
HETATM   29  C8  UNK     1      17.828  10.700   9.675  1.00  0.00    -0.024 A 
HETATM   30  C10 UNK     1      17.810  11.642  10.703  1.00  0.00     0.013 A 
HETATM   31  C7  UNK     1      18.636  12.765  10.635  1.00  0.00     0.009 A 
HETATM   32  C2  UNK     1      19.477  12.945   9.538  1.00  0.00    -0.051 A 
HETATM   33  C6  UNK     1      19.495  12.004   8.509  1.00  0.00     0.009 A 
HETATM   34  C9  UNK     1      18.670  10.881   8.578  1.00  0.00     0.013 A 
BRANCH  32  35
HETATM   35  C1  UNK     1      20.359  14.147   9.464  1.00  0.00    -0.024 C 
HETATM   36  C3  UNK     1      19.648  15.406  10.050  1.00  0.00     0.019 C 
HETATM   37  C4  UNK     1      20.750  14.471   7.989  1.00  0.00     0.019 C 
HETATM   38  C5  UNK     1      21.713  14.034  10.238  1.00  0.00     0.019 C 
ENDBRANCH  32  35
ENDBRANCH   2  29
TORSDOF 9
ENDMDL
