MODEL 1
REMARK VINA RESULT:      -7.1      0.000      0.000
REMARK  7 active torsions:
REMARK  status: ('A' for Active; 'I' for Inactive)
REMARK    1  A    between atoms: C2_7  and  O1_1 
REMARK    2  A    between atoms: C3_8  and  O2_2 
REMARK    3  A    between atoms: C4_9  and  O3_3 
REMARK    4  A    between atoms: C15_20  and  O5_5 
REMARK    5  A    between atoms: C1_6  and  C7_12 
REMARK    6  A    between atoms: C7_12  and  C8_13 
REMARK    7  A    between atoms: C10_15  and  C9_14 
ROOT
HETATM    1  C1  UNK     1      22.149  -8.676  37.793  1.00  0.00     0.081 A 
HETATM    2  C2  UNK     1      23.489  -8.758  37.414  1.00  0.00     0.087 A 
HETATM    3  C3  UNK     1      21.229  -9.606  37.310  1.00  0.00     0.087 A 
HETATM    4  C4  UNK     1      22.989 -10.702  36.069  1.00  0.00     0.073 A 
HETATM    5  C5  UNK     1      23.908  -9.771  36.552  1.00  0.00     0.074 A 
HETATM    6  C6  UNK     1      21.649 -10.620  36.448  1.00  0.00     0.074 A 
ENDROOT
BRANCH   1   7
HETATM    7  C7  UNK     1      21.702  -7.598  38.709  1.00  0.00     0.187 C 
HETATM    8  O4  UNK     1      21.111  -7.886  39.744  1.00  0.00    -0.287 OA
BRANCH   7   9
HETATM    9  C8  UNK     1      21.969  -6.191  38.301  1.00  0.00     0.056 C 
HETATM   10  C10 UNK     1      21.154  -5.570  37.419  1.00  0.00     0.015 C 
BRANCH  10  11
HETATM   11  C9  UNK     1      19.982  -6.165  36.797  1.00  0.00    -0.036 A 
HETATM   12  C11 UNK     1      20.063  -6.679  35.503  1.00  0.00     0.014 A 
HETATM   13  C13 UNK     1      18.939  -7.252  34.909  1.00  0.00     0.037 A 
HETATM   14  C15 UNK     1      17.733  -7.310  35.607  1.00  0.00     0.065 A 
HETATM   15  C14 UNK     1      17.651  -6.795  36.901  1.00  0.00     0.037 A 
HETATM   16  C12 UNK     1      18.775  -6.223  37.496  1.00  0.00     0.014 A 
BRANCH  14  17
HETATM   17  O5  UNK     1      16.636  -7.869  35.027  1.00  0.00    -0.361 OA
HETATM   18  H18 UNK     1      15.860  -7.692  35.584  1.00  0.00     0.217 HD
ENDBRANCH  14  17
ENDBRANCH  10  11
ENDBRANCH   7   9
ENDBRANCH   1   7
BRANCH   2  19
HETATM   19  O1  UNK     1      24.403  -7.858  37.874  1.00  0.00    -0.355 OA
HETATM   20  C16 UNK     1      25.498  -8.376  38.627  1.00  0.00     0.210 C 
ENDBRANCH   2  19
BRANCH   3  21
HETATM   21  O2  UNK     1      19.915  -9.545  37.668  1.00  0.00    -0.355 OA
HETATM   22  C17 UNK     1      19.397 -10.642  38.416  1.00  0.00     0.210 C 
ENDBRANCH   3  21
BRANCH   4  23
HETATM   23  O3  UNK     1      23.398 -11.690  35.227  1.00  0.00    -0.356 OA
HETATM   24  C18 UNK     1      24.425 -12.561  35.700  1.00  0.00     0.210 C 
ENDBRANCH   4  23
TORSDOF 7
ENDMDL
MODEL 2
REMARK VINA RESULT:      -6.9      7.964     10.608
REMARK  7 active torsions:
REMARK  status: ('A' for Active; 'I' for Inactive)
REMARK    1  A    between atoms: C2_7  and  O1_1 
REMARK    2  A    between atoms: C3_8  and  O2_2 
REMARK    3  A    between atoms: C4_9  and  O3_3 
REMARK    4  A    between atoms: C15_20  and  O5_5 
REMARK    5  A    between atoms: C1_6  and  C7_12 
REMARK    6  A    between atoms: C7_12  and  C8_13 
REMARK    7  A    between atoms: C10_15  and  C9_14 
ROOT
HETATM    1  C1  UNK     1      18.825  -0.977  34.141  1.00  0.00     0.081 A 
HETATM    2  C2  UNK     1      18.218   0.247  34.421  1.00  0.00     0.087 A 
HETATM    3  C3  UNK     1      19.226  -1.811  35.184  1.00  0.00     0.087 A 
HETATM    4  C4  UNK     1      18.412  -0.198  36.788  1.00  0.00     0.073 A 
HETATM    5  C5  UNK     1      18.011   0.636  35.744  1.00  0.00     0.074 A 
HETATM    6  C6  UNK     1      19.019  -1.422  36.508  1.00  0.00     0.074 A 
ENDROOT
BRANCH   1   7
HETATM    7  C7  UNK     1      19.046  -1.391  32.734  1.00  0.00     0.187 C 
HETATM    8  O4  UNK     1      18.085  -1.640  32.016  1.00  0.00    -0.287 OA
BRANCH   7   9
HETATM    9  C8  UNK     1      20.455  -1.517  32.266  1.00  0.00     0.056 C 
HETATM   10  C10 UNK     1      20.855  -0.895  31.133  1.00  0.00     0.015 C 
BRANCH  10  11
HETATM   11  C9  UNK     1      20.008  -0.073  30.284  1.00  0.00    -0.036 A 
HETATM   12  C11 UNK     1      19.621  -0.535  29.026  1.00  0.00     0.014 A 
HETATM   13  C13 UNK     1      18.808   0.253  28.213  1.00  0.00     0.037 A 
HETATM   14  C15 UNK     1      18.382   1.504  28.656  1.00  0.00     0.065 A 
HETATM   15  C14 UNK     1      18.769   1.968  29.914  1.00  0.00     0.037 A 
HETATM   16  C12 UNK     1      19.581   1.179  30.728  1.00  0.00     0.014 A 
BRANCH  14  17
HETATM   17  O5  UNK     1      17.587   2.274  27.863  1.00  0.00    -0.361 OA
HETATM   18  H18 UNK     1      17.127   2.927  28.417  1.00  0.00     0.217 HD
ENDBRANCH  14  17
ENDBRANCH  10  11
ENDBRANCH   7   9
ENDBRANCH   1   7
BRANCH   2  19
HETATM   19  O1  UNK     1      17.821   1.078  33.416  1.00  0.00    -0.355 OA
HETATM   20  C16 UNK     1      18.014   2.476  33.619  1.00  0.00     0.210 C 
ENDBRANCH   2  19
BRANCH   3  21
HETATM   21  O2  UNK     1      19.821  -3.013  34.934  1.00  0.00    -0.355 OA
HETATM   22  C17 UNK     1      19.944  -3.914  36.031  1.00  0.00     0.210 C 
ENDBRANCH   3  21
BRANCH   4  23
HETATM   23  O3  UNK     1      18.211   0.182  38.079  1.00  0.00    -0.356 OA
HETATM   24  C18 UNK     1      17.514   1.409  38.293  1.00  0.00     0.210 C 
ENDBRANCH   4  23
TORSDOF 7
ENDMDL
MODEL 3
REMARK VINA RESULT:      -6.8      7.920     10.581
REMARK  7 active torsions:
REMARK  status: ('A' for Active; 'I' for Inactive)
REMARK    1  A    between atoms: C2_7  and  O1_1 
REMARK    2  A    between atoms: C3_8  and  O2_2 
REMARK    3  A    between atoms: C4_9  and  O3_3 
REMARK    4  A    between atoms: C15_20  and  O5_5 
REMARK    5  A    between atoms: C1_6  and  C7_12 
REMARK    6  A    between atoms: C7_12  and  C8_13 
REMARK    7  A    between atoms: C10_15  and  C9_14 
ROOT
HETATM    1  C1  UNK     1      18.856  -1.031  34.145  1.00  0.00     0.081 A 
HETATM    2  C2  UNK     1      19.293  -1.875  35.166  1.00  0.00     0.087 A 
HETATM    3  C3  UNK     1      18.214   0.167  34.459  1.00  0.00     0.087 A 
HETATM    4  C4  UNK     1      18.447  -0.324  36.813  1.00  0.00     0.073 A 
HETATM    5  C5  UNK     1      19.089  -1.522  36.499  1.00  0.00     0.074 A 
HETATM    6  C6  UNK     1      18.009   0.521  35.793  1.00  0.00     0.074 A 
ENDROOT
BRANCH   1   7
HETATM    7  C7  UNK     1      19.073  -1.406  32.727  1.00  0.00     0.187 C 
HETATM    8  O4  UNK     1      18.108  -1.629  32.003  1.00  0.00    -0.287 OA
BRANCH   7   9
HETATM    9  C8  UNK     1      20.479  -1.527  32.252  1.00  0.00     0.056 C 
HETATM   10  C10 UNK     1      20.871  -0.905  31.117  1.00  0.00     0.015 C 
BRANCH  10  11
HETATM   11  C9  UNK     1      20.017  -0.087  30.270  1.00  0.00    -0.036 A 
HETATM   12  C11 UNK     1      19.568   1.153  30.722  1.00  0.00     0.014 A 
HETATM   13  C13 UNK     1      18.750   1.938  29.909  1.00  0.00     0.037 A 
HETATM   14  C15 UNK     1      18.380   1.481  28.645  1.00  0.00     0.065 A 
HETATM   15  C14 UNK     1      18.829   0.240  28.192  1.00  0.00     0.037 A 
HETATM   16  C12 UNK     1      19.646  -0.544  29.005  1.00  0.00     0.014 A 
BRANCH  14  17
HETATM   17  O5  UNK     1      17.583   2.247  27.851  1.00  0.00    -0.361 OA
HETATM   18  H18 UNK     1      17.239   1.698  27.125  1.00  0.00     0.217 HD
ENDBRANCH  14  17
ENDBRANCH  10  11
ENDBRANCH   7   9
ENDBRANCH   1   7
BRANCH   2  19
HETATM   19  O1  UNK     1      19.921  -3.051  34.881  1.00  0.00    -0.355 OA
HETATM   20  C16 UNK     1      19.959  -4.031  35.916  1.00  0.00     0.210 C 
ENDBRANCH   2  19
BRANCH   3  21
HETATM   21  O2  UNK     1      17.779   1.008  33.477  1.00  0.00    -0.355 OA
HETATM   22  C17 UNK     1      18.078   2.393  33.634  1.00  0.00     0.210 C 
ENDBRANCH   3  21
BRANCH   4  23
HETATM   23  O3  UNK     1      18.246   0.021  38.114  1.00  0.00    -0.356 OA
HETATM   24  C18 UNK     1      17.579   1.258  38.362  1.00  0.00     0.210 C 
ENDBRANCH   4  23
TORSDOF 7
ENDMDL
MODEL 4
REMARK VINA RESULT:      -6.8     31.287     33.462
REMARK  7 active torsions:
REMARK  status: ('A' for Active; 'I' for Inactive)
REMARK    1  A    between atoms: C2_7  and  O1_1 
REMARK    2  A    between atoms: C3_8  and  O2_2 
REMARK    3  A    between atoms: C4_9  and  O3_3 
REMARK    4  A    between atoms: C15_20  and  O5_5 
REMARK    5  A    between atoms: C1_6  and  C7_12 
REMARK    6  A    between atoms: C7_12  and  C8_13 
REMARK    7  A    between atoms: C10_15  and  C9_14 
ROOT
HETATM    1  C1  UNK     1      13.787   7.718   9.327  1.00  0.00     0.081 A 
HETATM    2  C2  UNK     1      14.945   7.644  10.099  1.00  0.00     0.087 A 
HETATM    3  C3  UNK     1      12.726   8.525   9.739  1.00  0.00     0.087 A 
HETATM    4  C4  UNK     1      13.983   9.181  11.694  1.00  0.00     0.073 A 
HETATM    5  C5  UNK     1      15.044   8.375  11.282  1.00  0.00     0.074 A 
HETATM    6  C6  UNK     1      12.824   9.257  10.923  1.00  0.00     0.074 A 
ENDROOT
BRANCH   1   7
HETATM    7  C7  UNK     1      13.680   6.940   8.069  1.00  0.00     0.187 C 
HETATM    8  O4  UNK     1      13.601   7.528   6.996  1.00  0.00    -0.287 OA
BRANCH   7   9
HETATM    9  C8  UNK     1      13.642   5.455   8.177  1.00  0.00     0.056 C 
HETATM   10  C10 UNK     1      12.465   4.796   8.093  1.00  0.00     0.015 C 
BRANCH  10  11
HETATM   11  C9  UNK     1      11.166   5.419   7.897  1.00  0.00    -0.036 A 
HETATM   12  C11 UNK     1      10.290   5.563   8.973  1.00  0.00     0.014 A 
HETATM   13  C13 UNK     1       9.045   6.163   8.784  1.00  0.00     0.037 A 
HETATM   14  C15 UNK     1       8.675   6.618   7.519  1.00  0.00     0.065 A 
HETATM   15  C14 UNK     1       9.551   6.475   6.442  1.00  0.00     0.037 A 
HETATM   16  C12 UNK     1      10.796   5.875   6.631  1.00  0.00     0.014 A 
BRANCH  14  17
HETATM   17  O5  UNK     1       7.461   7.205   7.334  1.00  0.00    -0.361 OA
HETATM   18  H18 UNK     1       7.373   7.950   7.952  1.00  0.00     0.217 HD
ENDBRANCH  14  17
ENDBRANCH  10  11
ENDBRANCH   7   9
ENDBRANCH   1   7
BRANCH   2  19
HETATM   19  O1  UNK     1      15.993   6.860   9.715  1.00  0.00    -0.355 OA
HETATM   20  C16 UNK     1      17.298   7.292  10.096  1.00  0.00     0.210 C 
ENDBRANCH   2  19
BRANCH   3  21
HETATM   21  O2  UNK     1      11.583   8.614   9.000  1.00  0.00    -0.355 OA
HETATM   22  C17 UNK     1      10.538   9.431   9.521  1.00  0.00     0.210 C 
ENDBRANCH   3  21
BRANCH   4  23
HETATM   23  O3  UNK     1      14.079   9.894  12.849  1.00  0.00    -0.356 OA
HETATM   24  C18 UNK     1      12.857  10.256  13.491  1.00  0.00     0.210 C 
ENDBRANCH   4  23
TORSDOF 7
ENDMDL
MODEL 5
REMARK VINA RESULT:      -6.8     31.272     33.549
REMARK  7 active torsions:
REMARK  status: ('A' for Active; 'I' for Inactive)
REMARK    1  A    between atoms: C2_7  and  O1_1 
REMARK    2  A    between atoms: C3_8  and  O2_2 
REMARK    3  A    between atoms: C4_9  and  O3_3 
REMARK    4  A    between atoms: C15_20  and  O5_5 
REMARK    5  A    between atoms: C1_6  and  C7_12 
REMARK    6  A    between atoms: C7_12  and  C8_13 
REMARK    7  A    between atoms: C10_15  and  C9_14 
ROOT
HETATM    1  C1  UNK     1      13.783   7.727   9.327  1.00  0.00     0.081 A 
HETATM    2  C2  UNK     1      12.731   8.544   9.738  1.00  0.00     0.087 A 
HETATM    3  C3  UNK     1      14.939   7.638  10.102  1.00  0.00     0.087 A 
HETATM    4  C4  UNK     1      13.990   9.183  11.698  1.00  0.00     0.073 A 
HETATM    5  C5  UNK     1      12.834   9.272  10.923  1.00  0.00     0.074 A 
HETATM    6  C6  UNK     1      15.043   8.366  11.287  1.00  0.00     0.074 A 
ENDROOT
BRANCH   1   7
HETATM    7  C7  UNK     1      13.675   6.953   8.066  1.00  0.00     0.187 C 
HETATM    8  O4  UNK     1      13.591   7.544   6.996  1.00  0.00    -0.287 OA
BRANCH   7   9
HETATM    9  C8  UNK     1      13.640   5.468   8.169  1.00  0.00     0.056 C 
HETATM   10  C10 UNK     1      12.464   4.806   8.079  1.00  0.00     0.015 C 
BRANCH  10  11
HETATM   11  C9  UNK     1      11.164   5.427   7.879  1.00  0.00    -0.036 A 
HETATM   12  C11 UNK     1      10.295   5.590   8.958  1.00  0.00     0.014 A 
HETATM   13  C13 UNK     1       9.050   6.188   8.766  1.00  0.00     0.037 A 
HETATM   14  C15 UNK     1       8.672   6.621   7.496  1.00  0.00     0.065 A 
HETATM   15  C14 UNK     1       9.541   6.458   6.417  1.00  0.00     0.037 A 
HETATM   16  C12 UNK     1      10.787   5.861   6.608  1.00  0.00     0.014 A 
BRANCH  14  17
HETATM   17  O5  UNK     1       7.457   7.206   7.309  1.00  0.00    -0.361 OA
HETATM   18  H18 UNK     1       7.498   8.125   7.622  1.00  0.00     0.217 HD
ENDBRANCH  14  17
ENDBRANCH  10  11
ENDBRANCH   7   9
ENDBRANCH   1   7
BRANCH   2  19
HETATM   19  O1  UNK     1      11.592   8.646   8.994  1.00  0.00    -0.355 OA
HETATM   20  C16 UNK     1      10.528   9.420   9.545  1.00  0.00     0.210 C 
ENDBRANCH   2  19
BRANCH   3  21
HETATM   21  O2  UNK     1      15.981   6.845   9.720  1.00  0.00    -0.355 OA
HETATM   22  C17 UNK     1      17.289   7.274  10.089  1.00  0.00     0.210 C 
ENDBRANCH   3  21
BRANCH   4  23
HETATM   23  O3  UNK     1      14.091   9.894  12.854  1.00  0.00    -0.356 OA
HETATM   24  C18 UNK     1      12.873  10.243  13.509  1.00  0.00     0.210 C 
ENDBRANCH   4  23
TORSDOF 7
ENDMDL
MODEL 6
REMARK VINA RESULT:      -6.7     31.361     33.791
REMARK  7 active torsions:
REMARK  status: ('A' for Active; 'I' for Inactive)
REMARK    1  A    between atoms: C2_7  and  O1_1 
REMARK    2  A    between atoms: C3_8  and  O2_2 
REMARK    3  A    between atoms: C4_9  and  O3_3 
REMARK    4  A    between atoms: C15_20  and  O5_5 
REMARK    5  A    between atoms: C1_6  and  C7_12 
REMARK    6  A    between atoms: C7_12  and  C8_13 
REMARK    7  A    between atoms: C10_15  and  C9_14 
ROOT
HETATM    1  C1  UNK     1      14.012   7.532   9.418  1.00  0.00     0.081 A 
HETATM    2  C2  UNK     1      15.353   7.626   9.791  1.00  0.00     0.087 A 
HETATM    3  C3  UNK     1      13.379   8.620   8.817  1.00  0.00     0.087 A 
HETATM    4  C4  UNK     1      15.427   9.894   8.963  1.00  0.00     0.073 A 
HETATM    5  C5  UNK     1      16.060   8.806   9.564  1.00  0.00     0.074 A 
HETATM    6  C6  UNK     1      14.086   9.801   8.590  1.00  0.00     0.074 A 
ENDROOT
BRANCH   1   7
HETATM    7  C7  UNK     1      13.259   6.278   9.660  1.00  0.00     0.187 C 
HETATM    8  O4  UNK     1      12.512   6.195  10.628  1.00  0.00    -0.287 OA
BRANCH   7   9
HETATM    9  C8  UNK     1      13.477   5.148   8.713  1.00  0.00     0.056 C 
HETATM   10  C10 UNK     1      12.503   4.786   7.848  1.00  0.00     0.015 C 
BRANCH  10  11
HETATM   11  C9  UNK     1      11.198   5.419   7.741  1.00  0.00    -0.036 A 
HETATM   12  C11 UNK     1      10.817   6.037   6.550  1.00  0.00     0.014 A 
HETATM   13  C13 UNK     1       9.565   6.642   6.448  1.00  0.00     0.037 A 
HETATM   14  C15 UNK     1       8.694   6.631   7.536  1.00  0.00     0.065 A 
HETATM   15  C14 UNK     1       9.074   6.014   8.728  1.00  0.00     0.037 A 
HETATM   16  C12 UNK     1      10.326   5.408   8.831  1.00  0.00     0.014 A 
BRANCH  14  17
HETATM   17  O5  UNK     1       7.471   7.221   7.436  1.00  0.00    -0.361 OA
HETATM   18  H18 UNK     1       7.062   7.250   8.318  1.00  0.00     0.217 HD
ENDBRANCH  14  17
ENDBRANCH  10  11
ENDBRANCH   7   9
ENDBRANCH   1   7
BRANCH   2  19
HETATM   19  O1  UNK     1      15.990   6.574  10.381  1.00  0.00    -0.355 OA
HETATM   20  C16 UNK     1      16.951   5.876   9.592  1.00  0.00     0.210 C 
ENDBRANCH   2  19
BRANCH   3  21
HETATM   21  O2  UNK     1      12.069   8.552   8.443  1.00  0.00    -0.355 OA
HETATM   22  C17 UNK     1      11.115   9.143   9.321  1.00  0.00     0.210 C 
ENDBRANCH   3  21
BRANCH   4  23
HETATM   23  O3  UNK     1      16.116  11.046   8.742  1.00  0.00    -0.356 OA
HETATM   24  C18 UNK     1      15.761  11.803   7.586  1.00  0.00     0.210 C 
ENDBRANCH   4  23
TORSDOF 7
ENDMDL
MODEL 7
REMARK VINA RESULT:      -6.7     11.714     13.917
REMARK  7 active torsions:
REMARK  status: ('A' for Active; 'I' for Inactive)
REMARK    1  A    between atoms: C2_7  and  O1_1 
REMARK    2  A    between atoms: C3_8  and  O2_2 
REMARK    3  A    between atoms: C4_9  and  O3_3 
REMARK    4  A    between atoms: C15_20  and  O5_5 
REMARK    5  A    between atoms: C1_6  and  C7_12 
REMARK    6  A    between atoms: C7_12  and  C8_13 
REMARK    7  A    between atoms: C10_15  and  C9_14 
ROOT
HETATM    1  C1  UNK     1      18.468   2.731  31.860  1.00  0.00     0.081 A 
HETATM    2  C2  UNK     1      18.777   1.956  30.742  1.00  0.00     0.087 A 
HETATM    3  C3  UNK     1      18.404   2.139  33.121  1.00  0.00     0.087 A 
HETATM    4  C4  UNK     1      18.957  -0.001  32.147  1.00  0.00     0.073 A 
HETATM    5  C5  UNK     1      19.021   0.591  30.885  1.00  0.00     0.074 A 
HETATM    6  C6  UNK     1      18.648   0.773  33.265  1.00  0.00     0.074 A 
ENDROOT
BRANCH   1   7
HETATM    7  C7  UNK     1      18.207   4.183  31.709  1.00  0.00     0.187 C 
HETATM    8  O4  UNK     1      17.094   4.630  31.958  1.00  0.00    -0.287 OA
BRANCH   7   9
HETATM    9  C8  UNK     1      19.325   5.038  31.220  1.00  0.00     0.056 C 
HETATM   10  C10 UNK     1      19.466   6.303  31.678  1.00  0.00     0.015 C 
BRANCH  10  11
HETATM   11  C9  UNK     1      18.595   6.946  32.648  1.00  0.00    -0.036 A 
HETATM   12  C11 UNK     1      17.479   7.663  32.218  1.00  0.00     0.014 A 
HETATM   13  C13 UNK     1      16.643   8.278  33.149  1.00  0.00     0.037 A 
HETATM   14  C15 UNK     1      16.923   8.177  34.511  1.00  0.00     0.065 A 
HETATM   15  C14 UNK     1      18.039   7.460  34.943  1.00  0.00     0.037 A 
HETATM   16  C12 UNK     1      18.875   6.845  34.012  1.00  0.00     0.014 A 
BRANCH  14  17
HETATM   17  O5  UNK     1      16.106   8.776  35.421  1.00  0.00    -0.361 OA
HETATM   18  H18 UNK     1      15.769   9.606  35.043  1.00  0.00     0.217 HD
ENDBRANCH  14  17
ENDBRANCH  10  11
ENDBRANCH   7   9
ENDBRANCH   1   7
BRANCH   2  19
HETATM   19  O1  UNK     1      18.844   2.515  29.500  1.00  0.00    -0.355 OA
HETATM   20  C16 UNK     1      17.899   2.058  28.534  1.00  0.00     0.210 C 
ENDBRANCH   2  19
BRANCH   3  21
HETATM   21  O2  UNK     1      18.105   2.877  34.229  1.00  0.00    -0.355 OA
HETATM   22  C17 UNK     1      18.360   2.275  35.495  1.00  0.00     0.210 C 
ENDBRANCH   3  21
BRANCH   4  23
HETATM   23  O3  UNK     1      19.195  -1.333  32.286  1.00  0.00    -0.356 OA
HETATM   24  C18 UNK     1      20.187  -1.908  31.437  1.00  0.00     0.210 C 
ENDBRANCH   4  23
TORSDOF 7
ENDMDL
MODEL 8
REMARK VINA RESULT:      -6.7     11.711     13.916
REMARK  7 active torsions:
REMARK  status: ('A' for Active; 'I' for Inactive)
REMARK    1  A    between atoms: C2_7  and  O1_1 
REMARK    2  A    between atoms: C3_8  and  O2_2 
REMARK    3  A    between atoms: C4_9  and  O3_3 
REMARK    4  A    between atoms: C15_20  and  O5_5 
REMARK    5  A    between atoms: C1_6  and  C7_12 
REMARK    6  A    between atoms: C7_12  and  C8_13 
REMARK    7  A    between atoms: C10_15  and  C9_14 
ROOT
HETATM    1  C1  UNK     1      18.466   2.720  31.840  1.00  0.00     0.081 A 
HETATM    2  C2  UNK     1      18.416   2.125  33.100  1.00  0.00     0.087 A 
HETATM    3  C3  UNK     1      18.762   1.948  30.716  1.00  0.00     0.087 A 
HETATM    4  C4  UNK     1      18.956  -0.013  32.114  1.00  0.00     0.073 A 
HETATM    5  C5  UNK     1      18.661   0.759  33.237  1.00  0.00     0.074 A 
HETATM    6  C6  UNK     1      19.007   0.581  30.853  1.00  0.00     0.074 A 
ENDROOT
BRANCH   1   7
HETATM    7  C7  UNK     1      18.207   4.173  31.693  1.00  0.00     0.187 C 
HETATM    8  O4  UNK     1      17.094   4.620  31.944  1.00  0.00    -0.287 OA
BRANCH   7   9
HETATM    9  C8  UNK     1      19.326   5.027  31.207  1.00  0.00     0.056 C 
HETATM   10  C10 UNK     1      19.467   6.292  31.666  1.00  0.00     0.015 C 
BRANCH  10  11
HETATM   11  C9  UNK     1      18.594   6.935  32.635  1.00  0.00    -0.036 A 
HETATM   12  C11 UNK     1      18.861   6.820  33.999  1.00  0.00     0.014 A 
HETATM   13  C13 UNK     1      18.025   7.439  34.928  1.00  0.00     0.037 A 
HETATM   14  C15 UNK     1      16.920   8.171  34.493  1.00  0.00     0.065 A 
HETATM   15  C14 UNK     1      16.652   8.285  33.129  1.00  0.00     0.037 A 
HETATM   16  C12 UNK     1      17.489   7.667  32.200  1.00  0.00     0.014 A 
BRANCH  14  17
HETATM   17  O5  UNK     1      16.104   8.775  35.400  1.00  0.00    -0.361 OA
HETATM   18  H18 UNK     1      15.500   9.375  34.930  1.00  0.00     0.217 HD
ENDBRANCH  14  17
ENDBRANCH  10  11
ENDBRANCH   7   9
ENDBRANCH   1   7
BRANCH   2  19
HETATM   19  O1  UNK     1      18.131   2.862  34.211  1.00  0.00    -0.355 OA
HETATM   20  C16 UNK     1      18.275   2.212  35.472  1.00  0.00     0.210 C 
ENDBRANCH   2  19
BRANCH   3  21
HETATM   21  O2  UNK     1      18.816   2.508  29.474  1.00  0.00    -0.355 OA
HETATM   22  C17 UNK     1      17.866   2.048  28.516  1.00  0.00     0.210 C 
ENDBRANCH   3  21
BRANCH   4  23
HETATM   23  O3  UNK     1      19.196  -1.346  32.247  1.00  0.00    -0.356 OA
HETATM   24  C18 UNK     1      20.302  -1.882  31.522  1.00  0.00     0.210 C 
ENDBRANCH   4  23
TORSDOF 7
ENDMDL
MODEL 9
REMARK VINA RESULT:      -6.7     31.281     33.937
REMARK  7 active torsions:
REMARK  status: ('A' for Active; 'I' for Inactive)
REMARK    1  A    between atoms: C2_7  and  O1_1 
REMARK    2  A    between atoms: C3_8  and  O2_2 
REMARK    3  A    between atoms: C4_9  and  O3_3 
REMARK    4  A    between atoms: C15_20  and  O5_5 
REMARK    5  A    between atoms: C1_6  and  C7_12 
REMARK    6  A    between atoms: C7_12  and  C8_13 
REMARK    7  A    between atoms: C10_15  and  C9_14 
ROOT
HETATM    1  C1  UNK     1      14.000   7.699   9.401  1.00  0.00     0.081 A 
HETATM    2  C2  UNK     1      13.291   8.762   8.844  1.00  0.00     0.087 A 
HETATM    3  C3  UNK     1      15.347   7.855   9.727  1.00  0.00     0.087 A 
HETATM    4  C4  UNK     1      15.274  10.137   8.939  1.00  0.00     0.073 A 
HETATM    5  C5  UNK     1      13.927   9.981   8.613  1.00  0.00     0.074 A 
HETATM    6  C6  UNK     1      15.985   9.074   9.496  1.00  0.00     0.074 A 
ENDROOT
BRANCH   1   7
HETATM    7  C7  UNK     1      13.324   6.401   9.646  1.00  0.00     0.187 C 
HETATM    8  O4  UNK     1      12.590   6.273  10.619  1.00  0.00    -0.287 OA
BRANCH   7   9
HETATM    9  C8  UNK     1      13.602   5.288   8.696  1.00  0.00     0.056 C 
HETATM   10  C10 UNK     1      12.657   4.894   7.813  1.00  0.00     0.015 C 
BRANCH  10  11
HETATM   11  C9  UNK     1      11.330   5.475   7.689  1.00  0.00    -0.036 A 
HETATM   12  C11 UNK     1      10.945   6.088   6.496  1.00  0.00     0.014 A 
HETATM   13  C13 UNK     1       9.671   6.643   6.377  1.00  0.00     0.037 A 
HETATM   14  C15 UNK     1       8.783   6.589   7.450  1.00  0.00     0.065 A 
HETATM   15  C14 UNK     1       9.168   5.977   8.644  1.00  0.00     0.037 A 
HETATM   16  C12 UNK     1      10.441   5.421   8.763  1.00  0.00     0.014 A 
BRANCH  14  17
HETATM   17  O5  UNK     1       7.540   7.130   7.334  1.00  0.00    -0.361 OA
HETATM   18  H18 UNK     1       7.093   7.083   8.197  1.00  0.00     0.217 HD
ENDBRANCH  14  17
ENDBRANCH  10  11
ENDBRANCH   7   9
ENDBRANCH   1   7
BRANCH   2  19
HETATM   19  O1  UNK     1      11.974   8.629   8.517  1.00  0.00    -0.355 OA
HETATM   20  C16 UNK     1      11.024   9.212   9.408  1.00  0.00     0.210 C 
ENDBRANCH   2  19
BRANCH   3  21
HETATM   21  O2  UNK     1      16.061   6.829  10.273  1.00  0.00    -0.355 OA
HETATM   22  C17 UNK     1      17.481   6.959  10.276  1.00  0.00     0.210 C 
ENDBRANCH   3  21
BRANCH   4  23
HETATM   23  O3  UNK     1      15.896  11.327   8.713  1.00  0.00    -0.356 OA
HETATM   24  C18 UNK     1      15.681  11.939   7.442  1.00  0.00     0.210 C 
ENDBRANCH   4  23
TORSDOF 7
ENDMDL
MODEL 10
REMARK VINA RESULT:      -6.5     15.798     18.704
REMARK  7 active torsions:
REMARK  status: ('A' for Active; 'I' for Inactive)
REMARK    1  A    between atoms: C2_7  and  O1_1 
REMARK    2  A    between atoms: C3_8  and  O2_2 
REMARK    3  A    between atoms: C4_9  and  O3_3 
REMARK    4  A    between atoms: C15_20  and  O5_5 
REMARK    5  A    between atoms: C1_6  and  C7_12 
REMARK    6  A    between atoms: C7_12  and  C8_13 
REMARK    7  A    between atoms: C10_15  and  C9_14 
ROOT
HETATM    1  C1  UNK     1      16.715   9.576  34.000  1.00  0.00     0.081 A 
HETATM    2  C2  UNK     1      16.960  10.944  34.115  1.00  0.00     0.087 A 
HETATM    3  C3  UNK     1      15.469   9.059  34.358  1.00  0.00     0.087 A 
HETATM    4  C4  UNK     1      14.716  11.278  34.944  1.00  0.00     0.073 A 
HETATM    5  C5  UNK     1      15.962  11.795  34.586  1.00  0.00     0.074 A 
HETATM    6  C6  UNK     1      14.470   9.910  34.831  1.00  0.00     0.074 A 
ENDROOT
BRANCH   1   7
HETATM    7  C7  UNK     1      17.776   8.669  33.499  1.00  0.00     0.187 C 
HETATM    8  O4  UNK     1      17.789   8.343  32.318  1.00  0.00    -0.287 OA
BRANCH   7   9
HETATM    9  C8  UNK     1      18.775   8.166  34.483  1.00  0.00     0.056 C 
HETATM   10  C10 UNK     1      19.428   7.003  34.258  1.00  0.00     0.015 C 
BRANCH  10  11
HETATM   11  C9  UNK     1      19.247   6.152  33.094  1.00  0.00    -0.036 A 
HETATM   12  C11 UNK     1      20.081   6.298  31.985  1.00  0.00     0.014 A 
HETATM   13  C13 UNK     1      19.909   5.479  30.870  1.00  0.00     0.037 A 
HETATM   14  C15 UNK     1      18.901   4.516  30.860  1.00  0.00     0.065 A 
HETATM   15  C14 UNK     1      18.066   4.370  31.968  1.00  0.00     0.037 A 
HETATM   16  C12 UNK     1      18.238   5.187  33.084  1.00  0.00     0.014 A 
BRANCH  14  17
HETATM   17  O5  UNK     1      18.733   3.716  29.772  1.00  0.00    -0.361 OA
HETATM   18  H18 UNK     1      18.552   4.274  28.996  1.00  0.00     0.217 HD
ENDBRANCH  14  17
ENDBRANCH  10  11
ENDBRANCH   7   9
ENDBRANCH   1   7
BRANCH   2  19
HETATM   19  O1  UNK     1      18.171  11.468  33.771  1.00  0.00    -0.355 OA
HETATM   20  C16 UNK     1      18.263  12.890  33.704  1.00  0.00     0.210 C 
ENDBRANCH   2  19
BRANCH   3  21
HETATM   21  O2  UNK     1      15.206   7.725  34.254  1.00  0.00    -0.355 OA
HETATM   22  C17 UNK     1      14.264   7.327  33.261  1.00  0.00     0.210 C 
ENDBRANCH   3  21
BRANCH   4  23
HETATM   23  O3  UNK     1      13.742  12.109  35.406  1.00  0.00    -0.356 OA
HETATM   24  C18 UNK     1      12.573  12.249  34.599  1.00  0.00     0.210 C 
ENDBRANCH   4  23
TORSDOF 7
ENDMDL
