MODEL 1
REMARK VINA RESULT:      -8.5      0.000      0.000
REMARK  4 active torsions:
REMARK  status: ('A' for Active; 'I' for Inactive)
REMARK    1  A    between atoms: C15_22  and  O4_4 
REMARK    2  A    between atoms: C16_23  and  O5_5 
REMARK    3  A    between atoms: C17_24  and  O6_6 
REMARK    4  A    between atoms: C1_8  and  C4_11 
ROOT
HETATM    1  O1  UNK     1      17.891   1.755  32.414  1.00  0.00    -0.303 OA
HETATM    2  O2  UNK     1      19.261   4.679  34.958  1.00  0.00    -0.287 OA
HETATM    3  O3  UNK     1      18.112   2.722  29.634  1.00  0.00    -0.265 OA
HETATM    4  N1  UNK     1      18.946   4.691  30.618  1.00  0.00    -0.342 N 
HETATM    5  C1  UNK     1      19.213   5.174  31.959  1.00  0.00     0.158 A 
HETATM    6  C2  UNK     1      18.791   3.985  32.751  1.00  0.00     0.059 A 
HETATM    7  C3  UNK     1      18.343   2.974  32.002  1.00  0.00     0.156 A 
HETATM    8  C5  UNK     1      18.839   3.811  34.207  1.00  0.00     0.196 A 
HETATM    9  C6  UNK     1      18.431   3.398  30.596  1.00  0.00     0.277 A 
HETATM   10  C7  UNK     1      18.341   2.504  34.697  1.00  0.00     0.049 A 
HETATM   11  C8  UNK     1      17.892   1.544  33.777  1.00  0.00     0.091 A 
HETATM   12  C11 UNK     1      18.319   2.227  36.066  1.00  0.00     0.025 A 
HETATM   13  C12 UNK     1      17.423   0.310  34.226  1.00  0.00     0.045 A 
HETATM   14  C13 UNK     1      17.847   0.991  36.511  1.00  0.00    -0.055 A 
HETATM   15  C14 UNK     1      17.401   0.036  35.594  1.00  0.00    -0.053 A 
HETATM   16  C18 UNK     1      17.829   0.710  37.978  1.00  0.00     0.049 C 
HETATM   17  C19 UNK     1      16.894  -1.291  36.057  1.00  0.00     0.049 C 
HETATM   18  H2  UNK     1      19.129   5.232  29.777  1.00  0.00     0.163 HD
ENDROOT
BRANCH   5  19
HETATM   19  C4  UNK     1      18.421   6.399  32.253  1.00  0.00    -0.025 A 
HETATM   20  C10 UNK     1      18.960   7.404  33.060  1.00  0.00     0.049 A 
HETATM   21  C15 UNK     1      18.218   8.554  33.334  1.00  0.00     0.104 A 
HETATM   22  C17 UNK     1      16.937   8.700  32.802  1.00  0.00     0.135 A 
HETATM   23  C16 UNK     1      16.398   7.698  31.996  1.00  0.00     0.104 A 
HETATM   24  C9  UNK     1      17.139   6.549  31.722  1.00  0.00     0.049 A 
BRANCH  21  25
HETATM   25  O4  UNK     1      18.756   9.523  34.124  1.00  0.00    -0.353 OA
HETATM   26  C20 UNK     1      20.136   9.394  34.462  1.00  0.00     0.210 C 
ENDBRANCH  21  25
BRANCH  22  27
HETATM   27  O6  UNK     1      16.210   9.822  33.073  1.00  0.00    -0.351 OA
HETATM   28  C22 UNK     1      15.442   9.821  34.274  1.00  0.00     0.210 C 
ENDBRANCH  22  27
BRANCH  23  29
HETATM   29  O5  UNK     1      15.147   7.829  31.472  1.00  0.00    -0.353 OA
HETATM   30  C21 UNK     1      14.097   7.108  32.115  1.00  0.00     0.210 C 
ENDBRANCH  23  29
ENDBRANCH   5  19
TORSDOF 4
ENDMDL
MODEL 2
REMARK VINA RESULT:      -8.5      0.011      2.375
REMARK  4 active torsions:
REMARK  status: ('A' for Active; 'I' for Inactive)
REMARK    1  A    between atoms: C15_22  and  O4_4 
REMARK    2  A    between atoms: C16_23  and  O5_5 
REMARK    3  A    between atoms: C17_24  and  O6_6 
REMARK    4  A    between atoms: C1_8  and  C4_11 
ROOT
HETATM    1  O1  UNK     1      17.886   1.757  32.425  1.00  0.00    -0.303 OA
HETATM    2  O2  UNK     1      19.263   4.686  34.959  1.00  0.00    -0.287 OA
HETATM    3  O3  UNK     1      18.103   2.718  29.642  1.00  0.00    -0.265 OA
HETATM    4  N1  UNK     1      18.941   4.689  30.620  1.00  0.00    -0.342 N 
HETATM    5  C1  UNK     1      19.211   5.174  31.960  1.00  0.00     0.158 A 
HETATM    6  C2  UNK     1      18.789   3.987  32.755  1.00  0.00     0.059 A 
HETATM    7  C3  UNK     1      18.338   2.975  32.009  1.00  0.00     0.156 A 
HETATM    8  C5  UNK     1      18.840   3.817  34.211  1.00  0.00     0.196 A 
HETATM    9  C6  UNK     1      18.424   3.396  30.602  1.00  0.00     0.277 A 
HETATM   10  C7  UNK     1      18.340   2.511  34.705  1.00  0.00     0.049 A 
HETATM   11  C8  UNK     1      17.889   1.549  33.788  1.00  0.00     0.091 A 
HETATM   12  C11 UNK     1      18.320   2.238  36.074  1.00  0.00     0.025 A 
HETATM   13  C12 UNK     1      17.419   0.317  34.241  1.00  0.00     0.045 A 
HETATM   14  C13 UNK     1      17.848   1.003  36.523  1.00  0.00    -0.055 A 
HETATM   15  C14 UNK     1      17.399   0.046  35.609  1.00  0.00    -0.053 A 
HETATM   16  C18 UNK     1      17.832   0.725  37.990  1.00  0.00     0.049 C 
HETATM   17  C19 UNK     1      16.891  -1.279  36.076  1.00  0.00     0.049 C 
HETATM   18  H2  UNK     1      19.124   5.227  29.777  1.00  0.00     0.163 HD
ENDROOT
BRANCH   5  19
HETATM   19  C4  UNK     1      18.421   6.401  32.252  1.00  0.00    -0.025 A 
HETATM   20  C10 UNK     1      17.136   6.547  31.724  1.00  0.00     0.049 A 
HETATM   21  C15 UNK     1      16.394   7.697  31.999  1.00  0.00     0.104 A 
HETATM   22  C17 UNK     1      16.935   8.701  32.802  1.00  0.00     0.135 A 
HETATM   23  C16 UNK     1      18.218   8.556  33.330  1.00  0.00     0.104 A 
HETATM   24  C9  UNK     1      18.960   7.407  33.055  1.00  0.00     0.049 A 
BRANCH  21  25
HETATM   25  O4  UNK     1      15.144   7.826  31.476  1.00  0.00    -0.353 OA
HETATM   26  C20 UNK     1      14.091   7.119  32.130  1.00  0.00     0.210 C 
ENDBRANCH  21  25
BRANCH  22  27
HETATM   27  O6  UNK     1      16.212   9.826  33.068  1.00  0.00    -0.351 OA
HETATM   28  C22 UNK     1      15.450   9.834  34.274  1.00  0.00     0.210 C 
ENDBRANCH  22  27
BRANCH  23  29
HETATM   29  O5  UNK     1      18.759   9.530  34.114  1.00  0.00    -0.353 OA
HETATM   30  C21 UNK     1      20.136   9.393  34.461  1.00  0.00     0.210 C 
ENDBRANCH  23  29
ENDBRANCH   5  19
TORSDOF 4
ENDMDL
MODEL 3
REMARK VINA RESULT:      -8.3      6.365     11.517
REMARK  4 active torsions:
REMARK  status: ('A' for Active; 'I' for Inactive)
REMARK    1  A    between atoms: C15_22  and  O4_4 
REMARK    2  A    between atoms: C16_23  and  O5_5 
REMARK    3  A    between atoms: C17_24  and  O6_6 
REMARK    4  A    between atoms: C1_8  and  C4_11 
ROOT
HETATM    1  O1  UNK     1      18.456  -0.533  34.467  1.00  0.00    -0.303 OA
HETATM    2  O2  UNK     1      21.294  -3.443  33.860  1.00  0.00    -0.287 OA
HETATM    3  O3  UNK     1      17.554  -0.644  37.275  1.00  0.00    -0.265 OA
HETATM    4  N1  UNK     1      19.059  -2.445  37.457  1.00  0.00    -0.342 N 
HETATM    5  C1  UNK     1      19.980  -3.148  36.585  1.00  0.00     0.158 A 
HETATM    6  C2  UNK     1      19.769  -2.388  35.320  1.00  0.00     0.059 A 
HETATM    7  C3  UNK     1      18.869  -1.408  35.428  1.00  0.00     0.156 A 
HETATM    8  C5  UNK     1      20.441  -2.585  34.031  1.00  0.00     0.196 A 
HETATM    9  C6  UNK     1      18.382  -1.412  36.817  1.00  0.00     0.277 A 
HETATM   10  C7  UNK     1      20.007  -1.663  32.953  1.00  0.00     0.049 A 
HETATM   11  C8  UNK     1      19.038  -0.686  33.226  1.00  0.00     0.091 A 
HETATM   12  C11 UNK     1      20.560  -1.765  31.675  1.00  0.00     0.025 A 
HETATM   13  C12 UNK     1      18.624   0.188  32.221  1.00  0.00     0.045 A 
HETATM   14  C13 UNK     1      20.142  -0.888  30.673  1.00  0.00    -0.055 A 
HETATM   15  C14 UNK     1      19.177   0.084  30.944  1.00  0.00    -0.053 A 
HETATM   16  C18 UNK     1      20.742  -1.010  29.310  1.00  0.00     0.049 C 
HETATM   17  C19 UNK     1      18.720   1.028  29.880  1.00  0.00     0.049 C 
HETATM   18  H2  UNK     1      18.930  -2.671  38.440  1.00  0.00     0.163 HD
ENDROOT
BRANCH   5  19
HETATM   19  C4  UNK     1      19.624  -4.589  36.482  1.00  0.00    -0.025 A 
HETATM   20  C10 UNK     1      20.626  -5.548  36.325  1.00  0.00     0.049 A 
HETATM   21  C15 UNK     1      20.293  -6.900  36.230  1.00  0.00     0.104 A 
HETATM   22  C17 UNK     1      18.956  -7.294  36.292  1.00  0.00     0.135 A 
HETATM   23  C16 UNK     1      17.953  -6.338  36.449  1.00  0.00     0.104 A 
HETATM   24  C9  UNK     1      18.287  -4.987  36.544  1.00  0.00     0.049 A 
BRANCH  21  25
HETATM   25  O4  UNK     1      21.281  -7.824  36.074  1.00  0.00    -0.353 OA
HETATM   26  C20 UNK     1      22.097  -8.098  37.213  1.00  0.00     0.210 C 
ENDBRANCH  21  25
BRANCH  22  27
HETATM   27  O6  UNK     1      18.629  -8.615  36.196  1.00  0.00    -0.351 OA
HETATM   28  C22 UNK     1      18.736  -9.396  37.384  1.00  0.00     0.210 C 
ENDBRANCH  22  27
BRANCH  23  29
HETATM   29  O5  UNK     1      16.644  -6.710  36.509  1.00  0.00    -0.353 OA
HETATM   30  C21 UNK     1      15.981  -6.947  35.269  1.00  0.00     0.210 C 
ENDBRANCH  23  29
ENDBRANCH   5  19
TORSDOF 4
ENDMDL
MODEL 4
REMARK VINA RESULT:      -8.3      6.360     11.691
REMARK  4 active torsions:
REMARK  status: ('A' for Active; 'I' for Inactive)
REMARK    1  A    between atoms: C15_22  and  O4_4 
REMARK    2  A    between atoms: C16_23  and  O5_5 
REMARK    3  A    between atoms: C17_24  and  O6_6 
REMARK    4  A    between atoms: C1_8  and  C4_11 
ROOT
HETATM    1  O1  UNK     1      18.457  -0.530  34.462  1.00  0.00    -0.303 OA
HETATM    2  O2  UNK     1      21.297  -3.437  33.849  1.00  0.00    -0.287 OA
HETATM    3  O3  UNK     1      17.557  -0.646  37.271  1.00  0.00    -0.265 OA
HETATM    4  N1  UNK     1      19.063  -2.446  37.449  1.00  0.00    -0.342 N 
HETATM    5  C1  UNK     1      19.984  -3.147  36.575  1.00  0.00     0.158 A 
HETATM    6  C2  UNK     1      19.772  -2.386  35.312  1.00  0.00     0.059 A 
HETATM    7  C3  UNK     1      18.871  -1.406  35.422  1.00  0.00     0.156 A 
HETATM    8  C5  UNK     1      20.443  -2.580  34.022  1.00  0.00     0.196 A 
HETATM    9  C6  UNK     1      18.385  -1.412  36.811  1.00  0.00     0.277 A 
HETATM   10  C7  UNK     1      20.008  -1.657  32.946  1.00  0.00     0.049 A 
HETATM   11  C8  UNK     1      19.038  -0.681  33.221  1.00  0.00     0.091 A 
HETATM   12  C11 UNK     1      20.560  -1.757  31.667  1.00  0.00     0.025 A 
HETATM   13  C12 UNK     1      18.623   0.194  32.218  1.00  0.00     0.045 A 
HETATM   14  C13 UNK     1      20.140  -0.879  30.666  1.00  0.00    -0.055 A 
HETATM   15  C14 UNK     1      19.175   0.092  30.940  1.00  0.00    -0.053 A 
HETATM   16  C18 UNK     1      20.739  -0.999  29.303  1.00  0.00     0.049 C 
HETATM   17  C19 UNK     1      18.717   1.038  29.878  1.00  0.00     0.049 C 
HETATM   18  H2  UNK     1      18.935  -2.673  38.432  1.00  0.00     0.163 HD
ENDROOT
BRANCH   5  19
HETATM   19  C4  UNK     1      19.628  -4.588  36.471  1.00  0.00    -0.025 A 
HETATM   20  C10 UNK     1      18.291  -4.985  36.537  1.00  0.00     0.049 A 
HETATM   21  C15 UNK     1      17.956  -6.336  36.438  1.00  0.00     0.104 A 
HETATM   22  C17 UNK     1      18.958  -7.292  36.271  1.00  0.00     0.135 A 
HETATM   23  C16 UNK     1      20.294  -6.898  36.204  1.00  0.00     0.104 A 
HETATM   24  C9  UNK     1      20.629  -5.548  36.303  1.00  0.00     0.049 A 
BRANCH  21  25
HETATM   25  O4  UNK     1      16.648  -6.708  36.507  1.00  0.00    -0.353 OA
HETATM   26  C20 UNK     1      15.978  -6.954  35.271  1.00  0.00     0.210 C 
ENDBRANCH  21  25
BRANCH  22  27
HETATM   27  O6  UNK     1      18.632  -8.613  36.177  1.00  0.00    -0.351 OA
HETATM   28  C22 UNK     1      18.731  -9.390  37.369  1.00  0.00     0.210 C 
ENDBRANCH  22  27
BRANCH  23  29
HETATM   29  O5  UNK     1      21.282  -7.822  36.044  1.00  0.00    -0.353 OA
HETATM   30  C21 UNK     1      22.099  -8.101  37.179  1.00  0.00     0.210 C 
ENDBRANCH  23  29
ENDBRANCH   5  19
TORSDOF 4
ENDMDL
MODEL 5
REMARK VINA RESULT:      -7.7     13.169     16.819
REMARK  4 active torsions:
REMARK  status: ('A' for Active; 'I' for Inactive)
REMARK    1  A    between atoms: C15_22  and  O4_4 
REMARK    2  A    between atoms: C16_23  and  O5_5 
REMARK    3  A    between atoms: C17_24  and  O6_6 
REMARK    4  A    between atoms: C1_8  and  C4_11 
ROOT
HETATM    1  O1  UNK     1      22.455 -10.319  35.591  1.00  0.00    -0.303 OA
HETATM    2  O2  UNK     1      24.428  -8.000  38.351  1.00  0.00    -0.287 OA
HETATM    3  O3  UNK     1      24.095 -12.699  34.989  1.00  0.00    -0.265 OA
HETATM    4  N1  UNK     1      25.628 -11.754  36.505  1.00  0.00    -0.342 N 
HETATM    5  C1  UNK     1      25.704 -10.564  37.331  1.00  0.00     0.158 A 
HETATM    6  C2  UNK     1      24.401  -9.926  36.987  1.00  0.00     0.059 A 
HETATM    7  C3  UNK     1      23.682 -10.622  36.103  1.00  0.00     0.156 A 
HETATM    8  C5  UNK     1      23.843  -8.679  37.520  1.00  0.00     0.196 A 
HETATM    9  C6  UNK     1      24.452 -11.829  35.764  1.00  0.00     0.277 A 
HETATM   10  C7  UNK     1      22.516  -8.306  36.975  1.00  0.00     0.049 A 
HETATM   11  C8  UNK     1      21.891  -9.144  36.038  1.00  0.00     0.091 A 
HETATM   12  C11 UNK     1      21.890  -7.128  37.390  1.00  0.00     0.025 A 
HETATM   13  C12 UNK     1      20.641  -8.804  35.521  1.00  0.00     0.045 A 
HETATM   14  C13 UNK     1      20.640  -6.792  36.868  1.00  0.00    -0.055 A 
HETATM   15  C14 UNK     1      20.018  -7.627  35.936  1.00  0.00    -0.053 A 
HETATM   16  C18 UNK     1      19.984  -5.530  37.322  1.00  0.00     0.049 C 
HETATM   17  C19 UNK     1      18.680  -7.279  35.370  1.00  0.00     0.049 C 
HETATM   18  H2  UNK     1      26.348 -12.470  36.481  1.00  0.00     0.163 HD
ENDROOT
BRANCH   5  19
HETATM   19  C4  UNK     1      26.887  -9.737  36.966  1.00  0.00    -0.025 A 
HETATM   20  C10 UNK     1      27.334  -9.701  35.643  1.00  0.00     0.049 A 
HETATM   21  C15 UNK     1      28.442  -8.925  35.300  1.00  0.00     0.104 A 
HETATM   22  C17 UNK     1      29.105  -8.185  36.279  1.00  0.00     0.135 A 
HETATM   23  C16 UNK     1      28.660  -8.220  37.601  1.00  0.00     0.104 A 
HETATM   24  C9  UNK     1      27.552  -8.995  37.943  1.00  0.00     0.049 A 
BRANCH  21  25
HETATM   25  O4  UNK     1      28.867  -8.901  34.007  1.00  0.00    -0.353 OA
HETATM   26  C20 UNK     1      29.125 -10.159  33.386  1.00  0.00     0.210 C 
ENDBRANCH  21  25
BRANCH  22  27
HETATM   27  O6  UNK     1      30.190  -7.429  35.946  1.00  0.00    -0.351 OA
HETATM   28  C22 UNK     1      29.940  -6.090  35.525  1.00  0.00     0.210 C 
ENDBRANCH  22  27
BRANCH  23  29
HETATM   29  O5  UNK     1      29.300  -7.503  38.566  1.00  0.00    -0.353 OA
HETATM   30  C21 UNK     1      28.559  -6.460  39.197  1.00  0.00     0.210 C 
ENDBRANCH  23  29
ENDBRANCH   5  19
TORSDOF 4
ENDMDL
MODEL 6
REMARK VINA RESULT:      -7.7     13.164     16.721
REMARK  4 active torsions:
REMARK  status: ('A' for Active; 'I' for Inactive)
REMARK    1  A    between atoms: C15_22  and  O4_4 
REMARK    2  A    between atoms: C16_23  and  O5_5 
REMARK    3  A    between atoms: C17_24  and  O6_6 
REMARK    4  A    between atoms: C1_8  and  C4_11 
ROOT
HETATM    1  O1  UNK     1      22.462 -10.312  35.610  1.00  0.00    -0.303 OA
HETATM    2  O2  UNK     1      24.423  -7.982  38.369  1.00  0.00    -0.287 OA
HETATM    3  O3  UNK     1      24.110 -12.687  35.016  1.00  0.00    -0.265 OA
HETATM    4  N1  UNK     1      25.637 -11.735  36.533  1.00  0.00    -0.342 N 
HETATM    5  C1  UNK     1      25.709 -10.543  37.356  1.00  0.00     0.158 A 
HETATM    6  C2  UNK     1      24.405  -9.910  37.009  1.00  0.00     0.059 A 
HETATM    7  C3  UNK     1      23.689 -10.610  36.125  1.00  0.00     0.156 A 
HETATM    8  C5  UNK     1      23.842  -8.664  37.538  1.00  0.00     0.196 A 
HETATM    9  C6  UNK     1      24.463 -11.816  35.790  1.00  0.00     0.277 A 
HETATM   10  C7  UNK     1      22.514  -8.295  36.990  1.00  0.00     0.049 A 
HETATM   11  C8  UNK     1      21.893  -9.137  36.055  1.00  0.00     0.091 A 
HETATM   12  C11 UNK     1      21.884  -7.119  37.402  1.00  0.00     0.025 A 
HETATM   13  C12 UNK     1      20.644  -8.802  35.534  1.00  0.00     0.045 A 
HETATM   14  C13 UNK     1      20.634  -6.788  36.878  1.00  0.00    -0.055 A 
HETATM   15  C14 UNK     1      20.016  -7.626  35.946  1.00  0.00    -0.053 A 
HETATM   16  C18 UNK     1      19.973  -5.527  37.327  1.00  0.00     0.049 C 
HETATM   17  C19 UNK     1      18.678  -7.283  35.377  1.00  0.00     0.049 C 
HETATM   18  H2  UNK     1      26.360 -12.449  36.511  1.00  0.00     0.163 HD
ENDROOT
BRANCH   5  19
HETATM   19  C4  UNK     1      26.890  -9.714  36.992  1.00  0.00    -0.025 A 
HETATM   20  C10 UNK     1      27.546  -8.963  37.970  1.00  0.00     0.049 A 
HETATM   21  C15 UNK     1      28.655  -8.186  37.629  1.00  0.00     0.104 A 
HETATM   22  C17 UNK     1      29.108  -8.159  36.311  1.00  0.00     0.135 A 
HETATM   23  C16 UNK     1      28.454  -8.908  35.332  1.00  0.00     0.104 A 
HETATM   24  C9  UNK     1      27.347  -9.684  35.673  1.00  0.00     0.049 A 
BRANCH  21  25
HETATM   25  O4  UNK     1      29.283  -7.459  38.593  1.00  0.00    -0.353 OA
HETATM   26  C20 UNK     1      28.563  -6.359  39.148  1.00  0.00     0.210 C 
ENDBRANCH  21  25
BRANCH  22  27
HETATM   27  O6  UNK     1      30.189  -7.398  35.976  1.00  0.00    -0.351 OA
HETATM   28  C22 UNK     1      29.935  -6.051  35.582  1.00  0.00     0.210 C 
ENDBRANCH  22  27
BRANCH  23  29
HETATM   29  O5  UNK     1      28.886  -8.888  34.041  1.00  0.00    -0.353 OA
HETATM   30  C21 UNK     1      29.190 -10.146  33.440  1.00  0.00     0.210 C 
ENDBRANCH  23  29
ENDBRANCH   5  19
TORSDOF 4
ENDMDL
MODEL 7
REMARK VINA RESULT:      -7.7     15.896     18.836
REMARK  4 active torsions:
REMARK  status: ('A' for Active; 'I' for Inactive)
REMARK    1  A    between atoms: C15_22  and  O4_4 
REMARK    2  A    between atoms: C16_23  and  O5_5 
REMARK    3  A    between atoms: C17_24  and  O6_6 
REMARK    4  A    between atoms: C1_8  and  C4_11 
ROOT
HETATM    1  O1  UNK     1      33.155  -4.452  35.367  1.00  0.00    -0.303 OA
HETATM    2  O2  UNK     1      32.385  -8.078  37.143  1.00  0.00    -0.287 OA
HETATM    3  O3  UNK     1      31.534  -2.372  36.693  1.00  0.00    -0.265 OA
HETATM    4  N1  UNK     1      30.720  -4.151  38.002  1.00  0.00    -0.342 N 
HETATM    5  C1  UNK     1      30.932  -5.583  38.092  1.00  0.00     0.158 A 
HETATM    6  C2  UNK     1      31.943  -5.763  37.012  1.00  0.00     0.059 A 
HETATM    7  C3  UNK     1      32.266  -4.629  36.386  1.00  0.00     0.156 A 
HETATM    8  C5  UNK     1      32.608  -7.005  36.602  1.00  0.00     0.196 A 
HETATM    9  C6  UNK     1      31.486  -3.547  37.009  1.00  0.00     0.277 A 
HETATM   10  C7  UNK     1      33.571  -6.858  35.484  1.00  0.00     0.049 A 
HETATM   11  C8  UNK     1      33.794  -5.591  34.924  1.00  0.00     0.091 A 
HETATM   12  C11 UNK     1      34.252  -7.973  34.991  1.00  0.00     0.025 A 
HETATM   13  C12 UNK     1      34.699  -5.440  33.874  1.00  0.00     0.045 A 
HETATM   14  C13 UNK     1      35.157  -7.817  33.939  1.00  0.00    -0.055 A 
HETATM   15  C14 UNK     1      35.379  -6.555  33.382  1.00  0.00    -0.053 A 
HETATM   16  C18 UNK     1      35.877  -9.019  33.423  1.00  0.00     0.049 C 
HETATM   17  C19 UNK     1      36.343  -6.375  32.256  1.00  0.00     0.049 C 
HETATM   18  H2  UNK     1      30.091  -3.635  38.610  1.00  0.00     0.163 HD
ENDROOT
BRANCH   5  19
HETATM   19  C4  UNK     1      29.665  -6.325  37.853  1.00  0.00    -0.025 A 
HETATM   20  C10 UNK     1      29.087  -6.333  36.582  1.00  0.00     0.049 A 
HETATM   21  C15 UNK     1      27.899  -7.030  36.357  1.00  0.00     0.104 A 
HETATM   22  C17 UNK     1      27.287  -7.720  37.403  1.00  0.00     0.135 A 
HETATM   23  C16 UNK     1      27.863  -7.715  38.674  1.00  0.00     0.104 A 
HETATM   24  C9  UNK     1      29.050  -7.018  38.898  1.00  0.00     0.049 A 
BRANCH  21  25
HETATM   25  O4  UNK     1      27.346  -7.026  35.113  1.00  0.00    -0.353 OA
HETATM   26  C20 UNK     1      28.188  -6.630  34.031  1.00  0.00     0.210 C 
ENDBRANCH  21  25
BRANCH  22  27
HETATM   27  O6  UNK     1      26.125  -8.399  37.185  1.00  0.00    -0.351 OA
HETATM   28  C22 UNK     1      26.238  -9.752  36.747  1.00  0.00     0.210 C 
ENDBRANCH  22  27
BRANCH  23  29
HETATM   29  O5  UNK     1      27.274  -8.384  39.704  1.00  0.00    -0.353 OA
HETATM   30  C21 UNK     1      27.810  -9.664  40.035  1.00  0.00     0.210 C 
ENDBRANCH  23  29
ENDBRANCH   5  19
TORSDOF 4
ENDMDL
MODEL 8
REMARK VINA RESULT:      -7.7     15.598     18.711
REMARK  4 active torsions:
REMARK  status: ('A' for Active; 'I' for Inactive)
REMARK    1  A    between atoms: C15_22  and  O4_4 
REMARK    2  A    between atoms: C16_23  and  O5_5 
REMARK    3  A    between atoms: C17_24  and  O6_6 
REMARK    4  A    between atoms: C1_8  and  C4_11 
ROOT
HETATM    1  O1  UNK     1      32.290  -8.298  33.007  1.00  0.00    -0.303 OA
HETATM    2  O2  UNK     1      28.757  -9.644  34.620  1.00  0.00    -0.287 OA
HETATM    3  O3  UNK     1      34.278  -7.998  35.167  1.00  0.00    -0.265 OA
HETATM    4  N1  UNK     1      32.532  -8.715  36.574  1.00  0.00    -0.342 N 
HETATM    5  C1  UNK     1      31.144  -9.109  36.424  1.00  0.00     0.158 A 
HETATM    6  C2  UNK     1      30.990  -8.954  34.949  1.00  0.00     0.059 A 
HETATM    7  C3  UNK     1      32.099  -8.532  34.336  1.00  0.00     0.156 A 
HETATM    8  C5  UNK     1      29.801  -9.230  34.137  1.00  0.00     0.196 A 
HETATM    9  C6  UNK     1      33.134  -8.366  35.369  1.00  0.00     0.277 A 
HETATM   10  C7  UNK     1      29.962  -8.972  32.685  1.00  0.00     0.049 A 
HETATM   11  C8  UNK     1      31.197  -8.519  32.196  1.00  0.00     0.091 A 
HETATM   12  C11 UNK     1      28.894  -9.179  31.811  1.00  0.00     0.025 A 
HETATM   13  C12 UNK     1      31.361  -8.274  30.832  1.00  0.00     0.045 A 
HETATM   14  C13 UNK     1      29.063  -8.933  30.447  1.00  0.00    -0.055 A 
HETATM   15  C14 UNK     1      30.292  -8.481  29.960  1.00  0.00    -0.053 A 
HETATM   16  C18 UNK     1      27.911  -9.158  29.524  1.00  0.00     0.049 C 
HETATM   17  C19 UNK     1      30.486  -8.213  28.503  1.00  0.00     0.049 C 
HETATM   18  H2  UNK     1      33.023  -8.709  37.464  1.00  0.00     0.163 HD
ENDROOT
BRANCH   5  19
HETATM   19  C4  UNK     1      30.249  -8.222  37.214  1.00  0.00    -0.025 A 
HETATM   20  C10 UNK     1      29.317  -8.775  38.096  1.00  0.00     0.049 A 
HETATM   21  C15 UNK     1      28.478  -7.943  38.839  1.00  0.00     0.104 A 
HETATM   22  C17 UNK     1      28.569  -6.559  38.701  1.00  0.00     0.135 A 
HETATM   23  C16 UNK     1      29.499  -6.005  37.822  1.00  0.00     0.104 A 
HETATM   24  C9  UNK     1      30.338  -6.835  37.079  1.00  0.00     0.049 A 
BRANCH  21  25
HETATM   25  O4  UNK     1      27.574  -8.497  39.693  1.00  0.00    -0.353 OA
HETATM   26  C20 UNK     1      27.607  -9.916  39.842  1.00  0.00     0.210 C 
ENDBRANCH  21  25
BRANCH  22  27
HETATM   27  O6  UNK     1      27.747  -5.745  39.425  1.00  0.00    -0.351 OA
HETATM   28  C22 UNK     1      26.528  -5.342  38.805  1.00  0.00     0.210 C 
ENDBRANCH  22  27
BRANCH  23  29
HETATM   29  O5  UNK     1      29.597  -4.654  37.677  1.00  0.00    -0.353 OA
HETATM   30  C21 UNK     1      30.884  -4.127  37.360  1.00  0.00     0.210 C 
ENDBRANCH  23  29
ENDBRANCH   5  19
TORSDOF 4
ENDMDL
MODEL 9
REMARK VINA RESULT:      -7.6     15.590     18.634
REMARK  4 active torsions:
REMARK  status: ('A' for Active; 'I' for Inactive)
REMARK    1  A    between atoms: C15_22  and  O4_4 
REMARK    2  A    between atoms: C16_23  and  O5_5 
REMARK    3  A    between atoms: C17_24  and  O6_6 
REMARK    4  A    between atoms: C1_8  and  C4_11 
ROOT
HETATM    1  O1  UNK     1      32.289  -8.278  33.045  1.00  0.00    -0.303 OA
HETATM    2  O2  UNK     1      28.756  -9.655  34.632  1.00  0.00    -0.287 OA
HETATM    3  O3  UNK     1      34.262  -7.971  35.219  1.00  0.00    -0.265 OA
HETATM    4  N1  UNK     1      32.512  -8.705  36.613  1.00  0.00    -0.342 N 
HETATM    5  C1  UNK     1      31.128  -9.108  36.452  1.00  0.00     0.158 A 
HETATM    6  C2  UNK     1      30.982  -8.950  34.978  1.00  0.00     0.059 A 
HETATM    7  C3  UNK     1      32.092  -8.518  34.373  1.00  0.00     0.156 A 
HETATM    8  C5  UNK     1      29.800  -9.232  34.156  1.00  0.00     0.196 A 
HETATM    9  C6  UNK     1      33.119  -8.347  35.413  1.00  0.00     0.277 A 
HETATM   10  C7  UNK     1      29.969  -8.968  32.707  1.00  0.00     0.049 A 
HETATM   11  C8  UNK     1      31.203  -8.505  32.226  1.00  0.00     0.091 A 
HETATM   12  C11 UNK     1      28.907  -9.180  31.825  1.00  0.00     0.025 A 
HETATM   13  C12 UNK     1      31.374  -8.255  30.865  1.00  0.00     0.045 A 
HETATM   14  C13 UNK     1      29.084  -8.928  30.463  1.00  0.00    -0.055 A 
HETATM   15  C14 UNK     1      30.312  -8.467  29.985  1.00  0.00    -0.053 A 
HETATM   16  C18 UNK     1      27.939  -9.159  29.532  1.00  0.00     0.049 C 
HETATM   17  C19 UNK     1      30.514  -8.193  28.530  1.00  0.00     0.049 C 
HETATM   18  H2  UNK     1      32.997  -8.698  37.506  1.00  0.00     0.163 HD
ENDROOT
BRANCH   5  19
HETATM   19  C4  UNK     1      30.221  -8.230  37.240  1.00  0.00    -0.025 A 
HETATM   20  C10 UNK     1      30.333  -6.841  37.142  1.00  0.00     0.049 A 
HETATM   21  C15 UNK     1      29.482  -6.017  37.879  1.00  0.00     0.104 A 
HETATM   22  C17 UNK     1      28.518  -6.580  38.715  1.00  0.00     0.135 A 
HETATM   23  C16 UNK     1      28.405  -7.966  38.814  1.00  0.00     0.104 A 
HETATM   24  C9  UNK     1      29.255  -8.790  38.078  1.00  0.00     0.049 A 
BRANCH  21  25
HETATM   25  O4  UNK     1      29.605  -4.665  37.775  1.00  0.00    -0.353 OA
HETATM   26  C20 UNK     1      30.869  -4.160  37.347  1.00  0.00     0.210 C 
ENDBRANCH  21  25
BRANCH  22  27
HETATM   27  O6  UNK     1      27.688  -5.775  39.439  1.00  0.00    -0.351 OA
HETATM   28  C22 UNK     1      26.497  -5.329  38.795  1.00  0.00     0.210 C 
ENDBRANCH  22  27
BRANCH  23  29
HETATM   29  O5  UNK     1      27.469  -8.528  39.629  1.00  0.00    -0.353 OA
HETATM   30  C21 UNK     1      27.654  -9.899  39.980  1.00  0.00     0.210 C 
ENDBRANCH  23  29
ENDBRANCH   5  19
TORSDOF 4
ENDMDL
MODEL 10
REMARK VINA RESULT:      -7.6     16.077     18.812
REMARK  4 active torsions:
REMARK  status: ('A' for Active; 'I' for Inactive)
REMARK    1  A    between atoms: C15_22  and  O4_4 
REMARK    2  A    between atoms: C16_23  and  O5_5 
REMARK    3  A    between atoms: C17_24  and  O6_6 
REMARK    4  A    between atoms: C1_8  and  C4_11 
ROOT
HETATM    1  O1  UNK     1      33.153  -4.410  35.378  1.00  0.00    -0.303 OA
HETATM    2  O2  UNK     1      32.407  -8.045  37.144  1.00  0.00    -0.287 OA
HETATM    3  O3  UNK     1      31.512  -2.345  36.704  1.00  0.00    -0.265 OA
HETATM    4  N1  UNK     1      30.708  -4.133  38.007  1.00  0.00    -0.342 N 
HETATM    5  C1  UNK     1      30.931  -5.564  38.095  1.00  0.00     0.158 A 
HETATM    6  C2  UNK     1      31.946  -5.734  37.017  1.00  0.00     0.059 A 
HETATM    7  C3  UNK     1      32.263  -4.596  36.394  1.00  0.00     0.156 A 
HETATM    8  C5  UNK     1      32.622  -6.969  36.606  1.00  0.00     0.196 A 
HETATM    9  C6  UNK     1      31.473  -3.522  37.018  1.00  0.00     0.277 A 
HETATM   10  C7  UNK     1      33.587  -6.813  35.491  1.00  0.00     0.049 A 
HETATM   11  C8  UNK     1      33.802  -5.542  34.935  1.00  0.00     0.091 A 
HETATM   12  C11 UNK     1      34.279  -7.921  34.998  1.00  0.00     0.025 A 
HETATM   13  C12 UNK     1      34.709  -5.382  33.887  1.00  0.00     0.045 A 
HETATM   14  C13 UNK     1      35.185  -7.756  33.949  1.00  0.00    -0.055 A 
HETATM   15  C14 UNK     1      35.399  -6.491  33.395  1.00  0.00    -0.053 A 
HETATM   16  C18 UNK     1      35.917  -8.950  33.432  1.00  0.00     0.049 C 
HETATM   17  C19 UNK     1      36.365  -6.301  32.272  1.00  0.00     0.049 C 
HETATM   18  H2  UNK     1      30.073  -3.624  38.615  1.00  0.00     0.163 HD
ENDROOT
BRANCH   5  19
HETATM   19  C4  UNK     1      29.670  -6.316  37.851  1.00  0.00    -0.025 A 
HETATM   20  C10 UNK     1      29.048  -6.997  38.899  1.00  0.00     0.049 A 
HETATM   21  C15 UNK     1      27.865  -7.701  38.672  1.00  0.00     0.104 A 
HETATM   22  C17 UNK     1      27.302  -7.725  37.396  1.00  0.00     0.135 A 
HETATM   23  C16 UNK     1      27.922  -7.045  36.347  1.00  0.00     0.104 A 
HETATM   24  C9  UNK     1      29.104  -6.341  36.575  1.00  0.00     0.049 A 
BRANCH  21  25
HETATM   25  O4  UNK     1      27.271  -8.363  39.703  1.00  0.00    -0.353 OA
HETATM   26  C20 UNK     1      27.806  -9.640  40.048  1.00  0.00     0.210 C 
ENDBRANCH  21  25
BRANCH  22  27
HETATM   27  O6  UNK     1      26.148  -8.415  37.172  1.00  0.00    -0.351 OA
HETATM   28  C22 UNK     1      26.276  -9.770  36.745  1.00  0.00     0.210 C 
ENDBRANCH  22  27
BRANCH  23  29
HETATM   29  O5  UNK     1      27.383  -7.062  35.097  1.00  0.00    -0.353 OA
HETATM   30  C21 UNK     1      28.294  -7.056  33.998  1.00  0.00     0.210 C 
ENDBRANCH  23  29
ENDBRANCH   5  19
TORSDOF 4
ENDMDL
