MODEL 1
REMARK VINA RESULT:      -9.8      0.000      0.000
REMARK  6 active torsions:
REMARK  status: ('A' for Active; 'I' for Inactive)
REMARK    1  A    between atoms: C5_12  and  N1_5 
REMARK    2  A    between atoms: C6_13  and  N2_6 
REMARK    3  A    between atoms: C5_12  and  C7_14 
REMARK    4  A    between atoms: C6_13  and  C8_15 
REMARK    5  A    between atoms: C14_21  and  C20_27 
REMARK    6  A    between atoms: C16_23  and  C21_28 
ROOT
HETATM    1  N1  UNK     1      19.150  -3.188  36.127  1.00  0.00     0.096 N 
HETATM    2  N2  UNK     1      18.033  -0.616  35.418  1.00  0.00     0.097 N 
HETATM    3  C1  UNK     1      19.816  -2.308  35.159  1.00  0.00     0.303 C 
HETATM    4  C2  UNK     1      18.386  -2.394  37.097  1.00  0.00     0.303 C 
HETATM    5  C3  UNK     1      18.799  -1.409  34.447  1.00  0.00     0.303 C 
HETATM    6  C4  UNK     1      17.368  -1.496  36.387  1.00  0.00     0.303 C 
ENDROOT
BRANCH   1   7
HETATM    7  C5  UNK     1      20.121  -4.043  36.805  1.00  0.00     0.312 C 
BRANCH   7   8
HETATM    8  C7  UNK     1      19.774  -5.486  36.692  1.00  0.00    -0.011 A 
HETATM    9  C10 UNK     1      18.669  -5.885  36.047  1.00  0.00     0.092 A 
HETATM   10  C15 UNK     1      18.284  -7.300  35.910  1.00  0.00     0.288 A 
HETATM   11  O2  UNK     1      19.132  -8.234  36.485  1.00  0.00    -0.275 OA
HETATM   12  O3  UNK     1      17.266  -7.626  35.310  1.00  0.00    -0.260 OA
HETATM   13  C12 UNK     1      20.301  -7.845  37.170  1.00  0.00     0.090 A 
HETATM   14  C9  UNK     1      20.652  -6.500  37.292  1.00  0.00     0.007 A 
HETATM   15  C17 UNK     1      21.078  -8.871  37.709  1.00  0.00     0.039 A 
HETATM   16  C13 UNK     1      21.830  -6.198  37.988  1.00  0.00     0.022 A 
HETATM   17  C14 UNK     1      22.619  -7.215  38.536  1.00  0.00    -0.058 A 
HETATM   18  C19 UNK     1      22.244  -8.550  38.396  1.00  0.00     0.010 A 
BRANCH  17  19
HETATM   19  C20 UNK     1      23.869  -6.868  39.273  1.00  0.00     0.034 C 
HETATM   20  C22 UNK     1      25.046  -7.751  38.865  1.00  0.00     0.010 C 
ENDBRANCH  17  19
ENDBRANCH   7   8
ENDBRANCH   1   7
BRANCH   2  21
HETATM   21  C6  UNK     1      17.060   0.237  34.738  1.00  0.00     0.334 C 
BRANCH  21  22
HETATM   22  C8  UNK     1      17.715   1.528  34.362  1.00  0.00     0.095 A 
HETATM   23  C11 UNK     1      18.530   2.334  35.117  1.00  0.00     0.078 A 
HETATM   24  O1  UNK     1      18.886   3.403  34.351  1.00  0.00    -0.294 OA
HETATM   25  C18 UNK     1      19.059   2.286  36.484  1.00  0.00     0.079 C 
HETATM   26  C16 UNK     1      18.257   3.171  33.167  1.00  0.00     0.182 A 
HETATM   27  N3  UNK     1      17.544   2.068  33.114  1.00  0.00    -0.224 NA
BRANCH  26  28
HETATM   28  C21 UNK     1      18.469   4.169  32.156  1.00  0.00     0.039 A 
HETATM   29  C23 UNK     1      18.791   3.828  30.842  1.00  0.00     0.048 A 
HETATM   30 Cl1  UNK     1      18.958   2.182  30.336  1.00  0.00    -0.083 Cl
HETATM   31  C25 UNK     1      18.989   4.829  29.890  1.00  0.00     0.025 A 
HETATM   32  C27 UNK     1      18.865   6.170  30.253  1.00  0.00     0.002 A 
HETATM   33  C26 UNK     1      18.543   6.511  31.567  1.00  0.00     0.001 A 
HETATM   34  C24 UNK     1      18.345   5.510  32.518  1.00  0.00     0.017 A 
ENDBRANCH  26  28
ENDBRANCH  21  22
ENDBRANCH   2  21
TORSDOF 6
ENDMDL
MODEL 2
REMARK VINA RESULT:      -9.8      4.131     12.176
REMARK  6 active torsions:
REMARK  status: ('A' for Active; 'I' for Inactive)
REMARK    1  A    between atoms: C5_12  and  N1_5 
REMARK    2  A    between atoms: C6_13  and  N2_6 
REMARK    3  A    between atoms: C5_12  and  C7_14 
REMARK    4  A    between atoms: C6_13  and  C8_15 
REMARK    5  A    between atoms: C14_21  and  C20_27 
REMARK    6  A    between atoms: C16_23  and  C21_28 
ROOT
HETATM    1  N1  UNK     1      18.169   5.021  31.535  1.00  0.00     0.096 N 
HETATM    2  N2  UNK     1      18.990   2.304  30.979  1.00  0.00     0.097 N 
HETATM    3  C1  UNK     1      18.281   4.023  32.607  1.00  0.00     0.303 C 
HETATM    4  C2  UNK     1      19.113   4.715  30.452  1.00  0.00     0.303 C 
HETATM    5  C3  UNK     1      18.047   2.609  32.063  1.00  0.00     0.303 C 
HETATM    6  C4  UNK     1      18.880   3.302  29.908  1.00  0.00     0.303 C 
ENDROOT
BRANCH   1   7
HETATM    7  C5  UNK     1      18.393   6.367  32.055  1.00  0.00     0.312 C 
BRANCH   7   8
HETATM    8  C7  UNK     1      17.118   7.101  32.284  1.00  0.00    -0.011 A 
HETATM    9  C10 UNK     1      15.944   6.591  31.884  1.00  0.00     0.092 A 
HETATM   10  C15 UNK     1      14.657   7.278  32.089  1.00  0.00     0.288 A 
HETATM   11  O2  UNK     1      14.703   8.505  32.731  1.00  0.00    -0.275 OA
HETATM   12  O3  UNK     1      13.604   6.779  31.711  1.00  0.00    -0.260 OA
HETATM   13  C12 UNK     1      15.921   9.067  33.164  1.00  0.00     0.090 A 
HETATM   14  C9  UNK     1      17.133   8.404  32.962  1.00  0.00     0.007 A 
HETATM   15  C17 UNK     1      15.846  10.307  33.798  1.00  0.00     0.039 A 
HETATM   16  C13 UNK     1      18.299   9.030  33.421  1.00  0.00     0.022 A 
HETATM   17  C14 UNK     1      18.241  10.274  34.058  1.00  0.00    -0.058 A 
HETATM   18  C19 UNK     1      17.016  10.912  34.247  1.00  0.00     0.010 A 
BRANCH  17  19
HETATM   19  C20 UNK     1      19.496  10.921  34.539  1.00  0.00     0.034 C 
HETATM   20  C22 UNK     1      20.669   9.945  34.589  1.00  0.00     0.010 C 
ENDBRANCH  17  19
ENDBRANCH   7   8
ENDBRANCH   1   7
BRANCH   2  21
HETATM   21  C6  UNK     1      18.763   0.957  30.458  1.00  0.00     0.334 C 
BRANCH  21  22
HETATM   22  C8  UNK     1      19.079  -0.042  31.525  1.00  0.00     0.095 A 
HETATM   23  C11 UNK     1      19.818  -1.196  31.437  1.00  0.00     0.078 A 
HETATM   24  O1  UNK     1      19.830  -1.780  32.667  1.00  0.00    -0.294 OA
HETATM   25  C18 UNK     1      20.547  -1.881  30.364  1.00  0.00     0.079 C 
HETATM   26  C16 UNK     1      19.089  -0.932  33.430  1.00  0.00     0.182 A 
HETATM   27  N3  UNK     1      18.614   0.122  32.804  1.00  0.00    -0.224 NA
BRANCH  26  28
HETATM   28  C21 UNK     1      18.938  -1.319  34.805  1.00  0.00     0.039 A 
HETATM   29  C23 UNK     1      17.821  -0.951  35.556  1.00  0.00     0.048 A 
HETATM   30 Cl1  UNK     1      16.539  -0.002  34.886  1.00  0.00    -0.083 Cl
HETATM   31  C25 UNK     1      17.714  -1.348  36.889  1.00  0.00     0.025 A 
HETATM   32  C27 UNK     1      18.724  -2.114  37.471  1.00  0.00     0.002 A 
HETATM   33  C26 UNK     1      19.841  -2.482  36.721  1.00  0.00     0.001 A 
HETATM   34  C24 UNK     1      19.947  -2.085  35.388  1.00  0.00     0.017 A 
ENDBRANCH  26  28
ENDBRANCH  21  22
ENDBRANCH   2  21
TORSDOF 6
ENDMDL
MODEL 3
REMARK VINA RESULT:      -9.4      8.339     11.160
REMARK  6 active torsions:
REMARK  status: ('A' for Active; 'I' for Inactive)
REMARK    1  A    between atoms: C5_12  and  N1_5 
REMARK    2  A    between atoms: C6_13  and  N2_6 
REMARK    3  A    between atoms: C5_12  and  C7_14 
REMARK    4  A    between atoms: C6_13  and  C8_15 
REMARK    5  A    between atoms: C14_21  and  C20_27 
REMARK    6  A    between atoms: C16_23  and  C21_28 
ROOT
HETATM    1  N1  UNK     1      25.379  -8.060  38.562  1.00  0.00     0.096 N 
HETATM    2  N2  UNK     1      28.268  -7.939  38.533  1.00  0.00     0.097 N 
HETATM    3  C1  UNK     1      26.193  -9.145  39.124  1.00  0.00     0.303 C 
HETATM    4  C2  UNK     1      26.090  -6.780  38.668  1.00  0.00     0.303 C 
HETATM    5  C3  UNK     1      27.557  -9.220  38.428  1.00  0.00     0.303 C 
HETATM    6  C4  UNK     1      27.454  -6.854  37.973  1.00  0.00     0.303 C 
ENDROOT
BRANCH   1   7
HETATM    7  C5  UNK     1      24.080  -7.989  39.227  1.00  0.00     0.312 C 
BRANCH   7   8
HETATM    8  C7  UNK     1      22.989  -7.599  38.291  1.00  0.00    -0.011 A 
HETATM    9  C10 UNK     1      22.335  -6.438  38.434  1.00  0.00     0.092 A 
HETATM   10  C15 UNK     1      21.251  -6.009  37.533  1.00  0.00     0.288 A 
HETATM   11  O2  UNK     1      20.922  -6.873  36.501  1.00  0.00    -0.275 OA
HETATM   12  O3  UNK     1      20.678  -4.938  37.694  1.00  0.00    -0.260 OA
HETATM   13  C12 UNK     1      21.591  -8.101  36.325  1.00  0.00     0.090 A 
HETATM   14  C9  UNK     1      22.616  -8.494  37.187  1.00  0.00     0.007 A 
HETATM   15  C17 UNK     1      21.175  -8.891  35.252  1.00  0.00     0.039 A 
HETATM   16  C13 UNK     1      23.231  -9.730  36.944  1.00  0.00     0.022 A 
HETATM   17  C14 UNK     1      22.825 -10.533  35.872  1.00  0.00    -0.058 A 
HETATM   18  C19 UNK     1      21.798 -10.114  35.028  1.00  0.00     0.010 A 
BRANCH  17  19
HETATM   19  C20 UNK     1      23.494 -11.845  35.634  1.00  0.00     0.034 C 
HETATM   20  C22 UNK     1      24.955 -11.839  36.077  1.00  0.00     0.010 C 
ENDBRANCH  17  19
ENDBRANCH   7   8
ENDBRANCH   1   7
BRANCH   2  21
HETATM   21  C6  UNK     1      29.567  -8.011  37.865  1.00  0.00     0.334 C 
BRANCH  21  22
HETATM   22  C8  UNK     1      29.446  -7.437  36.490  1.00  0.00     0.095 A 
HETATM   23  C11 UNK     1      29.918  -6.240  36.010  1.00  0.00     0.078 A 
HETATM   24  O1  UNK     1      29.566  -6.148  34.697  1.00  0.00    -0.294 OA
HETATM   25  C18 UNK     1      30.670  -5.118  36.580  1.00  0.00     0.079 C 
HETATM   26  C16 UNK     1      28.896  -7.310  34.465  1.00  0.00     0.182 A 
HETATM   27  N3  UNK     1      28.792  -8.118  35.496  1.00  0.00    -0.224 NA
BRANCH  26  28
HETATM   28  C21 UNK     1      28.404  -7.475  33.125  1.00  0.00     0.039 A 
HETATM   29  C23 UNK     1      28.633  -8.642  32.395  1.00  0.00     0.048 A 
HETATM   30 Cl1  UNK     1      29.525  -9.972  33.050  1.00  0.00    -0.083 Cl
HETATM   31  C25 UNK     1      28.138  -8.761  31.096  1.00  0.00     0.025 A 
HETATM   32  C27 UNK     1      27.413  -7.713  30.528  1.00  0.00     0.002 A 
HETATM   33  C26 UNK     1      27.184  -6.547  31.258  1.00  0.00     0.001 A 
HETATM   34  C24 UNK     1      27.680  -6.428  32.556  1.00  0.00     0.017 A 
ENDBRANCH  26  28
ENDBRANCH  21  22
ENDBRANCH   2  21
TORSDOF 6
ENDMDL
MODEL 4
REMARK VINA RESULT:      -9.3      5.682      8.551
REMARK  6 active torsions:
REMARK  status: ('A' for Active; 'I' for Inactive)
REMARK    1  A    between atoms: C5_12  and  N1_5 
REMARK    2  A    between atoms: C6_13  and  N2_6 
REMARK    3  A    between atoms: C5_12  and  C7_14 
REMARK    4  A    between atoms: C6_13  and  C8_15 
REMARK    5  A    between atoms: C14_21  and  C20_27 
REMARK    6  A    between atoms: C16_23  and  C21_28 
ROOT
HETATM    1  N1  UNK     1      18.915   3.688  31.379  1.00  0.00     0.096 N 
HETATM    2  N2  UNK     1      19.253   6.274  32.627  1.00  0.00     0.097 N 
HETATM    3  C1  UNK     1      18.110   4.084  32.541  1.00  0.00     0.303 C 
HETATM    4  C2  UNK     1      19.299   4.868  30.596  1.00  0.00     0.303 C 
HETATM    5  C3  UNK     1      18.867   5.093  33.411  1.00  0.00     0.303 C 
HETATM    6  C4  UNK     1      20.057   5.878  31.465  1.00  0.00     0.303 C 
ENDROOT
BRANCH   1   7
HETATM    7  C5  UNK     1      18.191   2.727  30.550  1.00  0.00     0.312 C 
BRANCH   7   8
HETATM    8  C7  UNK     1      18.872   1.404  30.497  1.00  0.00    -0.011 A 
HETATM    9  C10 UNK     1      19.502   0.993  29.388  1.00  0.00     0.092 A 
HETATM   10  C15 UNK     1      20.189  -0.307  29.288  1.00  0.00     0.288 A 
HETATM   11  O2  UNK     1      20.163  -1.112  30.416  1.00  0.00    -0.275 OA
HETATM   12  O3  UNK     1      20.757  -0.647  28.257  1.00  0.00    -0.260 OA
HETATM   13  C12 UNK     1      19.509  -0.707  31.597  1.00  0.00     0.090 A 
HETATM   14  C9  UNK     1      18.862   0.527  31.675  1.00  0.00     0.007 A 
HETATM   15  C17 UNK     1      19.547  -1.600  32.669  1.00  0.00     0.039 A 
HETATM   16  C13 UNK     1      18.234   0.854  32.885  1.00  0.00     0.022 A 
HETATM   17  C14 UNK     1      18.263  -0.031  33.969  1.00  0.00    -0.058 A 
HETATM   18  C19 UNK     1      18.918  -1.256  33.861  1.00  0.00     0.010 A 
BRANCH  17  19
HETATM   19  C20 UNK     1      17.588   0.340  35.247  1.00  0.00     0.034 C 
HETATM   20  C22 UNK     1      16.091   0.038  35.221  1.00  0.00     0.010 C 
ENDBRANCH  17  19
ENDBRANCH   7   8
ENDBRANCH   1   7
BRANCH   2  21
HETATM   21  C6  UNK     1      19.979   7.233  33.458  1.00  0.00     0.334 C 
BRANCH  21  22
HETATM   22  C8  UNK     1      19.092   8.401  33.752  1.00  0.00     0.095 A 
HETATM   23  C11 UNK     1      19.428   9.640  34.238  1.00  0.00     0.078 A 
HETATM   24  O1  UNK     1      18.284  10.372  34.342  1.00  0.00    -0.294 OA
HETATM   25  C18 UNK     1      20.678  10.292  34.642  1.00  0.00     0.079 C 
HETATM   26  C16 UNK     1      17.318   9.519  33.905  1.00  0.00     0.182 A 
HETATM   27  N3  UNK     1      17.739   8.329  33.540  1.00  0.00    -0.224 NA
BRANCH  26  28
HETATM   28  C21 UNK     1      15.984  10.051  33.911  1.00  0.00     0.039 A 
HETATM   29  C23 UNK     1      15.035   9.669  32.963  1.00  0.00     0.048 A 
HETATM   30 Cl1  UNK     1      15.396   8.529  31.713  1.00  0.00    -0.083 Cl
HETATM   31  C25 UNK     1      13.749  10.211  33.004  1.00  0.00     0.025 A 
HETATM   32  C27 UNK     1      13.414  11.134  33.994  1.00  0.00     0.002 A 
HETATM   33  C26 UNK     1      14.363  11.515  34.943  1.00  0.00     0.001 A 
HETATM   34  C24 UNK     1      15.647  10.974  34.902  1.00  0.00     0.017 A 
ENDBRANCH  26  28
ENDBRANCH  21  22
ENDBRANCH   2  21
TORSDOF 6
ENDMDL
MODEL 5
REMARK VINA RESULT:      -9.3      5.660      8.706
REMARK  6 active torsions:
REMARK  status: ('A' for Active; 'I' for Inactive)
REMARK    1  A    between atoms: C5_12  and  N1_5 
REMARK    2  A    between atoms: C6_13  and  N2_6 
REMARK    3  A    between atoms: C5_12  and  C7_14 
REMARK    4  A    between atoms: C6_13  and  C8_15 
REMARK    5  A    between atoms: C14_21  and  C20_27 
REMARK    6  A    between atoms: C16_23  and  C21_28 
ROOT
HETATM    1  N1  UNK     1      18.716   3.325  31.227  1.00  0.00     0.096 N 
HETATM    2  N2  UNK     1      18.703   6.000  32.327  1.00  0.00     0.097 N 
HETATM    3  C1  UNK     1      17.824   3.689  32.335  1.00  0.00     0.303 C 
HETATM    4  C2  UNK     1      18.993   4.497  30.387  1.00  0.00     0.303 C 
HETATM    5  C3  UNK     1      18.424   4.828  33.168  1.00  0.00     0.303 C 
HETATM    6  C4  UNK     1      19.594   5.636  31.219  1.00  0.00     0.303 C 
ENDROOT
BRANCH   1   7
HETATM    7  C5  UNK     1      18.142   2.241  30.434  1.00  0.00     0.312 C 
BRANCH   7   8
HETATM    8  C7  UNK     1      19.005   1.027  30.434  1.00  0.00    -0.011 A 
HETATM    9  C10 UNK     1      19.740   0.700  29.362  1.00  0.00     0.092 A 
HETATM   10  C15 UNK     1      20.607  -0.490  29.314  1.00  0.00     0.288 A 
HETATM   11  O2  UNK     1      20.639  -1.281  30.451  1.00  0.00    -0.275 OA
HETATM   12  O3  UNK     1      21.267  -0.755  28.316  1.00  0.00    -0.260 OA
HETATM   13  C12 UNK     1      19.878  -0.964  31.594  1.00  0.00     0.090 A 
HETATM   14  C9  UNK     1      19.060   0.167  31.623  1.00  0.00     0.007 A 
HETATM   15  C17 UNK     1      19.988  -1.833  32.679  1.00  0.00     0.039 A 
HETATM   16  C13 UNK     1      18.334   0.412  32.797  1.00  0.00     0.022 A 
HETATM   17  C14 UNK     1      18.434  -0.451  33.894  1.00  0.00    -0.058 A 
HETATM   18  C19 UNK     1      19.259  -1.572  33.835  1.00  0.00     0.010 A 
BRANCH  17  19
HETATM   19  C20 UNK     1      17.652  -0.169  35.132  1.00  0.00     0.034 C 
HETATM   20  C22 UNK     1      16.148  -0.320  34.916  1.00  0.00     0.010 C 
ENDBRANCH  17  19
ENDBRANCH   7   8
ENDBRANCH   1   7
BRANCH   2  21
HETATM   21  C6  UNK     1      19.279   7.083  33.123  1.00  0.00     0.334 C 
BRANCH  21  22
HETATM   22  C8  UNK     1      18.301   8.211  33.199  1.00  0.00     0.095 A 
HETATM   23  C11 UNK     1      17.084   8.342  32.578  1.00  0.00     0.078 A 
HETATM   24  O1  UNK     1      16.553   9.541  32.947  1.00  0.00    -0.294 OA
HETATM   25  C18 UNK     1      16.292   7.516  31.661  1.00  0.00     0.079 C 
HETATM   26  C16 UNK     1      17.494  10.064  33.780  1.00  0.00     0.182 A 
HETATM   27  N3  UNK     1      18.559   9.317  33.968  1.00  0.00    -0.224 NA
BRANCH  26  28
HETATM   28  C21 UNK     1      17.179  11.355  34.326  1.00  0.00     0.039 A 
HETATM   29  C23 UNK     1      16.009  11.582  35.050  1.00  0.00     0.048 A 
HETATM   30 Cl1  UNK     1      14.854  10.327  35.344  1.00  0.00    -0.083 Cl
HETATM   31  C25 UNK     1      15.740  12.852  35.563  1.00  0.00     0.025 A 
HETATM   32  C27 UNK     1      16.643  13.894  35.350  1.00  0.00     0.002 A 
HETATM   33  C26 UNK     1      17.813  13.667  34.626  1.00  0.00     0.001 A 
HETATM   34  C24 UNK     1      18.081  12.398  34.114  1.00  0.00     0.017 A 
ENDBRANCH  26  28
ENDBRANCH  21  22
ENDBRANCH   2  21
TORSDOF 6
ENDMDL
MODEL 6
REMARK VINA RESULT:      -9.2     12.270     17.330
REMARK  6 active torsions:
REMARK  status: ('A' for Active; 'I' for Inactive)
REMARK    1  A    between atoms: C5_12  and  N1_5 
REMARK    2  A    between atoms: C6_13  and  N2_6 
REMARK    3  A    between atoms: C5_12  and  C7_14 
REMARK    4  A    between atoms: C6_13  and  C8_15 
REMARK    5  A    between atoms: C14_21  and  C20_27 
REMARK    6  A    between atoms: C16_23  and  C21_28 
ROOT
HETATM    1  N1  UNK     1      31.883  -5.798  35.827  1.00  0.00     0.096 N 
HETATM    2  N2  UNK     1      34.499  -6.347  34.724  1.00  0.00     0.097 N 
HETATM    3  C1  UNK     1      32.635  -4.768  35.100  1.00  0.00     0.303 C 
HETATM    4  C2  UNK     1      32.237  -7.134  35.333  1.00  0.00     0.303 C 
HETATM    5  C3  UNK     1      34.145  -5.010  35.217  1.00  0.00     0.303 C 
HETATM    6  C4  UNK     1      33.746  -7.377  35.449  1.00  0.00     0.303 C 
ENDROOT
BRANCH   1   7
HETATM    7  C5  UNK     1      30.445  -5.567  35.714  1.00  0.00     0.312 C 
BRANCH   7   8
HETATM    8  C7  UNK     1      29.774  -5.541  37.042  1.00  0.00    -0.011 A 
HETATM    9  C10 UNK     1      30.011  -4.554  37.919  1.00  0.00     0.092 A 
HETATM   10  C15 UNK     1      29.371  -4.485  39.244  1.00  0.00     0.288 A 
HETATM   11  O2  UNK     1      28.487  -5.504  39.562  1.00  0.00    -0.275 OA
HETATM   12  O3  UNK     1      29.610  -3.566  40.018  1.00  0.00    -0.260 OA
HETATM   13  C12 UNK     1      28.218  -6.555  38.662  1.00  0.00     0.090 A 
HETATM   14  C9  UNK     1      28.833  -6.607  37.410  1.00  0.00     0.007 A 
HETATM   15  C17 UNK     1      27.312  -7.527  39.089  1.00  0.00     0.039 A 
HETATM   16  C13 UNK     1      28.511  -7.685  36.573  1.00  0.00     0.022 A 
HETATM   17  C14 UNK     1      27.606  -8.668  36.988  1.00  0.00    -0.058 A 
HETATM   18  C19 UNK     1      27.007  -8.589  38.244  1.00  0.00     0.010 A 
BRANCH  17  19
HETATM   19  C20 UNK     1      27.280  -9.806  36.080  1.00  0.00     0.034 C 
HETATM   20  C22 UNK     1      26.064 -10.597  36.556  1.00  0.00     0.010 C 
ENDBRANCH  17  19
ENDBRANCH   7   8
ENDBRANCH   1   7
BRANCH   2  21
HETATM   21  C6  UNK     1      35.938  -6.578  34.839  1.00  0.00     0.334 C 
BRANCH  21  22
HETATM   22  C8  UNK     1      36.368  -7.546  33.784  1.00  0.00     0.095 A 
HETATM   23  C11 UNK     1      36.198  -7.473  32.424  1.00  0.00     0.078 A 
HETATM   24  O1  UNK     1      36.755  -8.587  31.872  1.00  0.00    -0.294 OA
HETATM   25  C18 UNK     1      35.583  -6.509  31.506  1.00  0.00     0.079 C 
HETATM   26  C16 UNK     1      37.233  -9.270  32.948  1.00  0.00     0.182 A 
HETATM   27  N3  UNK     1      37.031  -8.700  34.114  1.00  0.00    -0.224 NA
BRANCH  26  28
HETATM   28  C21 UNK     1      37.884 -10.514  32.642  1.00  0.00     0.039 A 
HETATM   29  C23 UNK     1      37.177 -11.712  32.548  1.00  0.00     0.048 A 
HETATM   30 Cl1  UNK     1      35.466 -11.787  32.793  1.00  0.00    -0.083 Cl
HETATM   31  C25 UNK     1      37.848 -12.898  32.249  1.00  0.00     0.025 A 
HETATM   32  C27 UNK     1      39.228 -12.884  32.044  1.00  0.00     0.002 A 
HETATM   33  C26 UNK     1      39.936 -11.686  32.138  1.00  0.00     0.001 A 
HETATM   34  C24 UNK     1      39.264 -10.501  32.437  1.00  0.00     0.017 A 
ENDBRANCH  26  28
ENDBRANCH  21  22
ENDBRANCH   2  21
TORSDOF 6
ENDMDL
MODEL 7
REMARK VINA RESULT:      -9.2      3.173      3.954
REMARK  6 active torsions:
REMARK  status: ('A' for Active; 'I' for Inactive)
REMARK    1  A    between atoms: C5_12  and  N1_5 
REMARK    2  A    between atoms: C6_13  and  N2_6 
REMARK    3  A    between atoms: C5_12  and  C7_14 
REMARK    4  A    between atoms: C6_13  and  C8_15 
REMARK    5  A    between atoms: C14_21  and  C20_27 
REMARK    6  A    between atoms: C16_23  and  C21_28 
ROOT
HETATM    1  N1  UNK     1      18.982  -4.758  36.393  1.00  0.00     0.096 N 
HETATM    2  N2  UNK     1      18.794  -1.939  37.008  1.00  0.00     0.097 N 
HETATM    3  C1  UNK     1      20.102  -4.036  37.010  1.00  0.00     0.303 C 
HETATM    4  C2  UNK     1      17.704  -4.144  36.777  1.00  0.00     0.303 C 
HETATM    5  C3  UNK     1      20.073  -2.553  36.625  1.00  0.00     0.303 C 
HETATM    6  C4  UNK     1      17.674  -2.661  36.392  1.00  0.00     0.303 C 
ENDROOT
BRANCH   1   7
HETATM    7  C5  UNK     1      19.010  -6.171  36.761  1.00  0.00     0.312 C 
BRANCH   7   8
HETATM    8  C7  UNK     1      19.807  -6.986  35.803  1.00  0.00    -0.011 A 
HETATM    9  C10 UNK     1      20.202  -6.481  34.626  1.00  0.00     0.092 A 
HETATM   10  C15 UNK     1      20.992  -7.247  33.647  1.00  0.00     0.288 A 
HETATM   11  O2  UNK     1      21.324  -8.546  33.996  1.00  0.00    -0.275 OA
HETATM   12  O3  UNK     1      21.337  -6.750  32.580  1.00  0.00    -0.260 OA
HETATM   13  C12 UNK     1      20.924  -9.105  35.226  1.00  0.00     0.090 A 
HETATM   14  C9  UNK     1      20.175  -8.367  36.144  1.00  0.00     0.007 A 
HETATM   15  C17 UNK     1      21.315 -10.423  35.470  1.00  0.00     0.039 A 
HETATM   16  C13 UNK     1      19.816  -8.995  37.344  1.00  0.00     0.022 A 
HETATM   17  C14 UNK     1      20.200 -10.316  37.603  1.00  0.00    -0.058 A 
HETATM   18  C19 UNK     1      20.949 -11.028  36.668  1.00  0.00     0.010 A 
BRANCH  17  19
HETATM   19  C20 UNK     1      19.806 -10.964  38.888  1.00  0.00     0.034 C 
HETATM   20  C22 UNK     1      20.012 -10.043  40.088  1.00  0.00     0.010 C 
ENDBRANCH  17  19
ENDBRANCH   7   8
ENDBRANCH   1   7
BRANCH   2  21
HETATM   21  C6  UNK     1      18.767  -0.525  36.637  1.00  0.00     0.334 C 
BRANCH  21  22
HETATM   22  C8  UNK     1      18.482  -0.405  35.174  1.00  0.00     0.095 A 
HETATM   23  C11 UNK     1      17.313  -0.051  34.548  1.00  0.00     0.078 A 
HETATM   24  O1  UNK     1      17.533  -0.081  33.203  1.00  0.00    -0.294 OA
HETATM   25  C18 UNK     1      15.969   0.326  34.996  1.00  0.00     0.079 C 
HETATM   26  C16 UNK     1      18.837  -0.455  33.102  1.00  0.00     0.182 A 
HETATM   27  N3  UNK     1      19.455  -0.663  34.243  1.00  0.00    -0.224 NA
BRANCH  26  28
HETATM   28  C21 UNK     1      19.339  -0.566  31.760  1.00  0.00     0.039 A 
HETATM   29  C23 UNK     1      19.328   0.515  30.879  1.00  0.00     0.048 A 
HETATM   30 Cl1  UNK     1      18.711   2.065  31.336  1.00  0.00    -0.083 Cl
HETATM   31  C25 UNK     1      19.825   0.364  29.583  1.00  0.00     0.025 A 
HETATM   32  C27 UNK     1      20.332  -0.868  29.171  1.00  0.00     0.002 A 
HETATM   33  C26 UNK     1      20.343  -1.949  30.053  1.00  0.00     0.001 A 
HETATM   34  C24 UNK     1      19.846  -1.798  31.347  1.00  0.00     0.017 A 
ENDBRANCH  26  28
ENDBRANCH  21  22
ENDBRANCH   2  21
TORSDOF 6
ENDMDL
MODEL 8
REMARK VINA RESULT:      -9.1      9.171     13.713
REMARK  6 active torsions:
REMARK  status: ('A' for Active; 'I' for Inactive)
REMARK    1  A    between atoms: C5_12  and  N1_5 
REMARK    2  A    between atoms: C6_13  and  N2_6 
REMARK    3  A    between atoms: C5_12  and  C7_14 
REMARK    4  A    between atoms: C6_13  and  C8_15 
REMARK    5  A    between atoms: C14_21  and  C20_27 
REMARK    6  A    between atoms: C16_23  and  C21_28 
ROOT
HETATM    1  N1  UNK     1      26.867  -9.378  37.494  1.00  0.00     0.096 N 
HETATM    2  N2  UNK     1      29.717  -9.039  37.851  1.00  0.00     0.097 N 
HETATM    3  C1  UNK     1      27.464  -9.298  38.834  1.00  0.00     0.303 C 
HETATM    4  C2  UNK     1      27.672  -8.616  36.530  1.00  0.00     0.303 C 
HETATM    5  C3  UNK     1      28.913  -9.799  38.816  1.00  0.00     0.303 C 
HETATM    6  C4  UNK     1      29.120  -9.117  36.512  1.00  0.00     0.303 C 
ENDROOT
BRANCH   1   7
HETATM    7  C5  UNK     1      25.488  -8.899  37.512  1.00  0.00     0.312 C 
BRANCH   7   8
HETATM    8  C7  UNK     1      24.563  -9.821  36.798  1.00  0.00    -0.011 A 
HETATM    9  C10 UNK     1      25.004 -10.972  36.269  1.00  0.00     0.092 A 
HETATM   10  C15 UNK     1      24.128 -11.916  35.554  1.00  0.00     0.288 A 
HETATM   11  O2  UNK     1      22.792 -11.565  35.446  1.00  0.00    -0.275 OA
HETATM   12  O3  UNK     1      24.568 -12.960  35.086  1.00  0.00    -0.260 OA
HETATM   13  C12 UNK     1      22.298 -10.363  35.991  1.00  0.00     0.090 A 
HETATM   14  C9  UNK     1      23.141  -9.478  36.665  1.00  0.00     0.007 A 
HETATM   15  C17 UNK     1      20.936 -10.113  35.821  1.00  0.00     0.039 A 
HETATM   16  C13 UNK     1      22.572  -8.304  37.178  1.00  0.00     0.022 A 
HETATM   17  C14 UNK     1      21.208  -8.038  37.014  1.00  0.00    -0.058 A 
HETATM   18  C19 UNK     1      20.391  -8.942  36.337  1.00  0.00     0.010 A 
BRANCH  17  19
HETATM   19  C20 UNK     1      20.625  -6.782  37.568  1.00  0.00     0.034 C 
HETATM   20  C22 UNK     1      20.315  -6.895  39.059  1.00  0.00     0.010 C 
ENDBRANCH  17  19
ENDBRANCH   7   8
ENDBRANCH   1   7
BRANCH   2  21
HETATM   21  C6  UNK     1      31.097  -9.521  37.833  1.00  0.00     0.334 C 
BRANCH  21  22
HETATM   22  C8  UNK     1      31.965  -8.503  37.165  1.00  0.00     0.095 A 
HETATM   23  C11 UNK     1      32.123  -7.172  37.465  1.00  0.00     0.078 A 
HETATM   24  O1  UNK     1      33.018  -6.648  36.582  1.00  0.00    -0.294 OA
HETATM   25  C18 UNK     1      31.563  -6.262  38.469  1.00  0.00     0.079 C 
HETATM   26  C16 UNK     1      33.349  -7.708  35.797  1.00  0.00     0.182 A 
HETATM   27  N3  UNK     1      32.754  -8.841  36.095  1.00  0.00    -0.224 NA
BRANCH  26  28
HETATM   28  C21 UNK     1      34.301  -7.426  34.758  1.00  0.00     0.039 A 
HETATM   29  C23 UNK     1      33.916  -7.287  33.425  1.00  0.00     0.048 A 
HETATM   30 Cl1  UNK     1      32.268  -7.444  32.925  1.00  0.00    -0.083 Cl
HETATM   31  C25 UNK     1      34.873  -7.013  32.447  1.00  0.00     0.025 A 
HETATM   32  C27 UNK     1      36.215  -6.879  32.803  1.00  0.00     0.002 A 
HETATM   33  C26 UNK     1      36.600  -7.018  34.137  1.00  0.00     0.001 A 
HETATM   34  C24 UNK     1      35.643  -7.291  35.114  1.00  0.00     0.017 A 
ENDBRANCH  26  28
ENDBRANCH  21  22
ENDBRANCH   2  21
TORSDOF 6
ENDMDL
MODEL 9
REMARK VINA RESULT:      -9.1      5.828     14.449
REMARK  6 active torsions:
REMARK  status: ('A' for Active; 'I' for Inactive)
REMARK    1  A    between atoms: C5_12  and  N1_5 
REMARK    2  A    between atoms: C6_13  and  N2_6 
REMARK    3  A    between atoms: C5_12  and  C7_14 
REMARK    4  A    between atoms: C6_13  and  C8_15 
REMARK    5  A    between atoms: C14_21  and  C20_27 
REMARK    6  A    between atoms: C16_23  and  C21_28 
ROOT
HETATM    1  N1  UNK     1      16.418   8.699  33.683  1.00  0.00     0.096 N 
HETATM    2  N2  UNK     1      17.712   6.256  32.833  1.00  0.00     0.097 N 
HETATM    3  C1  UNK     1      15.652   7.465  33.468  1.00  0.00     0.303 C 
HETATM    4  C2  UNK     1      17.793   8.382  34.089  1.00  0.00     0.303 C 
HETATM    5  C3  UNK     1      16.336   6.571  32.428  1.00  0.00     0.303 C 
HETATM    6  C4  UNK     1      18.478   7.489  33.049  1.00  0.00     0.303 C 
ENDROOT
BRANCH   1   7
HETATM    7  C5  UNK     1      15.766   9.549  34.676  1.00  0.00     0.312 C 
BRANCH   7   8
HETATM    8  C7  UNK     1      14.944  10.619  34.046  1.00  0.00    -0.011 A 
HETATM    9  C10 UNK     1      13.687  10.382  33.645  1.00  0.00     0.092 A 
HETATM   10  C15 UNK     1      12.836  11.408  33.018  1.00  0.00     0.288 A 
HETATM   11  O2  UNK     1      13.396  12.665  32.855  1.00  0.00    -0.275 OA
HETATM   12  O3  UNK     1      11.690  11.154  32.666  1.00  0.00    -0.260 OA
HETATM   13  C12 UNK     1      14.714  12.945  33.267  1.00  0.00     0.090 A 
HETATM   14  C9  UNK     1      15.509  11.962  33.859  1.00  0.00     0.007 A 
HETATM   15  C17 UNK     1      15.173  14.246  33.051  1.00  0.00     0.039 A 
HETATM   16  C13 UNK     1      16.809  12.321  34.239  1.00  0.00     0.022 A 
HETATM   17  C14 UNK     1      17.284  13.621  34.030  1.00  0.00    -0.058 A 
HETATM   18  C19 UNK     1      16.466  14.581  33.437  1.00  0.00     0.010 A 
BRANCH  17  19
HETATM   19  C20 UNK     1      18.671  13.979  34.444  1.00  0.00     0.034 C 
HETATM   20  C22 UNK     1      19.160  15.264  33.780  1.00  0.00     0.010 C 
ENDBRANCH  17  19
ENDBRANCH   7   8
ENDBRANCH   1   7
BRANCH   2  21
HETATM   21  C6  UNK     1      18.364   5.407  31.838  1.00  0.00     0.334 C 
BRANCH  21  22
HETATM   22  C8  UNK     1      18.257   3.978  32.264  1.00  0.00     0.095 A 
HETATM   23  C11 UNK     1      18.400   2.839  31.511  1.00  0.00     0.078 A 
HETATM   24  O1  UNK     1      18.214   1.768  32.332  1.00  0.00    -0.294 OA
HETATM   25  C18 UNK     1      18.691   2.557  30.101  1.00  0.00     0.079 C 
HETATM   26  C16 UNK     1      17.969   2.335  33.544  1.00  0.00     0.182 A 
HETATM   27  N3  UNK     1      17.981   3.649  33.566  1.00  0.00    -0.224 NA
BRANCH  26  28
HETATM   28  C21 UNK     1      17.734   1.408  34.616  1.00  0.00     0.039 A 
HETATM   29  C23 UNK     1      18.494   1.427  35.786  1.00  0.00     0.048 A 
HETATM   30 Cl1  UNK     1      19.773   2.565  36.029  1.00  0.00    -0.083 Cl
HETATM   31  C25 UNK     1      18.232   0.508  36.803  1.00  0.00     0.025 A 
HETATM   32  C27 UNK     1      17.210  -0.429  36.650  1.00  0.00     0.002 A 
HETATM   33  C26 UNK     1      16.450  -0.447  35.481  1.00  0.00     0.001 A 
HETATM   34  C24 UNK     1      16.712   0.471  34.464  1.00  0.00     0.017 A 
ENDBRANCH  26  28
ENDBRANCH  21  22
ENDBRANCH   2  21
TORSDOF 6
ENDMDL
MODEL 10
REMARK VINA RESULT:      -9.1     12.624     16.295
REMARK  6 active torsions:
REMARK  status: ('A' for Active; 'I' for Inactive)
REMARK    1  A    between atoms: C5_12  and  N1_5 
REMARK    2  A    between atoms: C6_13  and  N2_6 
REMARK    3  A    between atoms: C5_12  and  C7_14 
REMARK    4  A    between atoms: C6_13  and  C8_15 
REMARK    5  A    between atoms: C14_21  and  C20_27 
REMARK    6  A    between atoms: C16_23  and  C21_28 
ROOT
HETATM    1  N1  UNK     1      32.871  -8.331  29.060  1.00  0.00     0.096 N 
HETATM    2  N2  UNK     1      34.170  -8.374  31.643  1.00  0.00     0.097 N 
HETATM    3  C1  UNK     1      32.324  -9.113  30.176  1.00  0.00     0.303 C 
HETATM    4  C2  UNK     1      33.603  -7.163  29.565  1.00  0.00     0.303 C 
HETATM    5  C3  UNK     1      33.437  -9.542  31.139  1.00  0.00     0.303 C 
HETATM    6  C4  UNK     1      34.716  -7.591  30.528  1.00  0.00     0.303 C 
ENDROOT
BRANCH   1   7
HETATM    7  C5  UNK     1      31.809  -7.922  28.143  1.00  0.00     0.312 C 
BRANCH   7   8
HETATM    8  C7  UNK     1      30.470  -8.400  28.585  1.00  0.00    -0.011 A 
HETATM    9  C10 UNK     1      29.973  -9.568  28.150  1.00  0.00     0.092 A 
HETATM   10  C15 UNK     1      28.655 -10.082  28.559  1.00  0.00     0.288 A 
HETATM   11  O2  UNK     1      27.925  -9.297  29.436  1.00  0.00    -0.275 OA
HETATM   12  O3  UNK     1      28.235 -11.156  28.141  1.00  0.00    -0.260 OA
HETATM   13  C12 UNK     1      28.421  -8.065  29.911  1.00  0.00     0.090 A 
HETATM   14  C9  UNK     1      29.671  -7.590  29.514  1.00  0.00     0.007 A 
HETATM   15  C17 UNK     1      27.598  -7.359  30.790  1.00  0.00     0.039 A 
HETATM   16  C13 UNK     1      30.091  -6.357  30.031  1.00  0.00     0.022 A 
HETATM   17  C14 UNK     1      29.278  -5.636  30.913  1.00  0.00    -0.058 A 
HETATM   18  C19 UNK     1      28.034  -6.136  31.291  1.00  0.00     0.010 A 
BRANCH  17  19
HETATM   19  C20 UNK     1      29.746  -4.325  31.449  1.00  0.00     0.034 C 
HETATM   20  C22 UNK     1      30.038  -3.316  30.342  1.00  0.00     0.010 C 
ENDBRANCH  17  19
ENDBRANCH   7   8
ENDBRANCH   1   7
BRANCH   2  21
HETATM   21  C6  UNK     1      35.234  -8.784  32.558  1.00  0.00     0.334 C 
BRANCH  21  22
HETATM   22  C8  UNK     1      35.110  -8.014  33.834  1.00  0.00     0.095 A 
HETATM   23  C11 UNK     1      36.096  -7.426  34.586  1.00  0.00     0.078 A 
HETATM   24  O1  UNK     1      35.505  -6.837  35.664  1.00  0.00    -0.294 OA
HETATM   25  C18 UNK     1      37.554  -7.309  34.478  1.00  0.00     0.079 C 
HETATM   26  C16 UNK     1      34.183  -7.110  35.490  1.00  0.00     0.182 A 
HETATM   27  N3  UNK     1      33.886  -7.808  34.418  1.00  0.00    -0.224 NA
BRANCH  26  28
HETATM   28  C21 UNK     1      33.313  -6.591  36.509  1.00  0.00     0.039 A 
HETATM   29  C23 UNK     1      32.976  -5.239  36.571  1.00  0.00     0.048 A 
HETATM   30 Cl1  UNK     1      33.579  -4.091  35.427  1.00  0.00    -0.083 Cl
HETATM   31  C25 UNK     1      32.127  -4.777  37.578  1.00  0.00     0.025 A 
HETATM   32  C27 UNK     1      31.617  -5.667  38.522  1.00  0.00     0.002 A 
HETATM   33  C26 UNK     1      31.954  -7.019  38.461  1.00  0.00     0.001 A 
HETATM   34  C24 UNK     1      32.802  -7.481  37.454  1.00  0.00     0.017 A 
ENDBRANCH  26  28
ENDBRANCH  21  22
ENDBRANCH   2  21
TORSDOF 6
ENDMDL
