MODEL 1
REMARK VINA RESULT:      -9.4      0.000      0.000
REMARK  4 active torsions:
REMARK  status: ('A' for Active; 'I' for Inactive)
REMARK    1  A    between atoms: C14_20  and  O2_2 
REMARK    2  A    between atoms: C6_12  and  O2_2 
REMARK    3  A    between atoms: C10_16  and  C3_9 
REMARK    4  A    between atoms: C14_20  and  C15_21 
ROOT
HETATM    1  O1  UNK     1      19.174   3.033  30.040  1.00  0.00    -0.307 OA
HETATM    2  O4  UNK     1      17.726   2.881  33.846  1.00  0.00    -0.287 OA
HETATM    3  C1  UNK     1      18.308   4.210  31.980  1.00  0.00     0.051 A 
HETATM    4  C2  UNK     1      18.809   4.190  30.680  1.00  0.00     0.090 A 
HETATM    5  C3  UNK     1      19.043   1.832  30.723  1.00  0.00     0.113 A 
HETATM    6  C4  UNK     1      17.952   5.419  32.582  1.00  0.00     0.055 A 
HETATM    7  C5  UNK     1      18.161   2.937  32.704  1.00  0.00     0.187 A 
HETATM    8  C6  UNK     1      18.101   6.610  31.871  1.00  0.00     0.080 A 
HETATM    9  C7  UNK     1      18.956   5.382  29.972  1.00  0.00     0.041 A 
HETATM   10  C8  UNK     1      18.569   1.721  31.973  1.00  0.00     0.095 A 
HETATM   11  C9  UNK     1      18.602   6.592  30.569  1.00  0.00     0.040 A 
ENDROOT
BRANCH   8  12
HETATM   12  O2  UNK     1      17.757   7.794  32.449  1.00  0.00    -0.275 OA
BRANCH  12  13
HETATM   13  C14 UNK     1      16.556   8.335  31.982  1.00  0.00     0.300 C 
HETATM   14  O5  UNK     1      16.141   8.261  30.836  1.00  0.00    -0.259 OA
BRANCH  13  15
HETATM   15  C15 UNK     1      15.816   9.020  33.073  1.00  0.00     0.057 A 
HETATM   16  C16 UNK     1      14.624   9.647  32.801  1.00  0.00     0.020 A 
HETATM   17  C18 UNK     1      13.955  10.281  33.843  1.00  0.00     0.020 A 
HETATM   18  C19 UNK     1      14.530  10.243  35.102  1.00  0.00     0.116 A 
HETATM   19  N1  UNK     1      15.702   9.628  35.381  1.00  0.00    -0.272 NA
HETATM   20  C17 UNK     1      16.323   9.023  34.344  1.00  0.00     0.133 A 
ENDBRANCH  13  15
ENDBRANCH  12  13
ENDBRANCH   8  12
BRANCH   5  21
HETATM   21  C10 UNK     1      19.457   0.650  29.940  1.00  0.00     0.108 A 
HETATM   22  C11 UNK     1      20.279  -0.387  30.342  1.00  0.00     0.042 A 
HETATM   23  C12 UNK     1      20.376  -1.274  29.243  1.00  0.00     0.027 A 
HETATM   24  C13 UNK     1      19.611  -0.726  28.240  1.00  0.00     0.142 A 
HETATM   25  O3  UNK     1      19.050   0.441  28.653  1.00  0.00    -0.320 OA
ENDBRANCH   5  21
TORSDOF 4
ENDMDL
MODEL 2
REMARK VINA RESULT:      -9.1      2.698      8.588
REMARK  4 active torsions:
REMARK  status: ('A' for Active; 'I' for Inactive)
REMARK    1  A    between atoms: C14_20  and  O2_2 
REMARK    2  A    between atoms: C6_12  and  O2_2 
REMARK    3  A    between atoms: C10_16  and  C3_9 
REMARK    4  A    between atoms: C14_20  and  C15_21 
ROOT
HETATM    1  O1  UNK     1      17.637   7.702  32.074  1.00  0.00    -0.307 OA
HETATM    2  O4  UNK     1      18.036   4.418  34.451  1.00  0.00    -0.287 OA
HETATM    3  C1  UNK     1      18.244   5.361  32.295  1.00  0.00     0.051 A 
HETATM    4  C2  UNK     1      18.086   6.521  31.540  1.00  0.00     0.090 A 
HETATM    5  C3  UNK     1      17.322   7.738  33.424  1.00  0.00     0.113 A 
HETATM    6  C4  UNK     1      18.705   4.186  31.697  1.00  0.00     0.055 A 
HETATM    7  C5  UNK     1      17.918   5.398  33.729  1.00  0.00     0.187 A 
HETATM    8  C6  UNK     1      19.008   4.181  30.335  1.00  0.00     0.080 A 
HETATM    9  C7  UNK     1      18.389   6.513  30.178  1.00  0.00     0.041 A 
HETATM   10  C8  UNK     1      17.439   6.691  34.255  1.00  0.00     0.095 A 
HETATM   11  C9  UNK     1      18.850   5.342  29.577  1.00  0.00     0.040 A 
ENDROOT
BRANCH   8  12
HETATM   12  O2  UNK     1      19.458   3.040  29.742  1.00  0.00    -0.275 OA
BRANCH  12  13
HETATM   13  C14 UNK     1      18.568   1.966  29.811  1.00  0.00     0.300 C 
HETATM   14  O5  UNK     1      17.363   2.027  29.621  1.00  0.00    -0.259 OA
BRANCH  13  15
HETATM   15  C15 UNK     1      19.276   0.703  30.142  1.00  0.00     0.057 A 
HETATM   16  C16 UNK     1      19.905  -0.008  29.149  1.00  0.00     0.020 A 
HETATM   17  C18 UNK     1      20.559  -1.188  29.489  1.00  0.00     0.020 A 
HETATM   18  C19 UNK     1      20.542  -1.580  30.817  1.00  0.00     0.116 A 
HETATM   19  N1  UNK     1      19.927  -0.887  31.803  1.00  0.00    -0.272 NA
HETATM   20  C17 UNK     1      19.301   0.253  31.434  1.00  0.00     0.133 A 
ENDBRANCH  13  15
ENDBRANCH  12  13
ENDBRANCH   8  12
BRANCH   5  21
HETATM   21  C10 UNK     1      16.857   9.058  33.896  1.00  0.00     0.108 A 
HETATM   22  C11 UNK     1      15.741   9.338  34.663  1.00  0.00     0.042 A 
HETATM   23  C12 UNK     1      15.722  10.741  34.851  1.00  0.00     0.027 A 
HETATM   24  C13 UNK     1      16.824  11.230  34.188  1.00  0.00     0.142 A 
HETATM   25  O3  UNK     1      17.519  10.217  33.606  1.00  0.00    -0.320 OA
ENDBRANCH   5  21
TORSDOF 4
ENDMDL
MODEL 3
REMARK VINA RESULT:      -9.1      2.923      9.037
REMARK  4 active torsions:
REMARK  status: ('A' for Active; 'I' for Inactive)
REMARK    1  A    between atoms: C14_20  and  O2_2 
REMARK    2  A    between atoms: C6_12  and  O2_2 
REMARK    3  A    between atoms: C10_16  and  C3_9 
REMARK    4  A    between atoms: C14_20  and  C15_21 
ROOT
HETATM    1  O1  UNK     1      17.824   9.094  33.816  1.00  0.00    -0.307 OA
HETATM    2  O4  UNK     1      15.058   7.526  31.268  1.00  0.00    -0.287 OA
HETATM    3  C1  UNK     1      17.222   7.377  32.207  1.00  0.00     0.051 A 
HETATM    4  C2  UNK     1      18.119   7.965  33.096  1.00  0.00     0.090 A 
HETATM    5  C3  UNK     1      16.577   9.678  33.645  1.00  0.00     0.113 A 
HETATM    6  C4  UNK     1      17.577   6.227  31.500  1.00  0.00     0.055 A 
HETATM    7  C5  UNK     1      15.896   7.990  32.029  1.00  0.00     0.187 A 
HETATM    8  C6  UNK     1      18.842   5.667  31.690  1.00  0.00     0.080 A 
HETATM    9  C7  UNK     1      19.382   7.403  33.284  1.00  0.00     0.041 A 
HETATM   10  C8  UNK     1      15.626   9.204  32.825  1.00  0.00     0.095 A 
HETATM   11  C9  UNK     1      19.742   6.253  32.580  1.00  0.00     0.040 A 
ENDROOT
BRANCH   8  12
HETATM   12  O2  UNK     1      19.198   4.545  31.006  1.00  0.00    -0.275 OA
BRANCH  12  13
HETATM   13  C14 UNK     1      18.495   3.396  31.377  1.00  0.00     0.300 C 
HETATM   14  O5  UNK     1      17.813   3.274  32.382  1.00  0.00    -0.259 OA
BRANCH  13  15
HETATM   15  C15 UNK     1      18.670   2.313  30.376  1.00  0.00     0.057 A 
HETATM   16  C16 UNK     1      19.447   1.221  30.679  1.00  0.00     0.020 A 
HETATM   17  C18 UNK     1      19.593   0.223  29.722  1.00  0.00     0.020 A 
HETATM   18  C19 UNK     1      18.942   0.386  28.510  1.00  0.00     0.116 A 
HETATM   19  N1  UNK     1      18.174   1.456  28.201  1.00  0.00    -0.272 NA
HETATM   20  C17 UNK     1      18.057   2.406  29.157  1.00  0.00     0.133 A 
ENDBRANCH  13  15
ENDBRANCH  12  13
ENDBRANCH   8  12
BRANCH   5  21
HETATM   21  C10 UNK     1      16.361  10.882  34.473  1.00  0.00     0.108 A 
HETATM   22  C11 UNK     1      17.191  11.981  34.603  1.00  0.00     0.042 A 
HETATM   23  C12 UNK     1      16.552  12.864  35.505  1.00  0.00     0.027 A 
HETATM   24  C13 UNK     1      15.375  12.254  35.870  1.00  0.00     0.142 A 
HETATM   25  O3  UNK     1      15.250  11.051  35.250  1.00  0.00    -0.320 OA
ENDBRANCH   5  21
TORSDOF 4
ENDMDL
MODEL 4
REMARK VINA RESULT:      -9.1      1.708      2.016
REMARK  4 active torsions:
REMARK  status: ('A' for Active; 'I' for Inactive)
REMARK    1  A    between atoms: C14_20  and  O2_2 
REMARK    2  A    between atoms: C6_12  and  O2_2 
REMARK    3  A    between atoms: C10_16  and  C3_9 
REMARK    4  A    between atoms: C14_20  and  C15_21 
ROOT
HETATM    1  O1  UNK     1      19.135   3.315  30.372  1.00  0.00    -0.307 OA
HETATM    2  O4  UNK     1      17.716   2.494  34.102  1.00  0.00    -0.287 OA
HETATM    3  C1  UNK     1      18.443   4.126  32.555  1.00  0.00     0.051 A 
HETATM    4  C2  UNK     1      18.924   4.336  31.264  1.00  0.00     0.090 A 
HETATM    5  C3  UNK     1      18.860   2.018  30.777  1.00  0.00     0.113 A 
HETATM    6  C4  UNK     1      18.248   5.204  33.421  1.00  0.00     0.055 A 
HETATM    7  C5  UNK     1      18.144   2.751  32.985  1.00  0.00     0.187 A 
HETATM    8  C6  UNK     1      18.539   6.497  32.984  1.00  0.00     0.080 A 
HETATM    9  C7  UNK     1      19.214   5.630  30.830  1.00  0.00     0.041 A 
HETATM   10  C8  UNK     1      18.388   1.688  31.990  1.00  0.00     0.095 A 
HETATM   11  C9  UNK     1      19.021   6.710  31.692  1.00  0.00     0.040 A 
ENDROOT
BRANCH   8  12
HETATM   12  O2  UNK     1      18.352   7.555  33.821  1.00  0.00    -0.275 OA
BRANCH  12  13
HETATM   13  C14 UNK     1      17.531   8.560  33.304  1.00  0.00     0.300 C 
HETATM   14  O5  UNK     1      17.866   9.717  33.102  1.00  0.00    -0.259 OA
BRANCH  13  15
HETATM   15  C15 UNK     1      16.170   8.043  33.010  1.00  0.00     0.057 A 
HETATM   16  C16 UNK     1      15.308   7.763  34.043  1.00  0.00     0.020 A 
HETATM   17  C18 UNK     1      14.040   7.280  33.737  1.00  0.00     0.020 A 
HETATM   18  C19 UNK     1      13.715   7.110  32.402  1.00  0.00     0.116 A 
HETATM   19  N1  UNK     1      14.555   7.383  31.377  1.00  0.00    -0.272 NA
HETATM   20  C17 UNK     1      15.779   7.850  31.713  1.00  0.00     0.133 A 
ENDBRANCH  13  15
ENDBRANCH  12  13
ENDBRANCH   8  12
BRANCH   5  21
HETATM   21  C10 UNK     1      19.114   0.999  29.739  1.00  0.00     0.108 A 
HETATM   22  C11 UNK     1      18.409   0.790  28.567  1.00  0.00     0.042 A 
HETATM   23  C12 UNK     1      19.033  -0.297  27.909  1.00  0.00     0.027 A 
HETATM   24  C13 UNK     1      20.077  -0.684  28.716  1.00  0.00     0.142 A 
HETATM   25  O3  UNK     1      20.135   0.095  29.828  1.00  0.00    -0.320 OA
ENDBRANCH   5  21
TORSDOF 4
ENDMDL
MODEL 5
REMARK VINA RESULT:      -9.0      7.214     11.268
REMARK  4 active torsions:
REMARK  status: ('A' for Active; 'I' for Inactive)
REMARK    1  A    between atoms: C14_20  and  O2_2 
REMARK    2  A    between atoms: C6_12  and  O2_2 
REMARK    3  A    between atoms: C10_16  and  C3_9 
REMARK    4  A    between atoms: C14_20  and  C15_21 
ROOT
HETATM    1  O1  UNK     1      18.901  -0.298  33.149  1.00  0.00    -0.307 OA
HETATM    2  O4  UNK     1      21.441  -3.443  32.642  1.00  0.00    -0.287 OA
HETATM    3  C1  UNK     1      20.042  -2.220  34.101  1.00  0.00     0.051 A 
HETATM    4  C2  UNK     1      19.182  -1.128  34.204  1.00  0.00     0.090 A 
HETATM    5  C3  UNK     1      19.506  -0.556  31.928  1.00  0.00     0.113 A 
HETATM    6  C4  UNK     1      20.291  -3.031  35.210  1.00  0.00     0.055 A 
HETATM    7  C5  UNK     1      20.679  -2.501  32.805  1.00  0.00     0.187 A 
HETATM    8  C6  UNK     1      19.671  -2.741  36.426  1.00  0.00     0.080 A 
HETATM    9  C7  UNK     1      18.564  -0.841  35.422  1.00  0.00     0.041 A 
HETATM   10  C8  UNK     1      20.346  -1.578  31.701  1.00  0.00     0.095 A 
HETATM   11  C9  UNK     1      18.809  -1.649  36.532  1.00  0.00     0.040 A 
ENDROOT
BRANCH   8  12
HETATM   12  O2  UNK     1      19.907  -3.526  37.514  1.00  0.00    -0.275 OA
BRANCH  12  13
HETATM   13  C14 UNK     1      19.685  -4.889  37.299  1.00  0.00     0.300 C 
HETATM   14  O5  UNK     1      18.824  -5.364  36.575  1.00  0.00    -0.259 OA
BRANCH  13  15
HETATM   15  C15 UNK     1      20.650  -5.717  38.067  1.00  0.00     0.057 A 
HETATM   16  C16 UNK     1      20.204  -6.810  38.770  1.00  0.00     0.020 A 
HETATM   17  C18 UNK     1      21.131  -7.566  39.480  1.00  0.00     0.020 A 
HETATM   18  C19 UNK     1      22.458  -7.173  39.437  1.00  0.00     0.116 A 
HETATM   19  N1  UNK     1      22.908  -6.100  38.748  1.00  0.00    -0.272 NA
HETATM   20  C17 UNK     1      21.978  -5.389  38.070  1.00  0.00     0.133 A 
ENDBRANCH  13  15
ENDBRANCH  12  13
ENDBRANCH   8  12
BRANCH   5  21
HETATM   21  C10 UNK     1      19.129   0.392  30.860  1.00  0.00     0.108 A 
HETATM   22  C11 UNK     1      19.442   0.321  29.515  1.00  0.00     0.042 A 
HETATM   23  C12 UNK     1      18.859   1.457  28.905  1.00  0.00     0.027 A 
HETATM   24  C13 UNK     1      18.228   2.150  29.911  1.00  0.00     0.142 A 
HETATM   25  O3  UNK     1      18.386   1.512  31.101  1.00  0.00    -0.320 OA
ENDBRANCH   5  21
TORSDOF 4
ENDMDL
MODEL 6
REMARK VINA RESULT:      -9.0      2.923      8.985
REMARK  4 active torsions:
REMARK  status: ('A' for Active; 'I' for Inactive)
REMARK    1  A    between atoms: C14_20  and  O2_2 
REMARK    2  A    between atoms: C6_12  and  O2_2 
REMARK    3  A    between atoms: C10_16  and  C3_9 
REMARK    4  A    between atoms: C14_20  and  C15_21 
ROOT
HETATM    1  O1  UNK     1      16.193   8.816  34.597  1.00  0.00    -0.307 OA
HETATM    2  O4  UNK     1      14.208   6.721  31.721  1.00  0.00    -0.287 OA
HETATM    3  C1  UNK     1      16.175   6.982  33.005  1.00  0.00     0.051 A 
HETATM    4  C2  UNK     1      16.795   7.741  33.995  1.00  0.00     0.090 A 
HETATM    5  C3  UNK     1      14.912   9.164  34.195  1.00  0.00     0.113 A 
HETATM    6  C4  UNK     1      16.837   5.896  32.427  1.00  0.00     0.055 A 
HETATM    7  C5  UNK     1      14.813   7.344  32.582  1.00  0.00     0.187 A 
HETATM    8  C6  UNK     1      18.128   5.575  32.849  1.00  0.00     0.080 A 
HETATM    9  C7  UNK     1      18.086   7.417  34.415  1.00  0.00     0.041 A 
HETATM   10  C8  UNK     1      14.209   8.509  33.258  1.00  0.00     0.095 A 
HETATM   11  C9  UNK     1      18.751   6.333  33.841  1.00  0.00     0.040 A 
ENDROOT
BRANCH   8  12
HETATM   12  O2  UNK     1      18.782   4.519  32.292  1.00  0.00    -0.275 OA
BRANCH  12  13
HETATM   13  C14 UNK     1      19.045   4.659  30.927  1.00  0.00     0.300 C 
HETATM   14  O5  UNK     1      19.450   5.675  30.382  1.00  0.00    -0.259 OA
BRANCH  13  15
HETATM   15  C15 UNK     1      18.779   3.394  30.196  1.00  0.00     0.057 A 
HETATM   16  C16 UNK     1      19.112   2.191  30.769  1.00  0.00     0.020 A 
HETATM   17  C18 UNK     1      18.851   1.023  30.059  1.00  0.00     0.020 A 
HETATM   18  C19 UNK     1      18.266   1.140  28.809  1.00  0.00     0.116 A 
HETATM   19  N1  UNK     1      17.935   2.320  28.236  1.00  0.00    -0.272 NA
HETATM   20  C17 UNK     1      18.203   3.432  28.955  1.00  0.00     0.133 A 
ENDBRANCH  13  15
ENDBRANCH  12  13
ENDBRANCH   8  12
BRANCH   5  21
HETATM   21  C10 UNK     1      14.356  10.330  34.912  1.00  0.00     0.108 A 
HETATM   22  C11 UNK     1      13.373  11.202  34.478  1.00  0.00     0.042 A 
HETATM   23  C12 UNK     1      13.189  12.149  35.513  1.00  0.00     0.027 A 
HETATM   24  C13 UNK     1      14.066  11.800  36.512  1.00  0.00     0.142 A 
HETATM   25  O3  UNK     1      14.779  10.698  36.158  1.00  0.00    -0.320 OA
ENDBRANCH   5  21
TORSDOF 4
ENDMDL
MODEL 7
REMARK VINA RESULT:      -9.0      6.423     10.695
REMARK  4 active torsions:
REMARK  status: ('A' for Active; 'I' for Inactive)
REMARK    1  A    between atoms: C14_20  and  O2_2 
REMARK    2  A    between atoms: C6_12  and  O2_2 
REMARK    3  A    between atoms: C10_16  and  C3_9 
REMARK    4  A    between atoms: C14_20  and  C15_21 
ROOT
HETATM    1  O1  UNK     1      18.751  -0.121  32.979  1.00  0.00    -0.307 OA
HETATM    2  O4  UNK     1      21.349  -3.219  32.477  1.00  0.00    -0.287 OA
HETATM    3  C1  UNK     1      19.922  -2.024  33.932  1.00  0.00     0.051 A 
HETATM    4  C2  UNK     1      19.042  -0.948  34.034  1.00  0.00     0.090 A 
HETATM    5  C3  UNK     1      19.365  -0.366  31.760  1.00  0.00     0.113 A 
HETATM    6  C4  UNK     1      20.181  -2.833  35.041  1.00  0.00     0.055 A 
HETATM    7  C5  UNK     1      20.569  -2.291  32.638  1.00  0.00     0.187 A 
HETATM    8  C6  UNK     1      19.552  -2.556  36.255  1.00  0.00     0.080 A 
HETATM    9  C7  UNK     1      18.415  -0.674  35.250  1.00  0.00     0.041 A 
HETATM   10  C8  UNK     1      20.223  -1.373  31.535  1.00  0.00     0.095 A 
HETATM   11  C9  UNK     1      18.671  -1.479  36.360  1.00  0.00     0.040 A 
ENDROOT
BRANCH   8  12
HETATM   12  O2  UNK     1      19.798  -3.338  37.342  1.00  0.00    -0.275 OA
BRANCH  12  13
HETATM   13  C14 UNK     1      20.423  -4.552  37.048  1.00  0.00     0.300 C 
HETATM   14  O5  UNK     1      21.609  -4.799  37.209  1.00  0.00    -0.259 OA
BRANCH  13  15
HETATM   15  C15 UNK     1      19.452  -5.540  36.511  1.00  0.00     0.057 A 
HETATM   16  C16 UNK     1      19.831  -6.391  35.502  1.00  0.00     0.020 A 
HETATM   17  C18 UNK     1      18.901  -7.305  35.019  1.00  0.00     0.020 A 
HETATM   18  C19 UNK     1      17.638  -7.307  35.588  1.00  0.00     0.116 A 
HETATM   19  N1  UNK     1      17.254  -6.474  36.582  1.00  0.00    -0.272 NA
HETATM   20  C17 UNK     1      18.186  -5.600  37.025  1.00  0.00     0.133 A 
ENDBRANCH  13  15
ENDBRANCH  12  13
ENDBRANCH   8  12
BRANCH   5  21
HETATM   21  C10 UNK     1      18.975   0.577  30.693  1.00  0.00     0.108 A 
HETATM   22  C11 UNK     1      19.250   0.487  29.340  1.00  0.00     0.042 A 
HETATM   23  C12 UNK     1      18.670   1.626  28.733  1.00  0.00     0.027 A 
HETATM   24  C13 UNK     1      18.077   2.340  29.748  1.00  0.00     0.142 A 
HETATM   25  O3  UNK     1      18.256   1.712  30.941  1.00  0.00    -0.320 OA
ENDBRANCH   5  21
TORSDOF 4
ENDMDL
MODEL 8
REMARK VINA RESULT:      -8.9      1.532      1.995
REMARK  4 active torsions:
REMARK  status: ('A' for Active; 'I' for Inactive)
REMARK    1  A    between atoms: C14_20  and  O2_2 
REMARK    2  A    between atoms: C6_12  and  O2_2 
REMARK    3  A    between atoms: C10_16  and  C3_9 
REMARK    4  A    between atoms: C14_20  and  C15_21 
ROOT
HETATM    1  O1  UNK     1      19.090   3.092  30.335  1.00  0.00    -0.307 OA
HETATM    2  O4  UNK     1      17.724   2.496  34.127  1.00  0.00    -0.287 OA
HETATM    3  C1  UNK     1      18.191   4.027  32.389  1.00  0.00     0.051 A 
HETATM    4  C2  UNK     1      18.668   4.159  31.086  1.00  0.00     0.090 A 
HETATM    5  C3  UNK     1      19.044   1.827  30.902  1.00  0.00     0.113 A 
HETATM    6  C4  UNK     1      17.775   5.150  33.107  1.00  0.00     0.055 A 
HETATM    7  C5  UNK     1      18.134   2.686  32.990  1.00  0.00     0.187 A 
HETATM    8  C6  UNK     1      17.839   6.410  32.509  1.00  0.00     0.080 A 
HETATM    9  C7  UNK     1      18.731   5.420  30.492  1.00  0.00     0.041 A 
HETATM   10  C8  UNK     1      18.600   1.570  32.142  1.00  0.00     0.095 A 
HETATM   11  C9  UNK     1      18.316   6.545  31.205  1.00  0.00     0.040 A 
ENDROOT
BRANCH   8  12
HETATM   12  O2  UNK     1      17.435   7.511  33.201  1.00  0.00    -0.275 OA
BRANCH  12  13
HETATM   13  C14 UNK     1      18.479   8.318  33.659  1.00  0.00     0.300 C 
HETATM   14  O5  UNK     1      19.626   7.950  33.861  1.00  0.00    -0.259 OA
BRANCH  13  15
HETATM   15  C15 UNK     1      18.025   9.716  33.871  1.00  0.00     0.057 A 
HETATM   16  C16 UNK     1      18.948  10.730  33.951  1.00  0.00     0.020 A 
HETATM   17  C18 UNK     1      18.493  12.029  34.150  1.00  0.00     0.020 A 
HETATM   18  C19 UNK     1      17.126  12.229  34.254  1.00  0.00     0.116 A 
HETATM   19  N1  UNK     1      16.208  11.238  34.176  1.00  0.00    -0.272 NA
HETATM   20  C17 UNK     1      16.689   9.989  33.983  1.00  0.00     0.133 A 
ENDBRANCH  13  15
ENDBRANCH  12  13
ENDBRANCH   8  12
BRANCH   5  21
HETATM   21  C10 UNK     1      19.513   0.751  30.006  1.00  0.00     0.108 A 
HETATM   22  C11 UNK     1      20.521  -0.167  30.239  1.00  0.00     0.042 A 
HETATM   23  C12 UNK     1      20.596  -0.986  29.088  1.00  0.00     0.027 A 
HETATM   24  C13 UNK     1      19.632  -0.520  28.224  1.00  0.00     0.142 A 
HETATM   25  O3  UNK     1      18.970   0.534  28.771  1.00  0.00    -0.320 OA
ENDBRANCH   5  21
TORSDOF 4
ENDMDL
MODEL 9
REMARK VINA RESULT:      -8.6      1.484      2.394
REMARK  4 active torsions:
REMARK  status: ('A' for Active; 'I' for Inactive)
REMARK    1  A    between atoms: C14_20  and  O2_2 
REMARK    2  A    between atoms: C6_12  and  O2_2 
REMARK    3  A    between atoms: C10_16  and  C3_9 
REMARK    4  A    between atoms: C14_20  and  C15_21 
ROOT
HETATM    1  O1  UNK     1      18.322   2.925  32.799  1.00  0.00    -0.307 OA
HETATM    2  O4  UNK     1      18.961   4.781  29.229  1.00  0.00    -0.287 OA
HETATM    3  C1  UNK     1      18.360   4.980  31.506  1.00  0.00     0.051 A 
HETATM    4  C2  UNK     1      18.160   4.283  32.695  1.00  0.00     0.090 A 
HETATM    5  C3  UNK     1      18.697   2.217  31.667  1.00  0.00     0.113 A 
HETATM    6  C4  UNK     1      18.180   6.364  31.458  1.00  0.00     0.055 A 
HETATM    7  C5  UNK     1      18.765   4.233  30.305  1.00  0.00     0.187 A 
HETATM    8  C6  UNK     1      17.797   7.047  32.614  1.00  0.00     0.080 A 
HETATM    9  C7  UNK     1      17.777   4.968  33.849  1.00  0.00     0.041 A 
HETATM   10  C8  UNK     1      18.926   2.774  30.468  1.00  0.00     0.095 A 
HETATM   11  C9  UNK     1      17.596   6.350  33.806  1.00  0.00     0.040 A 
ENDROOT
BRANCH   8  12
HETATM   12  O2  UNK     1      17.619   8.396  32.579  1.00  0.00    -0.275 OA
BRANCH  12  13
HETATM   13  C14 UNK     1      16.340   8.798  32.185  1.00  0.00     0.300 C 
HETATM   14  O5  UNK     1      15.809   8.533  31.118  1.00  0.00    -0.259 OA
BRANCH  13  15
HETATM   15  C15 UNK     1      15.678   9.597  33.248  1.00  0.00     0.057 A 
HETATM   16  C16 UNK     1      14.319   9.797  33.206  1.00  0.00     0.020 A 
HETATM   17  C18 UNK     1      13.727  10.550  34.214  1.00  0.00     0.020 A 
HETATM   18  C19 UNK     1      14.545  11.059  35.209  1.00  0.00     0.116 A 
HETATM   19  N1  UNK     1      15.883  10.868  35.260  1.00  0.00    -0.272 NA
HETATM   20  C17 UNK     1      16.422  10.131  34.263  1.00  0.00     0.133 A 
ENDBRANCH  13  15
ENDBRANCH  12  13
ENDBRANCH   8  12
BRANCH   5  21
HETATM   21  C10 UNK     1      18.851   0.765  31.892  1.00  0.00     0.108 A 
HETATM   22  C11 UNK     1      19.565  -0.140  31.127  1.00  0.00     0.042 A 
HETATM   23  C12 UNK     1      19.409  -1.403  31.745  1.00  0.00     0.027 A 
HETATM   24  C13 UNK     1      18.611  -1.194  32.846  1.00  0.00     0.142 A 
HETATM   25  O3  UNK     1      18.268   0.118  32.944  1.00  0.00    -0.320 OA
ENDBRANCH   5  21
TORSDOF 4
ENDMDL
MODEL 10
REMARK VINA RESULT:      -8.6      7.154     11.713
REMARK  4 active torsions:
REMARK  status: ('A' for Active; 'I' for Inactive)
REMARK    1  A    between atoms: C14_20  and  O2_2 
REMARK    2  A    between atoms: C6_12  and  O2_2 
REMARK    3  A    between atoms: C10_16  and  C3_9 
REMARK    4  A    between atoms: C14_20  and  C15_21 
ROOT
HETATM    1  O1  UNK     1      19.054   0.066  34.132  1.00  0.00    -0.307 OA
HETATM    2  O4  UNK     1      17.337   0.035  37.827  1.00  0.00    -0.287 OA
HETATM    3  C1  UNK     1      18.652  -1.099  36.225  1.00  0.00     0.051 A 
HETATM    4  C2  UNK     1      19.212  -1.022  34.952  1.00  0.00     0.090 A 
HETATM    5  C3  UNK     1      18.297   1.133  34.593  1.00  0.00     0.113 A 
HETATM    6  C4  UNK     1      18.847  -2.234  37.016  1.00  0.00     0.055 A 
HETATM    7  C5  UNK     1      17.855   0.034  36.719  1.00  0.00     0.187 A 
HETATM    8  C6  UNK     1      19.609  -3.293  36.521  1.00  0.00     0.080 A 
HETATM    9  C7  UNK     1      19.974  -2.083  34.460  1.00  0.00     0.041 A 
HETATM   10  C8  UNK     1      17.712   1.181  35.800  1.00  0.00     0.095 A 
HETATM   11  C9  UNK     1      20.171  -3.218  35.247  1.00  0.00     0.040 A 
ENDROOT
BRANCH   8  12
HETATM   12  O2  UNK     1      19.805  -4.404  37.285  1.00  0.00    -0.275 OA
BRANCH  12  13
HETATM   13  C14 UNK     1      19.210  -5.562  36.780  1.00  0.00     0.300 C 
HETATM   14  O5  UNK     1      18.025  -5.695  36.515  1.00  0.00    -0.259 OA
BRANCH  13  15
HETATM   15  C15 UNK     1      20.212  -6.641  36.587  1.00  0.00     0.057 A 
HETATM   16  C16 UNK     1      20.047  -7.555  35.574  1.00  0.00     0.020 A 
HETATM   17  C18 UNK     1      21.002  -8.554  35.419  1.00  0.00     0.020 A 
HETATM   18  C19 UNK     1      22.072  -8.571  36.298  1.00  0.00     0.116 A 
HETATM   19  N1  UNK     1      22.245  -7.676  37.297  1.00  0.00    -0.272 NA
HETATM   20  C17 UNK     1      21.297  -6.720  37.417  1.00  0.00     0.133 A 
ENDBRANCH  13  15
ENDBRANCH  12  13
ENDBRANCH   8  12
BRANCH   5  21
HETATM   21  C10 UNK     1      18.197   2.254  33.636  1.00  0.00     0.108 A 
HETATM   22  C11 UNK     1      18.309   3.607  33.901  1.00  0.00     0.042 A 
HETATM   23  C12 UNK     1      18.139   4.275  32.665  1.00  0.00     0.027 A 
HETATM   24  C13 UNK     1      17.934   3.294  31.724  1.00  0.00     0.142 A 
HETATM   25  O3  UNK     1      17.967   2.064  32.302  1.00  0.00    -0.320 OA
ENDBRANCH   5  21
TORSDOF 4
ENDMDL
