MODEL 1
REMARK VINA RESULT:      -7.9      0.000      0.000
REMARK  0 active torsions:
REMARK  status: ('A' for Active; 'I' for Inactive)
ROOT
HETATM    1  O1  UNK     1      20.643   6.715  32.554  1.00  0.00    -0.321 OA
HETATM    2  O2  UNK     1      17.032   9.125  34.662  1.00  0.00    -0.274 OA
HETATM    3  O3  UNK     1      15.276  10.234  35.619  1.00  0.00    -0.260 OA
HETATM    4  C1  UNK     1      18.513   6.355  31.895  1.00  0.00     0.007 A 
HETATM    5  C2  UNK     1      16.606   7.508  32.879  1.00  0.00     0.005 A 
HETATM    6  C3  UNK     1      19.341   7.063  32.758  1.00  0.00     0.094 A 
HETATM    7  C4  UNK     1      18.886   7.990  33.689  1.00  0.00     0.008 A 
HETATM    8  C5  UNK     1      17.499   8.183  33.716  1.00  0.00     0.099 A 
HETATM    9  C6  UNK     1      17.123   6.580  31.955  1.00  0.00     0.029 A 
HETATM   10  C7  UNK     1      19.375   5.529  31.125  1.00  0.00    -0.027 A 
HETATM   11  C8  UNK     1      15.169   7.799  33.004  1.00  0.00    -0.043 A 
HETATM   12  C9  UNK     1      19.802   8.732  34.599  1.00  0.00     0.054 C 
HETATM   13  C10 UNK     1      20.653   5.786  31.563  1.00  0.00     0.150 A 
HETATM   14  C11 UNK     1      14.760   8.697  33.911  1.00  0.00     0.090 A 
HETATM   15  C12 UNK     1      18.986   4.581  30.063  1.00  0.00     0.051 C 
HETATM   16  C13 UNK     1      14.182   7.092  32.120  1.00  0.00     0.049 C 
HETATM   17  C14 UNK     1      15.685   9.418  34.801  1.00  0.00     0.288 A 
ENDROOT
TORSDOF 0
ENDMDL
MODEL 2
REMARK VINA RESULT:      -7.6      5.899      7.785
REMARK  0 active torsions:
REMARK  status: ('A' for Active; 'I' for Inactive)
ROOT
HETATM    1  O1  UNK     1      18.339  -1.315  35.485  1.00  0.00    -0.321 OA
HETATM    2  O2  UNK     1      18.660   1.229  31.396  1.00  0.00    -0.274 OA
HETATM    3  O3  UNK     1      18.800   2.493  29.496  1.00  0.00    -0.260 OA
HETATM    4  C1  UNK     1      18.094   0.930  35.533  1.00  0.00     0.007 A 
HETATM    5  C2  UNK     1      18.233   2.324  33.540  1.00  0.00     0.005 A 
HETATM    6  C3  UNK     1      18.328  -0.180  34.730  1.00  0.00     0.094 A 
HETATM    7  C4  UNK     1      18.521  -0.119  33.354  1.00  0.00     0.008 A 
HETATM    8  C5  UNK     1      18.465   1.163  32.795  1.00  0.00     0.099 A 
HETATM    9  C6  UNK     1      18.045   2.203  34.930  1.00  0.00     0.029 A 
HETATM   10  C7  UNK     1      17.956   0.427  36.855  1.00  0.00    -0.027 A 
HETATM   11  C8  UNK     1      18.197   3.615  32.835  1.00  0.00    -0.043 A 
HETATM   12  C9  UNK     1      18.769  -1.330  32.523  1.00  0.00     0.054 C 
HETATM   13  C10 UNK     1      18.113  -0.936  36.770  1.00  0.00     0.150 A 
HETATM   14  C11 UNK     1      18.386   3.642  31.509  1.00  0.00     0.090 A 
HETATM   15  C12 UNK     1      17.696   1.205  38.081  1.00  0.00     0.051 C 
HETATM   16  C13 UNK     1      17.949   4.881  33.604  1.00  0.00     0.049 C 
HETATM   17  C14 UNK     1      18.632   2.431  30.709  1.00  0.00     0.288 A 
ENDROOT
TORSDOF 0
ENDMDL
MODEL 3
REMARK VINA RESULT:      -7.5      3.458      4.941
REMARK  0 active torsions:
REMARK  status: ('A' for Active; 'I' for Inactive)
ROOT
HETATM    1  O1  UNK     1      18.795   0.292  32.637  1.00  0.00    -0.321 OA
HETATM    2  O2  UNK     1      17.881   4.848  33.939  1.00  0.00    -0.274 OA
HETATM    3  O3  UNK     1      17.461   7.027  34.490  1.00  0.00    -0.260 OA
HETATM    4  C1  UNK     1      18.941   1.950  31.111  1.00  0.00     0.007 A 
HETATM    5  C2  UNK     1      18.505   4.287  31.643  1.00  0.00     0.005 A 
HETATM    6  C3  UNK     1      18.666   1.634  32.436  1.00  0.00     0.094 A 
HETATM    7  C4  UNK     1      18.311   2.568  33.402  1.00  0.00     0.008 A 
HETATM    8  C5  UNK     1      18.242   3.895  32.959  1.00  0.00     0.099 A 
HETATM    9  C6  UNK     1      18.860   3.298  30.706  1.00  0.00     0.029 A 
HETATM   10  C7  UNK     1      19.255   0.718  30.477  1.00  0.00    -0.027 A 
HETATM   11  C8  UNK     1      18.399   5.714  31.301  1.00  0.00    -0.043 A 
HETATM   12  C9  UNK     1      18.023   2.194  34.815  1.00  0.00     0.054 C 
HETATM   13  C10 UNK     1      19.152  -0.254  31.445  1.00  0.00     0.150 A 
HETATM   14  C11 UNK     1      18.055   6.591  32.254  1.00  0.00     0.090 A 
HETATM   15  C12 UNK     1      19.621   0.511  29.063  1.00  0.00     0.051 C 
HETATM   16  C13 UNK     1      18.676   6.171  29.897  1.00  0.00     0.049 C 
HETATM   17  C14 UNK     1      17.773   6.197  33.644  1.00  0.00     0.288 A 
ENDROOT
TORSDOF 0
ENDMDL
MODEL 4
REMARK VINA RESULT:      -7.4      0.994      4.986
REMARK  0 active torsions:
REMARK  status: ('A' for Active; 'I' for Inactive)
ROOT
HETATM    1  O1  UNK     1      16.278   8.068  34.814  1.00  0.00    -0.321 OA
HETATM    2  O2  UNK     1      20.625   6.709  33.218  1.00  0.00    -0.274 OA
HETATM    3  O3  UNK     1      22.654   6.043  32.401  1.00  0.00    -0.260 OA
HETATM    4  C1  UNK     1      16.486   7.146  32.764  1.00  0.00     0.007 A 
HETATM    5  C2  UNK     1      18.622   6.419  31.845  1.00  0.00     0.005 A 
HETATM    6  C3  UNK     1      17.157   7.543  33.915  1.00  0.00     0.094 A 
HETATM    7  C4  UNK     1      18.529   7.414  34.101  1.00  0.00     0.008 A 
HETATM    8  C5  UNK     1      19.229   6.842  33.032  1.00  0.00     0.099 A 
HETATM    9  C6  UNK     1      17.230   6.574  31.711  1.00  0.00     0.029 A 
HETATM   10  C7  UNK     1      15.118   7.454  32.989  1.00  0.00    -0.027 A 
HETATM   11  C8  UNK     1      19.468   5.832  30.794  1.00  0.00    -0.043 A 
HETATM   12  C9  UNK     1      19.215   7.850  35.349  1.00  0.00     0.054 C 
HETATM   13  C10 UNK     1      15.047   8.010  34.245  1.00  0.00     0.150 A 
HETATM   14  C11 UNK     1      20.787   5.721  31.003  1.00  0.00     0.090 A 
HETATM   15  C12 UNK     1      13.990   7.226  32.066  1.00  0.00     0.051 C 
HETATM   16  C13 UNK     1      18.850   5.366  29.507  1.00  0.00     0.049 C 
HETATM   17  C14 UNK     1      21.444   6.160  32.244  1.00  0.00     0.288 A 
ENDROOT
TORSDOF 0
ENDMDL
MODEL 5
REMARK VINA RESULT:      -7.4      4.322      6.704
REMARK  0 active torsions:
REMARK  status: ('A' for Active; 'I' for Inactive)
ROOT
HETATM    1  O1  UNK     1      18.298   5.579  31.009  1.00  0.00    -0.321 OA
HETATM    2  O2  UNK     1      18.427   0.857  31.994  1.00  0.00    -0.274 OA
HETATM    3  O3  UNK     1      18.485  -1.365  32.529  1.00  0.00    -0.260 OA
HETATM    4  C1  UNK     1      18.218   4.874  33.153  1.00  0.00     0.007 A 
HETATM    5  C2  UNK     1      18.277   2.521  33.779  1.00  0.00     0.005 A 
HETATM    6  C3  UNK     1      18.299   4.485  31.821  1.00  0.00     0.094 A 
HETATM    7  C4  UNK     1      18.369   3.162  31.399  1.00  0.00     0.008 A 
HETATM    8  C5  UNK     1      18.355   2.203  32.420  1.00  0.00     0.099 A 
HETATM    9  C6  UNK     1      18.207   3.877  34.149  1.00  0.00     0.029 A 
HETATM   10  C7  UNK     1      18.165   6.294  33.138  1.00  0.00    -0.027 A 
HETATM   11  C8  UNK     1      18.271   1.421  34.757  1.00  0.00    -0.043 A 
HETATM   12  C9  UNK     1      18.455   2.781  29.962  1.00  0.00     0.054 C 
HETATM   13  C10 UNK     1      18.217   6.670  31.815  1.00  0.00     0.150 A 
HETATM   14  C11 UNK     1      18.340   0.157  34.320  1.00  0.00     0.090 A 
HETATM   15  C12 UNK     1      18.074   7.195  34.302  1.00  0.00     0.051 C 
HETATM   16  C13 UNK     1      18.188   1.726  36.226  1.00  0.00     0.049 C 
HETATM   17  C14 UNK     1      18.423  -0.196  32.894  1.00  0.00     0.288 A 
ENDROOT
TORSDOF 0
ENDMDL
MODEL 6
REMARK VINA RESULT:      -7.2      2.041      5.650
REMARK  0 active torsions:
REMARK  status: ('A' for Active; 'I' for Inactive)
ROOT
HETATM    1  O1  UNK     1      14.435   9.906  33.235  1.00  0.00    -0.321 OA
HETATM    2  O2  UNK     1      16.603   5.720  32.204  1.00  0.00    -0.274 OA
HETATM    3  O3  UNK     1      17.691   3.764  31.737  1.00  0.00    -0.260 OA
HETATM    4  C1  UNK     1      16.651   9.667  33.598  1.00  0.00     0.007 A 
HETATM    5  C2  UNK     1      17.860   7.607  33.119  1.00  0.00     0.005 A 
HETATM    6  C3  UNK     1      15.490   9.049  33.147  1.00  0.00     0.094 A 
HETATM    7  C4  UNK     1      15.436   7.741  32.678  1.00  0.00     0.008 A 
HETATM    8  C5  UNK     1      16.654   7.050  32.681  1.00  0.00     0.099 A 
HETATM    9  C6  UNK     1      17.856   8.936  33.584  1.00  0.00     0.029 A 
HETATM   10  C7  UNK     1      16.265  10.980  33.981  1.00  0.00    -0.027 A 
HETATM   11  C8  UNK     1      19.074   6.778  33.071  1.00  0.00    -0.043 A 
HETATM   12  C9  UNK     1      14.174   7.110  32.202  1.00  0.00     0.054 C 
HETATM   13  C10 UNK     1      14.914  11.073  33.741  1.00  0.00     0.150 A 
HETATM   14  C11 UNK     1      18.990   5.521  32.614  1.00  0.00     0.090 A 
HETATM   15  C12 UNK     1      17.133  12.040  34.528  1.00  0.00     0.051 C 
HETATM   16  C13 UNK     1      20.387   7.344  33.533  1.00  0.00     0.049 C 
HETATM   17  C14 UNK     1      17.731   4.918  32.150  1.00  0.00     0.288 A 
ENDROOT
TORSDOF 0
ENDMDL
MODEL 7
REMARK VINA RESULT:      -7.2      4.009      5.999
REMARK  0 active torsions:
REMARK  status: ('A' for Active; 'I' for Inactive)
ROOT
HETATM    1  O1  UNK     1      18.276   0.281  33.023  1.00  0.00    -0.321 OA
HETATM    2  O2  UNK     1      18.912   4.352  30.511  1.00  0.00    -0.274 OA
HETATM    3  O3  UNK     1      19.202   6.317  29.380  1.00  0.00    -0.260 OA
HETATM    4  C1  UNK     1      18.118   2.280  34.061  1.00  0.00     0.007 A 
HETATM    5  C2  UNK     1      18.418   4.404  32.905  1.00  0.00     0.005 A 
HETATM    6  C3  UNK     1      18.349   1.631  32.854  1.00  0.00     0.094 A 
HETATM    7  C4  UNK     1      18.616   2.285  31.656  1.00  0.00     0.008 A 
HETATM    8  C5  UNK     1      18.641   3.683  31.727  1.00  0.00     0.099 A 
HETATM    9  C6  UNK     1      18.152   3.689  34.088  1.00  0.00     0.029 A 
HETATM   10  C7  UNK     1      17.892   1.252  35.015  1.00  0.00    -0.027 A 
HETATM   11  C8  UNK     1      18.470   5.873  32.850  1.00  0.00    -0.043 A 
HETATM   12  C9  UNK     1      18.859   1.557  30.380  1.00  0.00     0.054 C 
HETATM   13  C10 UNK     1      17.998   0.061  34.335  1.00  0.00     0.150 A 
HETATM   14  C11 UNK     1      18.730   6.475  31.681  1.00  0.00     0.090 A 
HETATM   15  C12 UNK     1      17.599   1.418  36.451  1.00  0.00     0.051 C 
HETATM   16  C13 UNK     1      18.233   6.678  34.095  1.00  0.00     0.049 C 
HETATM   17  C14 UNK     1      18.968   5.734  30.432  1.00  0.00     0.288 A 
ENDROOT
TORSDOF 0
ENDMDL
MODEL 8
REMARK VINA RESULT:      -7.1      8.113      9.833
REMARK  0 active torsions:
REMARK  status: ('A' for Active; 'I' for Inactive)
ROOT
HETATM    1  O1  UNK     1      20.549  -1.439  29.316  1.00  0.00    -0.321 OA
HETATM    2  O2  UNK     1      20.423  -3.047  33.864  1.00  0.00    -0.274 OA
HETATM    3  O3  UNK     1      20.325  -3.753  36.037  1.00  0.00    -0.260 OA
HETATM    4  C1  UNK     1      19.440  -0.265  30.894  1.00  0.00     0.007 A 
HETATM    5  C2  UNK     1      19.304  -0.971  33.223  1.00  0.00     0.005 A 
HETATM    6  C3  UNK     1      20.201  -1.399  30.633  1.00  0.00     0.094 A 
HETATM    7  C4  UNK     1      20.547  -2.344  31.592  1.00  0.00     0.008 A 
HETATM    8  C5  UNK     1      20.073  -2.089  32.886  1.00  0.00     0.099 A 
HETATM    9  C6  UNK     1      18.984  -0.046  32.210  1.00  0.00     0.029 A 
HETATM   10  C7  UNK     1      19.324   0.417  29.654  1.00  0.00    -0.027 A 
HETATM   11  C8  UNK     1      18.867  -0.814  34.619  1.00  0.00    -0.043 A 
HETATM   12  C9  UNK     1      21.365  -3.548  31.277  1.00  0.00     0.054 C 
HETATM   13  C10 UNK     1      20.013  -0.336  28.731  1.00  0.00     0.150 A 
HETATM   14  C11 UNK     1      19.215  -1.742  35.521  1.00  0.00     0.090 A 
HETATM   15  C12 UNK     1      18.611   1.681  29.395  1.00  0.00     0.051 C 
HETATM   16  C13 UNK     1      18.040   0.375  35.016  1.00  0.00     0.049 C 
HETATM   17  C14 UNK     1      20.024  -2.925  35.185  1.00  0.00     0.288 A 
ENDROOT
TORSDOF 0
ENDMDL
MODEL 9
REMARK VINA RESULT:      -7.1      4.134      6.914
REMARK  0 active torsions:
REMARK  status: ('A' for Active; 'I' for Inactive)
ROOT
HETATM    1  O1  UNK     1      17.870   5.142  34.111  1.00  0.00    -0.321 OA
HETATM    2  O2  UNK     1      18.808   0.492  33.225  1.00  0.00    -0.274 OA
HETATM    3  O3  UNK     1      19.256  -1.696  32.737  1.00  0.00    -0.260 OA
HETATM    4  C1  UNK     1      18.207   4.446  31.989  1.00  0.00     0.007 A 
HETATM    5  C2  UNK     1      18.688   2.128  31.413  1.00  0.00     0.005 A 
HETATM    6  C3  UNK     1      18.145   4.064  33.324  1.00  0.00     0.094 A 
HETATM    7  C4  UNK     1      18.339   2.762  33.772  1.00  0.00     0.008 A 
HETATM    8  C5  UNK     1      18.610   1.817  32.774  1.00  0.00     0.099 A 
HETATM    9  C6  UNK     1      18.482   3.463  31.017  1.00  0.00     0.029 A 
HETATM   10  C7  UNK     1      17.954   5.844  31.976  1.00  0.00    -0.027 A 
HETATM   11  C8  UNK     1      18.979   1.045  30.461  1.00  0.00    -0.043 A 
HETATM   12  C9  UNK     1      18.264   2.388  35.211  1.00  0.00     0.054 C 
HETATM   13  C10 UNK     1      17.756   6.215  33.285  1.00  0.00     0.150 A 
HETATM   14  C11 UNK     1      19.161  -0.200  30.922  1.00  0.00     0.090 A 
HETATM   15  C12 UNK     1      17.908   6.730  30.797  1.00  0.00     0.051 C 
HETATM   16  C13 UNK     1      19.068   1.343  28.991  1.00  0.00     0.049 C 
HETATM   17  C14 UNK     1      19.084  -0.546  32.350  1.00  0.00     0.288 A 
ENDROOT
TORSDOF 0
ENDMDL
MODEL 10
REMARK VINA RESULT:      -7.1      6.994      9.409
REMARK  0 active torsions:
REMARK  status: ('A' for Active; 'I' for Inactive)
ROOT
HETATM    1  O1  UNK     1      18.247  -0.313  36.183  1.00  0.00    -0.321 OA
HETATM    2  O2  UNK     1      18.749   1.088  31.592  1.00  0.00    -0.274 OA
HETATM    3  O3  UNK     1      19.020   1.691  29.403  1.00  0.00    -0.260 OA
HETATM    4  C1  UNK     1      19.261  -1.675  34.695  1.00  0.00     0.007 A 
HETATM    5  C2  UNK     1      19.576  -1.084  32.353  1.00  0.00     0.005 A 
HETATM    6  C3  UNK     1      18.638  -0.448  34.885  1.00  0.00     0.094 A 
HETATM    7  C4  UNK     1      18.450   0.494  33.879  1.00  0.00     0.008 A 
HETATM    8  C5  UNK     1      18.939   0.132  32.617  1.00  0.00     0.099 A 
HETATM    9  C6  UNK     1      19.739  -2.000  33.409  1.00  0.00     0.029 A 
HETATM   10  C7  UNK     1      19.242  -2.318  35.962  1.00  0.00    -0.027 A 
HETATM   11  C8  UNK     1      20.046  -1.346  30.984  1.00  0.00    -0.043 A 
HETATM   12  C9  UNK     1      17.777   1.801  34.118  1.00  0.00     0.054 C 
HETATM   13  C10 UNK     1      18.617  -1.450  36.827  1.00  0.00     0.150 A 
HETATM   14  C11 UNK     1      19.851  -0.420  30.036  1.00  0.00     0.090 A 
HETATM   15  C12 UNK     1      19.783  -3.649  36.295  1.00  0.00     0.051 C 
HETATM   16  C13 UNK     1      20.736  -2.642  30.664  1.00  0.00     0.049 C 
HETATM   17  C14 UNK     1      19.182   0.865  30.295  1.00  0.00     0.288 A 
ENDROOT
TORSDOF 0
ENDMDL
