MODEL 1
REMARK VINA RESULT:      -7.4      0.000      0.000
REMARK  2 active torsions:
REMARK  status: ('A' for Active; 'I' for Inactive)
REMARK    1  A    between atoms: C8_14  and  O2_5 
REMARK    2  A    between atoms: C10_16  and  C4_10 
ROOT
HETATM    1  O1  UNK     1      18.681  -0.176  33.060  1.00  0.00    -0.309 OA
HETATM    2  O3  UNK     1      21.237  -3.295  32.470  1.00  0.00    -0.287 OA
HETATM    3  C1  UNK     1      20.149  -1.403  31.562  1.00  0.00     0.048 A 
HETATM    4  C2  UNK     1      19.266  -0.358  31.832  1.00  0.00     0.092 A 
HETATM    5  C3  UNK     1      20.471  -2.356  32.636  1.00  0.00     0.187 A 
HETATM    6  C4  UNK     1      18.984  -1.072  34.073  1.00  0.00     0.111 A 
HETATM    7  C5  UNK     1      18.945   0.559  30.831  1.00  0.00     0.075 A 
HETATM    8  C6  UNK     1      20.715  -1.539  30.292  1.00  0.00     0.021 A 
HETATM    9  C7  UNK     1      19.816  -2.114  33.936  1.00  0.00     0.093 A 
HETATM   10  C8  UNK     1      19.508   0.427  29.561  1.00  0.00     0.070 A 
HETATM   11  C9  UNK     1      20.392  -0.621  29.293  1.00  0.00     0.038 A 
ENDROOT
BRANCH   6  12
HETATM   12  C10 UNK     1      18.288  -0.771  35.363  1.00  0.00     0.237 C 
HETATM   13 Cl1  UNK     1      16.532  -0.768  35.080  1.00  0.00    -0.076 Cl
HETATM   14 Cl2  UNK     1      18.699  -2.015  36.570  1.00  0.00    -0.076 Cl
HETATM   15 Cl3  UNK     1      18.802   0.824  35.965  1.00  0.00    -0.076 Cl
ENDBRANCH   6  12
BRANCH  10  16
HETATM   16  O2  UNK     1      19.195   1.318  28.582  1.00  0.00    -0.356 OA
HETATM   17  C11 UNK     1      17.911   1.936  28.652  1.00  0.00     0.210 C 
ENDBRANCH  10  16
TORSDOF 2
ENDMDL
MODEL 2
REMARK VINA RESULT:      -7.0      1.660      2.481
REMARK  2 active torsions:
REMARK  status: ('A' for Active; 'I' for Inactive)
REMARK    1  A    between atoms: C8_14  and  O2_5 
REMARK    2  A    between atoms: C10_16  and  C4_10 
ROOT
HETATM    1  O1  UNK     1      18.516  -0.305  33.740  1.00  0.00    -0.309 OA
HETATM    2  O3  UNK     1      20.721  -3.233  35.520  1.00  0.00    -0.287 OA
HETATM    3  C1  UNK     1      20.087  -2.145  33.519  1.00  0.00     0.048 A 
HETATM    4  C2  UNK     1      19.308  -1.125  32.976  1.00  0.00     0.092 A 
HETATM    5  C3  UNK     1      20.063  -2.358  34.975  1.00  0.00     0.187 A 
HETATM    6  C4  UNK     1      18.493  -0.503  35.111  1.00  0.00     0.111 A 
HETATM    7  C5  UNK     1      19.313  -0.902  31.598  1.00  0.00     0.075 A 
HETATM    8  C6  UNK     1      20.875  -2.950  32.692  1.00  0.00     0.021 A 
HETATM    9  C7  UNK     1      19.196  -1.449  35.750  1.00  0.00     0.093 A 
HETATM   10  C8  UNK     1      20.099  -1.704  30.769  1.00  0.00     0.070 A 
HETATM   11  C9  UNK     1      20.878  -2.725  31.316  1.00  0.00     0.038 A 
ENDROOT
BRANCH   6  12
HETATM   12  C10 UNK     1      17.595   0.450  35.837  1.00  0.00     0.237 C 
HETATM   13 Cl1  UNK     1      18.183   2.108  35.569  1.00  0.00    -0.076 Cl
HETATM   14 Cl2  UNK     1      15.932   0.296  35.221  1.00  0.00    -0.076 Cl
HETATM   15 Cl3  UNK     1      17.614   0.081  37.579  1.00  0.00    -0.076 Cl
ENDBRANCH   6  12
BRANCH  10  16
HETATM   16  O2  UNK     1      20.105  -1.491  29.425  1.00  0.00    -0.356 OA
HETATM   17  C11 UNK     1      20.021  -0.137  28.981  1.00  0.00     0.210 C 
ENDBRANCH  10  16
TORSDOF 2
ENDMDL
MODEL 3
REMARK VINA RESULT:      -6.7     24.977     26.799
REMARK  2 active torsions:
REMARK  status: ('A' for Active; 'I' for Inactive)
REMARK    1  A    between atoms: C8_14  and  O2_5 
REMARK    2  A    between atoms: C10_16  and  C4_10 
ROOT
HETATM    1  O1  UNK     1      11.425   7.773   9.369  1.00  0.00    -0.309 OA
HETATM    2  O3  UNK     1      12.035   6.224   5.650  1.00  0.00    -0.287 OA
HETATM    3  C1  UNK     1      10.490   6.846   7.327  1.00  0.00     0.048 A 
HETATM    4  C2  UNK     1      10.353   7.383   8.607  1.00  0.00     0.092 A 
HETATM    5  C3  UNK     1      11.840   6.688   6.765  1.00  0.00     0.187 A 
HETATM    6  C4  UNK     1      12.697   7.625   8.841  1.00  0.00     0.111 A 
HETATM    7  C5  UNK     1       9.083   7.544   9.163  1.00  0.00     0.075 A 
HETATM    8  C6  UNK     1       9.362   6.466   6.596  1.00  0.00     0.021 A 
HETATM    9  C7  UNK     1      12.957   7.123   7.626  1.00  0.00     0.093 A 
HETATM   10  C8  UNK     1       7.954   7.166   8.436  1.00  0.00     0.070 A 
HETATM   11  C9  UNK     1       8.094   6.628   7.155  1.00  0.00     0.038 A 
ENDROOT
BRANCH   6  12
HETATM   12  C10 UNK     1      13.784   8.085   9.763  1.00  0.00     0.237 C 
HETATM   13 Cl1  UNK     1      14.796   9.272   8.908  1.00  0.00    -0.076 Cl
HETATM   14 Cl2  UNK     1      13.067   8.837  11.209  1.00  0.00    -0.076 Cl
HETATM   15 Cl3  UNK     1      14.779   6.693  10.256  1.00  0.00    -0.076 Cl
ENDBRANCH   6  12
BRANCH  10  16
HETATM   16  O2  UNK     1       6.715   7.320   8.976  1.00  0.00    -0.356 OA
HETATM   17  C11 UNK     1       6.647   7.705  10.348  1.00  0.00     0.210 C 
ENDBRANCH  10  16
TORSDOF 2
ENDMDL
MODEL 4
REMARK VINA RESULT:      -6.7      8.688     10.546
REMARK  2 active torsions:
REMARK  status: ('A' for Active; 'I' for Inactive)
REMARK    1  A    between atoms: C8_14  and  O2_5 
REMARK    2  A    between atoms: C10_16  and  C4_10 
ROOT
HETATM    1  O1  UNK     1      17.568   7.931  33.033  1.00  0.00    -0.309 OA
HETATM    2  O3  UNK     1      13.812   6.874  31.857  1.00  0.00    -0.287 OA
HETATM    3  C1  UNK     1      15.179   8.375  33.068  1.00  0.00     0.048 A 
HETATM    4  C2  UNK     1      16.490   8.680  33.434  1.00  0.00     0.092 A 
HETATM    5  C3  UNK     1      14.934   7.201  32.216  1.00  0.00     0.187 A 
HETATM    6  C4  UNK     1      17.340   6.825  32.231  1.00  0.00     0.111 A 
HETATM    7  C5  UNK     1      16.749   9.789  34.241  1.00  0.00     0.075 A 
HETATM    8  C6  UNK     1      14.120   9.174  33.505  1.00  0.00     0.021 A 
HETATM    9  C7  UNK     1      16.128   6.431  31.814  1.00  0.00     0.093 A 
HETATM   10  C8  UNK     1      15.693  10.589  34.680  1.00  0.00     0.070 A 
HETATM   11  C9  UNK     1      14.381  10.281  34.313  1.00  0.00     0.038 A 
ENDROOT
BRANCH   6  12
HETATM   12  C10 UNK     1      18.589   6.089  31.858  1.00  0.00     0.237 C 
HETATM   13 Cl1  UNK     1      18.383   4.369  32.262  1.00  0.00    -0.076 Cl
HETATM   14 Cl2  UNK     1      18.890   6.263  30.112  1.00  0.00    -0.076 Cl
HETATM   15 Cl3  UNK     1      19.970   6.757  32.763  1.00  0.00    -0.076 Cl
ENDBRANCH   6  12
BRANCH  10  16
HETATM   16  O2  UNK     1      15.942  11.670  35.468  1.00  0.00    -0.356 OA
HETATM   17  C11 UNK     1      16.973  12.559  35.043  1.00  0.00     0.210 C 
ENDBRANCH  10  16
TORSDOF 2
ENDMDL
MODEL 5
REMARK VINA RESULT:      -6.7      4.413      6.555
REMARK  2 active torsions:
REMARK  status: ('A' for Active; 'I' for Inactive)
REMARK    1  A    between atoms: C8_14  and  O2_5 
REMARK    2  A    between atoms: C10_16  and  C4_10 
ROOT
HETATM    1  O1  UNK     1      18.258   4.064  33.828  1.00  0.00    -0.309 OA
HETATM    2  O3  UNK     1      18.420   1.214  30.920  1.00  0.00    -0.287 OA
HETATM    3  C1  UNK     1      18.349   1.711  33.230  1.00  0.00     0.048 A 
HETATM    4  C2  UNK     1      18.293   2.736  34.173  1.00  0.00     0.092 A 
HETATM    5  C3  UNK     1      18.372   2.061  31.801  1.00  0.00     0.187 A 
HETATM    6  C4  UNK     1      18.278   4.396  32.484  1.00  0.00     0.111 A 
HETATM    7  C5  UNK     1      18.270   2.430  35.535  1.00  0.00     0.075 A 
HETATM    8  C6  UNK     1      18.383   0.375  33.639  1.00  0.00     0.021 A 
HETATM    9  C7  UNK     1      18.331   3.502  31.485  1.00  0.00     0.093 A 
HETATM   10  C8  UNK     1      18.304   1.098  35.947  1.00  0.00     0.070 A 
HETATM   11  C9  UNK     1      18.360   0.073  35.001  1.00  0.00     0.038 A 
ENDROOT
BRANCH   6  12
HETATM   12  C10 UNK     1      18.235   5.870  32.231  1.00  0.00     0.237 C 
HETATM   13 Cl1  UNK     1      18.721   6.179  30.548  1.00  0.00    -0.076 Cl
HETATM   14 Cl2  UNK     1      16.582   6.477  32.500  1.00  0.00    -0.076 Cl
HETATM   15 Cl3  UNK     1      19.354   6.701  33.340  1.00  0.00    -0.076 Cl
ENDBRANCH   6  12
BRANCH  10  16
HETATM   16  O2  UNK     1      18.283   0.796  37.274  1.00  0.00    -0.356 OA
HETATM   17  C11 UNK     1      17.855  -0.516  37.635  1.00  0.00     0.210 C 
ENDBRANCH  10  16
TORSDOF 2
ENDMDL
MODEL 6
REMARK VINA RESULT:      -6.6     12.069     14.095
REMARK  2 active torsions:
REMARK  status: ('A' for Active; 'I' for Inactive)
REMARK    1  A    between atoms: C8_14  and  O2_5 
REMARK    2  A    between atoms: C10_16  and  C4_10 
ROOT
HETATM    1  O1  UNK     1      28.995  -8.126  38.376  1.00  0.00    -0.309 OA
HETATM    2  O3  UNK     1      28.052  -4.205  38.963  1.00  0.00    -0.287 OA
HETATM    3  C1  UNK     1      29.732  -5.818  38.553  1.00  0.00     0.048 A 
HETATM    4  C2  UNK     1      29.985  -7.175  38.359  1.00  0.00     0.092 A 
HETATM    5  C3  UNK     1      28.347  -5.379  38.786  1.00  0.00     0.187 A 
HETATM    6  C4  UNK     1      27.690  -7.716  38.594  1.00  0.00     0.111 A 
HETATM    7  C5  UNK     1      31.289  -7.617  38.136  1.00  0.00     0.075 A 
HETATM    8  C6  UNK     1      30.779  -4.893  38.526  1.00  0.00     0.021 A 
HETATM    9  C7  UNK     1      27.322  -6.442  38.793  1.00  0.00     0.093 A 
HETATM   10  C8  UNK     1      32.338  -6.697  38.108  1.00  0.00     0.070 A 
HETATM   11  C9  UNK     1      32.083  -5.338  38.303  1.00  0.00     0.038 A 
ENDROOT
BRANCH   6  12
HETATM   12  C10 UNK     1      26.702  -8.839  38.589  1.00  0.00     0.237 C 
HETATM   13 Cl1  UNK     1      25.078  -8.176  38.888  1.00  0.00    -0.076 Cl
HETATM   14 Cl2  UNK     1      26.732  -9.659  37.008  1.00  0.00    -0.076 Cl
HETATM   15 Cl3  UNK     1      27.117 -10.009  39.866  1.00  0.00    -0.076 Cl
ENDBRANCH   6  12
BRANCH  10  16
HETATM   16  O2  UNK     1      33.612  -7.124  37.892  1.00  0.00    -0.356 OA
HETATM   17  C11 UNK     1      34.524  -6.186  37.326  1.00  0.00     0.210 C 
ENDBRANCH  10  16
TORSDOF 2
ENDMDL
MODEL 7
REMARK VINA RESULT:      -6.5      3.595      4.846
REMARK  2 active torsions:
REMARK  status: ('A' for Active; 'I' for Inactive)
REMARK    1  A    between atoms: C8_14  and  O2_5 
REMARK    2  A    between atoms: C10_16  and  C4_10 
ROOT
HETATM    1  O1  UNK     1      18.001   2.835  33.436  1.00  0.00    -0.309 OA
HETATM    2  O3  UNK     1      19.333   1.434  29.849  1.00  0.00    -0.287 OA
HETATM    3  C1  UNK     1      18.667   3.295  31.145  1.00  0.00     0.048 A 
HETATM    4  C2  UNK     1      18.212   3.707  32.397  1.00  0.00     0.092 A 
HETATM    5  C3  UNK     1      18.933   1.865  30.922  1.00  0.00     0.187 A 
HETATM    6  C4  UNK     1      18.251   1.489  33.228  1.00  0.00     0.111 A 
HETATM    7  C5  UNK     1      17.953   5.057  32.636  1.00  0.00     0.075 A 
HETATM    8  C6  UNK     1      18.865   4.227  30.124  1.00  0.00     0.021 A 
HETATM    9  C7  UNK     1      18.690   0.972  32.071  1.00  0.00     0.093 A 
HETATM   10  C8  UNK     1      18.150   5.991  31.618  1.00  0.00     0.070 A 
HETATM   11  C9  UNK     1      18.604   5.577  30.365  1.00  0.00     0.038 A 
ENDROOT
BRANCH   6  12
HETATM   12  C10 UNK     1      17.986   0.639  34.431  1.00  0.00     0.237 C 
HETATM   13 Cl1  UNK     1      18.746   1.398  35.849  1.00  0.00    -0.076 Cl
HETATM   14 Cl2  UNK     1      16.229   0.502  34.693  1.00  0.00    -0.076 Cl
HETATM   15 Cl3  UNK     1      18.671  -0.986  34.180  1.00  0.00    -0.076 Cl
ENDBRANCH   6  12
BRANCH  10  16
HETATM   16  O2  UNK     1      17.896   7.309  31.846  1.00  0.00    -0.356 OA
HETATM   17  C11 UNK     1      16.574   7.772  31.576  1.00  0.00     0.210 C 
ENDBRANCH  10  16
TORSDOF 2
ENDMDL
MODEL 8
REMARK VINA RESULT:      -6.4     24.035     25.151
REMARK  2 active torsions:
REMARK  status: ('A' for Active; 'I' for Inactive)
REMARK    1  A    between atoms: C8_14  and  O2_5 
REMARK    2  A    between atoms: C10_16  and  C4_10 
ROOT
HETATM    1  O1  UNK     1      13.375   7.493   9.008  1.00  0.00    -0.309 OA
HETATM    2  O3  UNK     1      15.703   4.223   9.713  1.00  0.00    -0.287 OA
HETATM    3  C1  UNK     1      15.536   6.580   9.640  1.00  0.00     0.048 A 
HETATM    4  C2  UNK     1      14.685   7.655   9.384  1.00  0.00     0.092 A 
HETATM    5  C3  UNK     1      15.013   5.212   9.504  1.00  0.00     0.187 A 
HETATM    6  C4  UNK     1      12.880   6.206   8.880  1.00  0.00     0.111 A 
HETATM    7  C5  UNK     1      15.157   8.962   9.507  1.00  0.00     0.075 A 
HETATM    8  C6  UNK     1      16.862   6.804  10.020  1.00  0.00     0.021 A 
HETATM    9  C7  UNK     1      13.599   5.095   9.098  1.00  0.00     0.093 A 
HETATM   10  C8  UNK     1      16.480   9.190   9.886  1.00  0.00     0.070 A 
HETATM   11  C9  UNK     1      17.331   8.113  10.141  1.00  0.00     0.038 A 
ENDROOT
BRANCH   6  12
HETATM   12  C10 UNK     1      11.443   6.157   8.467  1.00  0.00     0.237 C 
HETATM   13 Cl1  UNK     1      10.611   4.916   9.434  1.00  0.00    -0.076 Cl
HETATM   14 Cl2  UNK     1      10.683   7.743   8.746  1.00  0.00    -0.076 Cl
HETATM   15 Cl3  UNK     1      11.329   5.746   6.738  1.00  0.00    -0.076 Cl
ENDBRANCH   6  12
BRANCH  10  16
HETATM   16  O2  UNK     1      16.943  10.464  10.005  1.00  0.00    -0.356 OA
HETATM   17  C11 UNK     1      17.812  10.938   8.977  1.00  0.00     0.210 C 
ENDBRANCH  10  16
TORSDOF 2
ENDMDL
MODEL 9
REMARK VINA RESULT:      -6.4     13.136     13.639
REMARK  2 active torsions:
REMARK  status: ('A' for Active; 'I' for Inactive)
REMARK    1  A    between atoms: C8_14  and  O2_5 
REMARK    2  A    between atoms: C10_16  and  C4_10 
ROOT
HETATM    1  O1  UNK     1      29.978  -6.822  37.121  1.00  0.00    -0.309 OA
HETATM    2  O3  UNK     1      29.423  -3.768  39.761  1.00  0.00    -0.287 OA
HETATM    3  C1  UNK     1      30.490  -4.546  37.800  1.00  0.00     0.048 A 
HETATM    4  C2  UNK     1      30.634  -5.631  36.936  1.00  0.00     0.092 A 
HETATM    5  C3  UNK     1      29.597  -4.678  38.963  1.00  0.00     0.187 A 
HETATM    6  C4  UNK     1      29.136  -6.948  38.214  1.00  0.00     0.111 A 
HETATM    7  C5  UNK     1      31.474  -5.531  35.826  1.00  0.00     0.075 A 
HETATM    8  C6  UNK     1      31.183  -3.357  37.563  1.00  0.00     0.021 A 
HETATM    9  C7  UNK     1      28.916  -5.979  39.114  1.00  0.00     0.093 A 
HETATM   10  C8  UNK     1      32.168  -4.345  35.586  1.00  0.00     0.070 A 
HETATM   11  C9  UNK     1      32.022  -3.260  36.453  1.00  0.00     0.038 A 
ENDROOT
BRANCH   6  12
HETATM   12  C10 UNK     1      28.478  -8.288  38.310  1.00  0.00     0.237 C 
HETATM   13 Cl1  UNK     1      27.371  -8.483  36.930  1.00  0.00    -0.076 Cl
HETATM   14 Cl2  UNK     1      29.714  -9.569  38.272  1.00  0.00    -0.076 Cl
HETATM   15 Cl3  UNK     1      27.562  -8.399  39.834  1.00  0.00    -0.076 Cl
ENDBRANCH   6  12
BRANCH  10  16
HETATM   16  O2  UNK     1      32.989  -4.245  34.505  1.00  0.00    -0.356 OA
HETATM   17  C11 UNK     1      34.388  -4.128  34.761  1.00  0.00     0.210 C 
ENDBRANCH  10  16
TORSDOF 2
ENDMDL
MODEL 10
REMARK VINA RESULT:      -6.4     10.079     11.740
REMARK  2 active torsions:
REMARK  status: ('A' for Active; 'I' for Inactive)
REMARK    1  A    between atoms: C8_14  and  O2_5 
REMARK    2  A    between atoms: C10_16  and  C4_10 
ROOT
HETATM    1  O1  UNK     1      24.695  -8.988  37.193  1.00  0.00    -0.309 OA
HETATM    2  O3  UNK     1      24.493 -12.572  35.264  1.00  0.00    -0.287 OA
HETATM    3  C1  UNK     1      23.364 -10.625  35.988  1.00  0.00     0.048 A 
HETATM    4  C2  UNK     1      23.503  -9.412  36.660  1.00  0.00     0.092 A 
HETATM    5  C3  UNK     1      24.542 -11.495  35.841  1.00  0.00     0.187 A 
HETATM    6  C4  UNK     1      25.805  -9.804  37.055  1.00  0.00     0.111 A 
HETATM    7  C5  UNK     1      22.401  -8.569  36.812  1.00  0.00     0.075 A 
HETATM    8  C6  UNK     1      22.126 -11.006  35.465  1.00  0.00     0.021 A 
HETATM    9  C7  UNK     1      25.798 -10.991  36.432  1.00  0.00     0.093 A 
HETATM   10  C8  UNK     1      21.163  -8.945  36.292  1.00  0.00     0.070 A 
HETATM   11  C9  UNK     1      21.026 -10.162  35.620  1.00  0.00     0.038 A 
ENDROOT
BRANCH   6  12
HETATM   12  C10 UNK     1      27.044  -9.237  37.674  1.00  0.00     0.237 C 
HETATM   13 Cl1  UNK     1      26.730  -7.550  38.144  1.00  0.00    -0.076 Cl
HETATM   14 Cl2  UNK     1      27.485 -10.188  39.114  1.00  0.00    -0.076 Cl
HETATM   15 Cl3  UNK     1      28.382  -9.293  36.500  1.00  0.00    -0.076 Cl
ENDBRANCH   6  12
BRANCH  10  16
HETATM   16  O2  UNK     1      20.086  -8.127  36.440  1.00  0.00    -0.356 OA
HETATM   17  C11 UNK     1      18.831  -8.747  36.718  1.00  0.00     0.210 C 
ENDBRANCH  10  16
TORSDOF 2
ENDMDL
