MODEL 1
REMARK VINA RESULT:      -7.7      0.000      0.000
REMARK  3 active torsions:
REMARK  status: ('A' for Active; 'I' for Inactive)
REMARK    1  A    between atoms: C11_16  and  O2_2 
REMARK    2  A    between atoms: C3_8  and  O2_2 
REMARK       I    between atoms: C10_15  and  N1_5 
REMARK    3  A    between atoms: C10_15  and  C5_10 
ROOT
HETATM    1  O1  UNK     1      18.846   0.519  32.245  1.00  0.00    -0.271 OA
HETATM    2  O3  UNK     1      17.957   2.618  32.386  1.00  0.00    -0.259 OA
HETATM    3  C1  UNK     1      19.883  -0.209  30.170  1.00  0.00     0.002 A 
HETATM    4  C2  UNK     1      19.511  -0.464  31.486  1.00  0.00     0.123 A 
HETATM    5  C3  UNK     1      19.777  -1.687  32.100  1.00  0.00     0.103 A 
HETATM    6  C4  UNK     1      19.573   1.089  29.591  1.00  0.00     0.037 A 
HETATM    7  C5  UNK     1      18.941   2.018  30.316  1.00  0.00     0.108 A 
HETATM    8  C6  UNK     1      20.541  -1.209  29.449  1.00  0.00     0.014 A 
HETATM    9  C7  UNK     1      20.434  -2.678  31.374  1.00  0.00     0.040 A 
HETATM   10  C8  UNK     1      20.815  -2.440  30.052  1.00  0.00     0.004 A 
HETATM   11  C9  UNK     1      18.536   1.769  31.718  1.00  0.00     0.304 A 
ENDROOT
BRANCH   7  12
HETATM   12  C10 UNK     1      18.674   3.296  29.644  1.00  0.00     0.257 C 
HETATM   13  O4  UNK     1      18.019   3.337  28.605  1.00  0.00    -0.267 OA
HETATM   14  N1  UNK     1      19.231   4.377  30.303  1.00  0.00    -0.361 N 
HETATM   15  C13 UNK     1      19.105   5.737  29.830  1.00  0.00     0.149 C 
HETATM   16  H10 UNK     1      19.718   4.244  31.183  1.00  0.00     0.162 HD
ENDBRANCH   7  12
BRANCH   5  17
HETATM   17  O2  UNK     1      19.408  -1.923  33.387  1.00  0.00    -0.349 OA
BRANCH  17  18
HETATM   18  C11 UNK     1      20.368  -2.554  34.234  1.00  0.00     0.171 C 
HETATM   19  C12 UNK     1      20.052  -2.216  35.675  1.00  0.00     0.034 C 
ENDBRANCH  17  18
ENDBRANCH   5  17
TORSDOF 3
ENDMDL
MODEL 2
REMARK VINA RESULT:      -7.6      2.555      5.108
REMARK  3 active torsions:
REMARK  status: ('A' for Active; 'I' for Inactive)
REMARK    1  A    between atoms: C11_16  and  O2_2 
REMARK    2  A    between atoms: C3_8  and  O2_2 
REMARK       I    between atoms: C10_15  and  N1_5 
REMARK    3  A    between atoms: C10_15  and  C5_10 
ROOT
HETATM    1  O1  UNK     1      18.726   0.896  31.913  1.00  0.00    -0.271 OA
HETATM    2  O3  UNK     1      17.624   1.957  33.609  1.00  0.00    -0.259 OA
HETATM    3  C1  UNK     1      19.533  -1.374  32.240  1.00  0.00     0.002 A 
HETATM    4  C2  UNK     1      19.387  -0.251  31.431  1.00  0.00     0.123 A 
HETATM    5  C3  UNK     1      19.882  -0.215  30.129  1.00  0.00     0.103 A 
HETATM    6  C4  UNK     1      18.992  -1.343  33.590  1.00  0.00     0.037 A 
HETATM    7  C5  UNK     1      18.365  -0.251  34.041  1.00  0.00     0.108 A 
HETATM    8  C6  UNK     1      20.195  -2.492  31.727  1.00  0.00     0.014 A 
HETATM    9  C7  UNK     1      20.541  -1.335  29.626  1.00  0.00     0.040 A 
HETATM   10  C8  UNK     1      20.697  -2.471  30.423  1.00  0.00     0.004 A 
HETATM   11  C9  UNK     1      18.198   0.954  33.199  1.00  0.00     0.304 A 
ENDROOT
BRANCH   7  12
HETATM   12  C10 UNK     1      17.854  -0.318  35.416  1.00  0.00     0.257 C 
HETATM   13  O4  UNK     1      17.230  -1.301  35.810  1.00  0.00    -0.267 OA
HETATM   14  N1  UNK     1      18.154   0.811  36.156  1.00  0.00    -0.361 N 
HETATM   15  C13 UNK     1      17.754   0.978  37.535  1.00  0.00     0.149 C 
HETATM   16  H10 UNK     1      18.716   1.553  35.753  1.00  0.00     0.162 HD
ENDBRANCH   7  12
BRANCH   5  17
HETATM   17  O2  UNK     1      19.732   0.889  29.350  1.00  0.00    -0.349 OA
BRANCH  17  18
HETATM   18  C11 UNK     1      18.596   0.928  28.487  1.00  0.00     0.171 C 
HETATM   19  C12 UNK     1      17.857   2.231  28.702  1.00  0.00     0.034 C 
ENDBRANCH  17  18
ENDBRANCH   5  17
TORSDOF 3
ENDMDL
MODEL 3
REMARK VINA RESULT:      -7.4      2.456      5.818
REMARK  3 active torsions:
REMARK  status: ('A' for Active; 'I' for Inactive)
REMARK    1  A    between atoms: C11_16  and  O2_2 
REMARK    2  A    between atoms: C3_8  and  O2_2 
REMARK       I    between atoms: C10_15  and  N1_5 
REMARK    3  A    between atoms: C10_15  and  C5_10 
ROOT
HETATM    1  O1  UNK     1      18.580   0.010  32.555  1.00  0.00    -0.271 OA
HETATM    2  O3  UNK     1      18.148  -0.572  34.721  1.00  0.00    -0.259 OA
HETATM    3  C1  UNK     1      20.212  -1.258  31.274  1.00  0.00     0.002 A 
HETATM    4  C2  UNK     1      19.289  -0.220  31.359  1.00  0.00     0.123 A 
HETATM    5  C3  UNK     1      19.032   0.625  30.281  1.00  0.00     0.103 A 
HETATM    6  C4  UNK     1      20.432  -2.101  32.438  1.00  0.00     0.037 A 
HETATM    7  C5  UNK     1      19.756  -1.878  33.570  1.00  0.00     0.108 A 
HETATM    8  C6  UNK     1      20.896  -1.454  30.071  1.00  0.00     0.014 A 
HETATM    9  C7  UNK     1      19.719   0.422  29.086  1.00  0.00     0.040 A 
HETATM   10  C8  UNK     1      20.648  -0.615  28.980  1.00  0.00     0.004 A 
HETATM   11  C9  UNK     1      18.770  -0.780  33.685  1.00  0.00     0.304 A 
ENDROOT
BRANCH   7  12
HETATM   12  C10 UNK     1      20.047  -2.783  34.690  1.00  0.00     0.257 C 
HETATM   13  O4  UNK     1      20.391  -3.945  34.488  1.00  0.00    -0.267 OA
HETATM   14  N1  UNK     1      19.887  -2.179  35.924  1.00  0.00    -0.361 N 
HETATM   15  C13 UNK     1      20.115  -2.870  37.173  1.00  0.00     0.149 C 
HETATM   16  H10 UNK     1      19.643  -1.196  35.985  1.00  0.00     0.162 HD
ENDBRANCH   7  12
BRANCH   5  17
HETATM   17  O2  UNK     1      18.128   1.635  30.378  1.00  0.00    -0.349 OA
BRANCH  17  18
HETATM   18  C11 UNK     1      18.358   2.794  29.577  1.00  0.00     0.171 C 
HETATM   19  C12 UNK     1      18.909   3.898  30.453  1.00  0.00     0.034 C 
ENDBRANCH  17  18
ENDBRANCH   5  17
TORSDOF 3
ENDMDL
MODEL 4
REMARK VINA RESULT:      -7.3     22.690     25.066
REMARK  3 active torsions:
REMARK  status: ('A' for Active; 'I' for Inactive)
REMARK    1  A    between atoms: C11_16  and  O2_2 
REMARK    2  A    between atoms: C3_8  and  O2_2 
REMARK       I    between atoms: C10_15  and  N1_5 
REMARK    3  A    between atoms: C10_15  and  C5_10 
ROOT
HETATM    1  O1  UNK     1      11.324   7.258   9.521  1.00  0.00    -0.271 OA
HETATM    2  O3  UNK     1      13.052   7.519  10.992  1.00  0.00    -0.259 OA
HETATM    3  C1  UNK     1      11.759   6.347   7.309  1.00  0.00     0.002 A 
HETATM    4  C2  UNK     1      10.869   6.855   8.250  1.00  0.00     0.123 A 
HETATM    5  C3  UNK     1       9.508   6.986   7.978  1.00  0.00     0.103 A 
HETATM    6  C4  UNK     1      13.166   6.239   7.659  1.00  0.00     0.037 A 
HETATM    7  C5  UNK     1      13.593   6.623   8.867  1.00  0.00     0.108 A 
HETATM    8  C6  UNK     1      11.269   5.959   6.059  1.00  0.00     0.014 A 
HETATM    9  C7  UNK     1       9.028   6.596   6.730  1.00  0.00     0.040 A 
HETATM   10  C8  UNK     1       9.906   6.083   5.772  1.00  0.00     0.004 A 
HETATM   11  C9  UNK     1      12.665   7.166   9.884  1.00  0.00     0.304 A 
ENDROOT
BRANCH   7  12
HETATM   12  C10 UNK     1      15.031   6.474   9.125  1.00  0.00     0.257 C 
HETATM   13  O4  UNK     1      15.621   5.438   8.827  1.00  0.00    -0.267 OA
HETATM   14  N1  UNK     1      15.589   7.594   9.715  1.00  0.00    -0.361 N 
HETATM   15  C13 UNK     1      16.989   7.683  10.066  1.00  0.00     0.149 C 
HETATM   16  H10 UNK     1      15.025   8.420   9.880  1.00  0.00     0.162 HD
ENDBRANCH   7  12
BRANCH   5  17
HETATM   17  O2  UNK     1       8.650   7.484   8.907  1.00  0.00    -0.349 OA
BRANCH  17  18
HETATM   18  C11 UNK     1       7.501   6.697   9.221  1.00  0.00     0.171 C 
HETATM   19  C12 UNK     1       7.926   5.521  10.074  1.00  0.00     0.034 C 
ENDBRANCH  17  18
ENDBRANCH   5  17
TORSDOF 3
ENDMDL
MODEL 5
REMARK VINA RESULT:      -7.1      4.350      8.109
REMARK  3 active torsions:
REMARK  status: ('A' for Active; 'I' for Inactive)
REMARK    1  A    between atoms: C11_16  and  O2_2 
REMARK    2  A    between atoms: C3_8  and  O2_2 
REMARK       I    between atoms: C10_15  and  N1_5 
REMARK    3  A    between atoms: C10_15  and  C5_10 
ROOT
HETATM    1  O1  UNK     1      19.490  -0.995  34.772  1.00  0.00    -0.271 OA
HETATM    2  O3  UNK     1      20.505  -2.947  34.160  1.00  0.00    -0.259 OA
HETATM    3  C1  UNK     1      18.436  -0.823  36.957  1.00  0.00     0.002 A 
HETATM    4  C2  UNK     1      18.775  -0.253  35.734  1.00  0.00     0.123 A 
HETATM    5  C3  UNK     1      18.424   1.057  35.412  1.00  0.00     0.103 A 
HETATM    6  C4  UNK     1      18.833  -2.196  37.227  1.00  0.00     0.037 A 
HETATM    7  C5  UNK     1      19.513  -2.895  36.311  1.00  0.00     0.108 A 
HETATM    8  C6  UNK     1      17.726  -0.056  37.884  1.00  0.00     0.014 A 
HETATM    9  C7  UNK     1      17.716   1.814  36.343  1.00  0.00     0.040 A 
HETATM   10  C8  UNK     1      17.368   1.260  37.576  1.00  0.00     0.004 A 
HETATM   11  C9  UNK     1      19.883  -2.310  35.002  1.00  0.00     0.304 A 
ENDROOT
BRANCH   7  12
HETATM   12  C10 UNK     1      19.868  -4.272  36.677  1.00  0.00     0.257 C 
HETATM   13  O4  UNK     1      21.026  -4.571  36.957  1.00  0.00    -0.267 OA
HETATM   14  N1  UNK     1      18.783  -5.129  36.660  1.00  0.00    -0.361 N 
HETATM   15  C13 UNK     1      18.885  -6.535  36.982  1.00  0.00     0.149 C 
HETATM   16  H10 UNK     1      17.853  -4.775  36.459  1.00  0.00     0.162 HD
ENDBRANCH   7  12
BRANCH   5  17
HETATM   17  O2  UNK     1      18.761   1.601  34.212  1.00  0.00    -0.349 OA
BRANCH  17  18
HETATM   18  C11 UNK     1      18.271   2.912  33.932  1.00  0.00     0.171 C 
HETATM   19  C12 UNK     1      18.125   3.074  32.434  1.00  0.00     0.034 C 
ENDBRANCH  17  18
ENDBRANCH   5  17
TORSDOF 3
ENDMDL
MODEL 6
REMARK VINA RESULT:      -7.0      2.744      6.355
REMARK  3 active torsions:
REMARK  status: ('A' for Active; 'I' for Inactive)
REMARK    1  A    between atoms: C11_16  and  O2_2 
REMARK    2  A    between atoms: C3_8  and  O2_2 
REMARK       I    between atoms: C10_15  and  N1_5 
REMARK    3  A    between atoms: C10_15  and  C5_10 
ROOT
HETATM    1  O1  UNK     1      17.969   3.263  32.826  1.00  0.00    -0.271 OA
HETATM    2  O3  UNK     1      18.110   1.013  33.192  1.00  0.00    -0.259 OA
HETATM    3  C1  UNK     1      18.783   4.193  30.732  1.00  0.00     0.002 A 
HETATM    4  C2  UNK     1      18.197   4.368  31.982  1.00  0.00     0.123 A 
HETATM    5  C3  UNK     1      17.819   5.627  32.446  1.00  0.00     0.103 A 
HETATM    6  C4  UNK     1      19.154   2.851  30.311  1.00  0.00     0.037 A 
HETATM    7  C5  UNK     1      18.933   1.806  31.117  1.00  0.00     0.108 A 
HETATM    8  C6  UNK     1      18.994   5.313  29.924  1.00  0.00     0.014 A 
HETATM    9  C7  UNK     1      18.034   6.738  31.633  1.00  0.00     0.040 A 
HETATM   10  C8  UNK     1      18.619   6.582  30.375  1.00  0.00     0.004 A 
HETATM   11  C9  UNK     1      18.313   1.968  32.451  1.00  0.00     0.304 A 
ENDROOT
BRANCH   7  12
HETATM   12  C10 UNK     1      19.342   0.492  30.603  1.00  0.00     0.257 C 
HETATM   13  O4  UNK     1      19.120   0.175  29.437  1.00  0.00    -0.267 OA
HETATM   14  N1  UNK     1      19.970  -0.286  31.558  1.00  0.00    -0.361 N 
HETATM   15  C13 UNK     1      20.460  -1.620  31.288  1.00  0.00     0.149 C 
HETATM   16  H10 UNK     1      20.149   0.085  32.485  1.00  0.00     0.162 HD
ENDBRANCH   7  12
BRANCH   5  17
HETATM   17  O2  UNK     1      17.249   5.784  33.669  1.00  0.00    -0.349 OA
BRANCH  17  18
HETATM   18  C11 UNK     1      16.497   6.977  33.889  1.00  0.00     0.171 C 
HETATM   19  C12 UNK     1      17.022   7.670  35.128  1.00  0.00     0.034 C 
ENDBRANCH  17  18
ENDBRANCH   5  17
TORSDOF 3
ENDMDL
MODEL 7
REMARK VINA RESULT:      -7.0      2.673      4.226
REMARK  3 active torsions:
REMARK  status: ('A' for Active; 'I' for Inactive)
REMARK    1  A    between atoms: C11_16  and  O2_2 
REMARK    2  A    between atoms: C3_8  and  O2_2 
REMARK       I    between atoms: C10_15  and  N1_5 
REMARK    3  A    between atoms: C10_15  and  C5_10 
ROOT
HETATM    1  O1  UNK     1      18.203   1.778  32.216  1.00  0.00    -0.271 OA
HETATM    2  O3  UNK     1      18.141   3.434  30.645  1.00  0.00    -0.259 OA
HETATM    3  C1  UNK     1      18.345   2.362  34.572  1.00  0.00     0.002 A 
HETATM    4  C2  UNK     1      18.273   1.398  33.572  1.00  0.00     0.123 A 
HETATM    5  C3  UNK     1      18.269   0.036  33.864  1.00  0.00     0.103 A 
HETATM    6  C4  UNK     1      18.346   3.767  34.196  1.00  0.00     0.037 A 
HETATM    7  C5  UNK     1      18.279   4.121  32.908  1.00  0.00     0.108 A 
HETATM    8  C6  UNK     1      18.414   1.947  35.904  1.00  0.00     0.014 A 
HETATM    9  C7  UNK     1      18.338  -0.369  35.195  1.00  0.00     0.040 A 
HETATM   10  C8  UNK     1      18.410   0.583  36.213  1.00  0.00     0.004 A 
HETATM   11  C9  UNK     1      18.202   3.114  31.826  1.00  0.00     0.304 A 
ENDROOT
BRANCH   7  12
HETATM   12  C10 UNK     1      18.285   5.563  32.630  1.00  0.00     0.257 C 
HETATM   13  O4  UNK     1      19.298   6.236  32.810  1.00  0.00    -0.267 OA
HETATM   14  N1  UNK     1      17.066   6.027  32.169  1.00  0.00    -0.361 N 
HETATM   15  C13 UNK     1      16.828   7.412  31.831  1.00  0.00     0.149 C 
HETATM   16  H10 UNK     1      16.300   5.381  32.010  1.00  0.00     0.162 HD
ENDBRANCH   7  12
BRANCH   5  17
HETATM   17  O2  UNK     1      18.200  -0.896  32.876  1.00  0.00    -0.349 OA
BRANCH  17  18
HETATM   18  C11 UNK     1      19.393  -1.621  32.579  1.00  0.00     0.171 C 
HETATM   19  C12 UNK     1      19.946  -1.140  31.255  1.00  0.00     0.034 C 
ENDBRANCH  17  18
ENDBRANCH   5  17
TORSDOF 3
ENDMDL
MODEL 8
REMARK VINA RESULT:      -6.9      6.734     10.002
REMARK  3 active torsions:
REMARK  status: ('A' for Active; 'I' for Inactive)
REMARK    1  A    between atoms: C11_16  and  O2_2 
REMARK    2  A    between atoms: C3_8  and  O2_2 
REMARK       I    between atoms: C10_15  and  N1_5 
REMARK    3  A    between atoms: C10_15  and  C5_10 
ROOT
HETATM    1  O1  UNK     1      18.906  -7.263  37.733  1.00  0.00    -0.271 OA
HETATM    2  O3  UNK     1      17.623  -5.879  36.446  1.00  0.00    -0.259 OA
HETATM    3  C1  UNK     1      21.111  -6.532  38.452  1.00  0.00     0.002 A 
HETATM    4  C2  UNK     1      20.108  -7.497  38.429  1.00  0.00     0.123 A 
HETATM    5  C3  UNK     1      20.250  -8.719  39.084  1.00  0.00     0.103 A 
HETATM    6  C4  UNK     1      20.896  -5.279  37.747  1.00  0.00     0.037 A 
HETATM    7  C5  UNK     1      19.752  -5.062  37.088  1.00  0.00     0.108 A 
HETATM    8  C6  UNK     1      22.289  -6.802  39.153  1.00  0.00     0.014 A 
HETATM    9  C7  UNK     1      21.429  -8.979  39.780  1.00  0.00     0.040 A 
HETATM   10  C8  UNK     1      22.446  -8.023  39.815  1.00  0.00     0.004 A 
HETATM   11  C9  UNK     1      18.672  -6.073  37.049  1.00  0.00     0.304 A 
ENDROOT
BRANCH   7  12
HETATM   12  C10 UNK     1      19.631  -3.766  36.408  1.00  0.00     0.257 C 
HETATM   13  O4  UNK     1      20.473  -3.401  35.592  1.00  0.00    -0.267 OA
HETATM   14  N1  UNK     1      18.506  -3.060  36.795  1.00  0.00    -0.361 N 
HETATM   15  C13 UNK     1      18.174  -1.757  36.265  1.00  0.00     0.149 C 
HETATM   16  H10 UNK     1      17.843  -3.469  37.445  1.00  0.00     0.162 HD
ENDBRANCH   7  12
BRANCH   5  17
HETATM   17  O2  UNK     1      19.263  -9.653  39.052  1.00  0.00    -0.349 OA
BRANCH  17  18
HETATM   18  C11 UNK     1      19.596 -10.935  38.519  1.00  0.00     0.171 C 
HETATM   19  C12 UNK     1      19.721 -10.826  37.015  1.00  0.00     0.034 C 
ENDBRANCH  17  18
ENDBRANCH   5  17
TORSDOF 3
ENDMDL
MODEL 9
REMARK VINA RESULT:      -6.9      5.391      8.262
REMARK  3 active torsions:
REMARK  status: ('A' for Active; 'I' for Inactive)
REMARK    1  A    between atoms: C11_16  and  O2_2 
REMARK    2  A    between atoms: C3_8  and  O2_2 
REMARK       I    between atoms: C10_15  and  N1_5 
REMARK    3  A    between atoms: C10_15  and  C5_10 
ROOT
HETATM    1  O1  UNK     1      15.646   6.396  32.340  1.00  0.00    -0.271 OA
HETATM    2  O3  UNK     1      13.501   7.177  32.421  1.00  0.00    -0.259 OA
HETATM    3  C1  UNK     1      17.451   7.751  33.244  1.00  0.00     0.002 A 
HETATM    4  C2  UNK     1      17.013   6.587  32.621  1.00  0.00     0.123 A 
HETATM    5  C3  UNK     1      17.897   5.574  32.253  1.00  0.00     0.103 A 
HETATM    6  C4  UNK     1      16.474   8.768  33.601  1.00  0.00     0.037 A 
HETATM    7  C5  UNK     1      15.177   8.581  33.332  1.00  0.00     0.108 A 
HETATM    8  C6  UNK     1      18.815   7.903  33.505  1.00  0.00     0.014 A 
HETATM    9  C7  UNK     1      19.255   5.734  32.517  1.00  0.00     0.040 A 
HETATM   10  C8  UNK     1      19.714   6.896  33.142  1.00  0.00     0.004 A 
HETATM   11  C9  UNK     1      14.688   7.351  32.669  1.00  0.00     0.304 A 
ENDROOT
BRANCH   7  12
HETATM   12  C10 UNK     1      14.269   9.665  33.730  1.00  0.00     0.257 C 
HETATM   13  O4  UNK     1      14.178  10.011  34.906  1.00  0.00    -0.267 OA
HETATM   14  N1  UNK     1      13.575  10.203  32.662  1.00  0.00    -0.361 N 
HETATM   15  C13 UNK     1      12.621  11.280  32.807  1.00  0.00     0.149 C 
HETATM   16  H10 UNK     1      13.754   9.878  31.719  1.00  0.00     0.162 HD
ENDBRANCH   7  12
BRANCH   5  17
HETATM   17  O2  UNK     1      17.456   4.441  31.644  1.00  0.00    -0.349 OA
BRANCH  17  18
HETATM   18  C11 UNK     1      18.343   3.323  31.626  1.00  0.00     0.171 C 
HETATM   19  C12 UNK     1      18.464   2.812  30.207  1.00  0.00     0.034 C 
ENDBRANCH  17  18
ENDBRANCH   5  17
TORSDOF 3
ENDMDL
MODEL 10
REMARK VINA RESULT:      -6.8      7.182      9.934
REMARK  3 active torsions:
REMARK  status: ('A' for Active; 'I' for Inactive)
REMARK    1  A    between atoms: C11_16  and  O2_2 
REMARK    2  A    between atoms: C3_8  and  O2_2 
REMARK       I    between atoms: C10_15  and  N1_5 
REMARK    3  A    between atoms: C10_15  and  C5_10 
ROOT
HETATM    1  O1  UNK     1      20.474  -7.139  35.812  1.00  0.00    -0.271 OA
HETATM    2  O3  UNK     1      20.305  -5.137  34.726  1.00  0.00    -0.259 OA
HETATM    3  C1  UNK     1      20.100  -7.239  38.212  1.00  0.00     0.002 A 
HETATM    4  C2  UNK     1      20.405  -7.873  37.012  1.00  0.00     0.123 A 
HETATM    5  C3  UNK     1      20.653  -9.243  36.948  1.00  0.00     0.103 A 
HETATM    6  C4  UNK     1      19.852  -5.805  38.206  1.00  0.00     0.037 A 
HETATM    7  C5  UNK     1      19.919  -5.114  37.064  1.00  0.00     0.108 A 
HETATM    8  C6  UNK     1      20.041  -8.001  39.382  1.00  0.00     0.014 A 
HETATM    9  C7  UNK     1      20.593  -9.995  38.119  1.00  0.00     0.040 A 
HETATM   10  C8  UNK     1      20.287  -9.376  39.333  1.00  0.00     0.004 A 
HETATM   11  C9  UNK     1      20.242  -5.767  35.775  1.00  0.00     0.304 A 
ENDROOT
BRANCH   7  12
HETATM   12  C10 UNK     1      19.653  -3.673  37.161  1.00  0.00     0.257 C 
HETATM   13  O4  UNK     1      20.489  -2.908  37.636  1.00  0.00    -0.267 OA
HETATM   14  N1  UNK     1      18.406  -3.323  36.675  1.00  0.00    -0.361 N 
HETATM   15  C13 UNK     1      17.918  -1.962  36.668  1.00  0.00     0.149 C 
HETATM   16  H10 UNK     1      17.803  -4.025  36.259  1.00  0.00     0.162 HD
ENDBRANCH   7  12
BRANCH   5  17
HETATM   17  O2  UNK     1      20.951  -9.850  35.769  1.00  0.00    -0.349 OA
BRANCH  17  18
HETATM   18  C11 UNK     1      21.553 -11.143  35.836  1.00  0.00     0.171 C 
HETATM   19  C12 UNK     1      23.054 -10.996  35.711  1.00  0.00     0.034 C 
ENDBRANCH  17  18
ENDBRANCH   5  17
TORSDOF 3
ENDMDL
