MODEL 1
REMARK VINA RESULT:      -9.9      0.000      0.000
REMARK  10 active torsions:
REMARK  status: ('A' for Active; 'I' for Inactive)
REMARK    1  A    between atoms: C16_27  and  O2_2 
REMARK    2  A    between atoms: C2_13  and  O2_2 
REMARK    3  A    between atoms: C8_19  and  O4_4 
REMARK    4  A    between atoms: C11_22  and  O5_5 
REMARK    5  A    between atoms: C19_30  and  O5_5 
REMARK    6  A    between atoms: C12_23  and  O6_6 
REMARK    7  A    between atoms: C18_29  and  O6_6 
REMARK    8  A    between atoms: C15_26  and  O7_7 
REMARK    9  A    between atoms: C20_31  and  O7_7 
REMARK   10  A    between atoms: C1_12  and  C3_14 
ROOT
HETATM    1  O1  UNK     1      18.272   3.490  33.692  1.00  0.00    -0.337 OA
HETATM    2  O3  UNK     1      18.765   3.726  29.625  1.00  0.00    -0.289 OA
HETATM    3  C1  UNK     1      18.060   2.347  32.847  1.00  0.00     0.199 C 
HETATM    4  C2  UNK     1      18.973   2.386  31.621  1.00  0.00     0.240 C 
HETATM    5  C4  UNK     1      18.690   3.655  30.846  1.00  0.00     0.197 C 
HETATM    6  C5  UNK     1      18.347   4.837  31.660  1.00  0.00     0.079 A 
HETATM    7  C6  UNK     1      18.174   4.689  33.038  1.00  0.00     0.089 A 
HETATM    8  C8  UNK     1      18.225   6.095  31.064  1.00  0.00     0.085 A 
HETATM    9  C10 UNK     1      17.912   5.810  33.827  1.00  0.00     0.075 A 
HETATM   10  C11 UNK     1      17.793   7.067  33.235  1.00  0.00     0.084 A 
HETATM   11  C13 UNK     1      17.945   7.209  31.856  1.00  0.00     0.075 A 
ENDROOT
BRANCH   3  12
HETATM   12  C3  UNK     1      18.307   1.112  33.693  1.00  0.00    -0.023 A 
HETATM   13  C7  UNK     1      18.450   1.230  35.076  1.00  0.00     0.050 A 
HETATM   14  C12 UNK     1      18.676   0.094  35.853  1.00  0.00     0.113 A 
HETATM   15  C15 UNK     1      18.760  -1.160  35.248  1.00  0.00     0.113 A 
HETATM   16  C14 UNK     1      18.617  -1.278  33.865  1.00  0.00     0.041 A 
HETATM   17  C9  UNK     1      18.391  -0.142  33.088  1.00  0.00     0.013 A 
BRANCH  14  18
HETATM   18  O6  UNK     1      18.814   0.222  37.203  1.00  0.00    -0.276 OA
BRANCH  18  19
HETATM   19  C18 UNK     1      17.721   0.837  37.834  1.00  0.00     0.260 C 
HETATM   20  O9  UNK     1      17.786   1.636  38.759  1.00  0.00    -0.265 OA
HETATM   21  C21 UNK     1      16.439   0.368  37.213  1.00  0.00     0.126 C 
ENDBRANCH  18  19
ENDBRANCH  14  18
BRANCH  15  22
HETATM   22  O7  UNK     1      18.981  -2.277  35.996  1.00  0.00    -0.276 OA
BRANCH  22  23
HETATM   23  C20 UNK     1      20.339  -2.582  36.182  1.00  0.00     0.260 C 
HETATM   24  O11 UNK     1      21.271  -2.120  35.539  1.00  0.00    -0.265 OA
HETATM   25  C23 UNK     1      20.493  -3.573  37.297  1.00  0.00     0.126 C 
ENDBRANCH  22  23
ENDBRANCH  15  22
ENDBRANCH   3  12
BRANCH   4  26
HETATM   26  O2  UNK     1      18.704   1.282  30.776  1.00  0.00    -0.305 OA
BRANCH  26  27
HETATM   27  C16 UNK     1      19.799   0.601  30.312  1.00  0.00     0.255 C 
HETATM   28  O8  UNK     1      20.795   0.317  30.963  1.00  0.00    -0.266 OA
HETATM   29  C17 UNK     1      19.607   0.242  28.869  1.00  0.00     0.126 C 
ENDBRANCH  26  27
ENDBRANCH   4  26
BRANCH  10  30
HETATM   30  O5  UNK     1      17.529   8.159  34.005  1.00  0.00    -0.279 OA
BRANCH  30  31
HETATM   31  C19 UNK     1      18.484   9.183  33.894  1.00  0.00     0.260 C 
HETATM   32  O10 UNK     1      18.296  10.286  33.397  1.00  0.00    -0.265 OA
HETATM   33  C22 UNK     1      19.791   8.731  34.474  1.00  0.00     0.126 C 
ENDBRANCH  30  31
ENDBRANCH  10  30
BRANCH   8  34
HETATM   34  O4  UNK     1      18.382   6.294  29.725  1.00  0.00    -0.360 OA
HETATM   35  H8  UNK     1      17.955   5.585  29.222  1.00  0.00     0.217 HD
ENDBRANCH   8  34
TORSDOF 10
ENDMDL
MODEL 2
REMARK VINA RESULT:      -9.7      1.838      8.030
REMARK  10 active torsions:
REMARK  status: ('A' for Active; 'I' for Inactive)
REMARK    1  A    between atoms: C16_27  and  O2_2 
REMARK    2  A    between atoms: C2_13  and  O2_2 
REMARK    3  A    between atoms: C8_19  and  O4_4 
REMARK    4  A    between atoms: C11_22  and  O5_5 
REMARK    5  A    between atoms: C19_30  and  O5_5 
REMARK    6  A    between atoms: C12_23  and  O6_6 
REMARK    7  A    between atoms: C18_29  and  O6_6 
REMARK    8  A    between atoms: C15_26  and  O7_7 
REMARK    9  A    between atoms: C20_31  and  O7_7 
REMARK   10  A    between atoms: C1_12  and  C3_14 
ROOT
HETATM    1  O1  UNK     1      17.723   3.400  34.052  1.00  0.00    -0.337 OA
HETATM    2  O3  UNK     1      19.182   1.205  30.907  1.00  0.00    -0.289 OA
HETATM    3  C1  UNK     1      18.614   3.982  33.087  1.00  0.00     0.199 C 
HETATM    4  C2  UNK     1      18.424   3.352  31.706  1.00  0.00     0.240 C 
HETATM    5  C4  UNK     1      18.684   1.865  31.811  1.00  0.00     0.197 C 
HETATM    6  C5  UNK     1      18.261   1.231  33.075  1.00  0.00     0.079 A 
HETATM    7  C6  UNK     1      17.790   2.034  34.116  1.00  0.00     0.089 A 
HETATM    8  C8  UNK     1      18.304  -0.158  33.219  1.00  0.00     0.085 A 
HETATM    9  C10 UNK     1      17.328   1.441  35.292  1.00  0.00     0.075 A 
HETATM   10  C11 UNK     1      17.366   0.055  35.437  1.00  0.00     0.084 A 
HETATM   11  C13 UNK     1      17.857  -0.744  34.404  1.00  0.00     0.075 A 
ENDROOT
BRANCH   3  12
HETATM   12  C3  UNK     1      18.342   5.474  33.067  1.00  0.00    -0.023 A 
HETATM   13  C7  UNK     1      17.191   5.965  32.450  1.00  0.00     0.050 A 
HETATM   14  C12 UNK     1      16.941   7.338  32.432  1.00  0.00     0.113 A 
HETATM   15  C15 UNK     1      17.841   8.219  33.030  1.00  0.00     0.113 A 
HETATM   16  C14 UNK     1      18.992   7.728  33.647  1.00  0.00     0.041 A 
HETATM   17  C9  UNK     1      19.242   6.356  33.665  1.00  0.00     0.013 A 
BRANCH  14  18
HETATM   18  O6  UNK     1      15.813   7.805  31.826  1.00  0.00    -0.276 OA
BRANCH  18  19
HETATM   19  C18 UNK     1      14.625   7.232  32.307  1.00  0.00     0.260 C 
HETATM   20  O9  UNK     1      13.812   6.606  31.639  1.00  0.00    -0.265 OA
HETATM   21  C21 UNK     1      14.484   7.499  33.776  1.00  0.00     0.126 C 
ENDBRANCH  18  19
ENDBRANCH  14  18
BRANCH  15  22
HETATM   22  O7  UNK     1      17.608   9.561  33.019  1.00  0.00    -0.276 OA
BRANCH  22  23
HETATM   23  C20 UNK     1      17.084  10.061  34.222  1.00  0.00     0.260 C 
HETATM   24  O11 UNK     1      16.557   9.396  35.104  1.00  0.00    -0.265 OA
HETATM   25  C23 UNK     1      17.259  11.549  34.279  1.00  0.00     0.126 C 
ENDBRANCH  22  23
ENDBRANCH  15  22
ENDBRANCH   3  12
BRANCH   4  26
HETATM   26  O2  UNK     1      19.352   3.899  30.787  1.00  0.00    -0.305 OA
BRANCH  26  27
HETATM   27  C16 UNK     1      18.828   4.357  29.607  1.00  0.00     0.255 C 
HETATM   28  O8  UNK     1      18.260   3.677  28.763  1.00  0.00    -0.266 OA
HETATM   29  C17 UNK     1      19.050   5.834  29.485  1.00  0.00     0.126 C 
ENDBRANCH  26  27
ENDBRANCH   4  26
BRANCH  10  30
HETATM   30  O5  UNK     1      16.924  -0.521  36.589  1.00  0.00    -0.279 OA
BRANCH  30  31
HETATM   31  C19 UNK     1      17.801  -0.376  37.676  1.00  0.00     0.260 C 
HETATM   32  O10 UNK     1      17.962   0.643  38.335  1.00  0.00    -0.265 OA
HETATM   33  C22 UNK     1      18.533  -1.663  37.921  1.00  0.00     0.126 C 
ENDBRANCH  30  31
ENDBRANCH  10  30
BRANCH   8  34
HETATM   34  O4  UNK     1      18.756  -0.987  32.236  1.00  0.00    -0.360 OA
HETATM   35  H8  UNK     1      18.251  -1.814  32.229  1.00  0.00     0.217 HD
ENDBRANCH   8  34
TORSDOF 10
ENDMDL
MODEL 3
REMARK VINA RESULT:      -9.2      1.382      2.715
REMARK  10 active torsions:
REMARK  status: ('A' for Active; 'I' for Inactive)
REMARK    1  A    between atoms: C16_27  and  O2_2 
REMARK    2  A    between atoms: C2_13  and  O2_2 
REMARK    3  A    between atoms: C8_19  and  O4_4 
REMARK    4  A    between atoms: C11_22  and  O5_5 
REMARK    5  A    between atoms: C19_30  and  O5_5 
REMARK    6  A    between atoms: C12_23  and  O6_6 
REMARK    7  A    between atoms: C18_29  and  O6_6 
REMARK    8  A    between atoms: C15_26  and  O7_7 
REMARK    9  A    between atoms: C20_31  and  O7_7 
REMARK   10  A    between atoms: C1_12  and  C3_14 
ROOT
HETATM    1  O1  UNK     1      18.567   3.640  33.573  1.00  0.00    -0.337 OA
HETATM    2  O3  UNK     1      18.430   4.007  29.488  1.00  0.00    -0.289 OA
HETATM    3  C1  UNK     1      18.107   2.561  32.743  1.00  0.00     0.199 C 
HETATM    4  C2  UNK     1      18.814   2.566  31.386  1.00  0.00     0.240 C 
HETATM    5  C4  UNK     1      18.542   3.889  30.703  1.00  0.00     0.197 C 
HETATM    6  C5  UNK     1      18.455   5.062  31.594  1.00  0.00     0.079 A 
HETATM    7  C6  UNK     1      18.489   4.871  32.977  1.00  0.00     0.089 A 
HETATM    8  C8  UNK     1      18.369   6.350  31.061  1.00  0.00     0.085 A 
HETATM    9  C10 UNK     1      18.472   5.976  33.829  1.00  0.00     0.075 A 
HETATM   10  C11 UNK     1      18.390   7.263  33.301  1.00  0.00     0.084 A 
HETATM   11  C13 UNK     1      18.334   7.451  31.919  1.00  0.00     0.075 A 
ENDROOT
BRANCH   3  12
HETATM   12  C3  UNK     1      18.358   1.272  33.502  1.00  0.00    -0.023 A 
HETATM   13  C7  UNK     1      18.730   0.117  32.814  1.00  0.00     0.050 A 
HETATM   14  C12 UNK     1      18.961  -1.067  33.513  1.00  0.00     0.113 A 
HETATM   15  C15 UNK     1      18.818  -1.098  34.900  1.00  0.00     0.113 A 
HETATM   16  C14 UNK     1      18.446   0.056  35.589  1.00  0.00     0.041 A 
HETATM   17  C9  UNK     1      18.215   1.241  34.889  1.00  0.00     0.013 A 
BRANCH  14  18
HETATM   18  O6  UNK     1      19.325  -2.189  32.829  1.00  0.00    -0.276 OA
BRANCH  18  19
HETATM   19  C18 UNK     1      20.565  -2.086  32.179  1.00  0.00     0.260 C 
HETATM   20  O9  UNK     1      21.629  -1.794  32.708  1.00  0.00    -0.265 OA
HETATM   21  C21 UNK     1      20.403  -2.386  30.718  1.00  0.00     0.126 C 
ENDBRANCH  18  19
ENDBRANCH  14  18
BRANCH  15  22
HETATM   22  O7  UNK     1      19.041  -2.249  35.594  1.00  0.00    -0.276 OA
BRANCH  22  23
HETATM   23  C20 UNK     1      20.305  -2.317  36.200  1.00  0.00     0.260 C 
HETATM   24  O11 UNK     1      21.317  -1.746  35.814  1.00  0.00    -0.265 OA
HETATM   25  C23 UNK     1      20.247  -3.203  37.409  1.00  0.00     0.126 C 
ENDBRANCH  22  23
ENDBRANCH  15  22
ENDBRANCH   3  12
BRANCH   4  26
HETATM   26  O2  UNK     1      18.303   1.531  30.565  1.00  0.00    -0.305 OA
BRANCH  26  27
HETATM   27  C16 UNK     1      19.183   0.988  29.667  1.00  0.00     0.255 C 
HETATM   28  O8  UNK     1      20.364   0.749  29.875  1.00  0.00    -0.266 OA
HETATM   29  C17 UNK     1      18.489   0.720  28.365  1.00  0.00     0.126 C 
ENDBRANCH  26  27
ENDBRANCH   4  26
BRANCH  10  30
HETATM   30  O5  UNK     1      18.364   8.340  34.133  1.00  0.00    -0.279 OA
BRANCH  30  31
HETATM   31  C19 UNK     1      17.245   9.172  33.959  1.00  0.00     0.260 C 
HETATM   32  O10 UNK     1      17.246  10.269  33.416  1.00  0.00    -0.265 OA
HETATM   33  C22 UNK     1      16.026   8.522  34.545  1.00  0.00     0.126 C 
ENDBRANCH  30  31
ENDBRANCH  10  30
BRANCH   8  34
HETATM   34  O4  UNK     1      18.332   6.593  29.721  1.00  0.00    -0.360 OA
HETATM   35  H8  UNK     1      19.200   6.434  29.321  1.00  0.00     0.217 HD
ENDBRANCH   8  34
TORSDOF 10
ENDMDL
MODEL 4
REMARK VINA RESULT:      -8.9      2.919      6.245
REMARK  10 active torsions:
REMARK  status: ('A' for Active; 'I' for Inactive)
REMARK    1  A    between atoms: C16_27  and  O2_2 
REMARK    2  A    between atoms: C2_13  and  O2_2 
REMARK    3  A    between atoms: C8_19  and  O4_4 
REMARK    4  A    between atoms: C11_22  and  O5_5 
REMARK    5  A    between atoms: C19_30  and  O5_5 
REMARK    6  A    between atoms: C12_23  and  O6_6 
REMARK    7  A    between atoms: C18_29  and  O6_6 
REMARK    8  A    between atoms: C15_26  and  O7_7 
REMARK    9  A    between atoms: C20_31  and  O7_7 
REMARK   10  A    between atoms: C1_12  and  C3_14 
ROOT
HETATM    1  O1  UNK     1      16.497   7.340  32.306  1.00  0.00    -0.337 OA
HETATM    2  O3  UNK     1      19.207   9.696  34.291  1.00  0.00    -0.289 OA
HETATM    3  C1  UNK     1      17.908   7.220  32.063  1.00  0.00     0.199 C 
HETATM    4  C2  UNK     1      18.716   7.542  33.321  1.00  0.00     0.240 C 
HETATM    5  C4  UNK     1      18.391   8.953  33.758  1.00  0.00     0.197 C 
HETATM    6  C5  UNK     1      16.996   9.384  33.538  1.00  0.00     0.079 A 
HETATM    7  C6  UNK     1      16.126   8.546  32.839  1.00  0.00     0.089 A 
HETATM    8  C8  UNK     1      16.544  10.604  34.049  1.00  0.00     0.085 A 
HETATM    9  C10 UNK     1      14.789   8.914  32.680  1.00  0.00     0.075 A 
HETATM   10  C11 UNK     1      14.334  10.128  33.191  1.00  0.00     0.084 A 
HETATM   11  C13 UNK     1      15.211  10.974  33.871  1.00  0.00     0.075 A 
ENDROOT
BRANCH   3  12
HETATM   12  C3  UNK     1      18.161   5.805  31.578  1.00  0.00    -0.023 A 
HETATM   13  C7  UNK     1      17.658   4.720  32.297  1.00  0.00     0.050 A 
HETATM   14  C12 UNK     1      17.891   3.420  31.850  1.00  0.00     0.113 A 
HETATM   15  C15 UNK     1      18.627   3.203  30.686  1.00  0.00     0.113 A 
HETATM   16  C14 UNK     1      19.130   4.287  29.967  1.00  0.00     0.041 A 
HETATM   17  C9  UNK     1      18.897   5.588  30.413  1.00  0.00     0.013 A 
BRANCH  14  18
HETATM   18  O6  UNK     1      17.395   2.368  32.561  1.00  0.00    -0.276 OA
BRANCH  18  19
HETATM   19  C18 UNK     1      18.313   1.795  33.454  1.00  0.00     0.260 C 
HETATM   20  O9  UNK     1      18.958   0.773  33.260  1.00  0.00    -0.265 OA
HETATM   21  C21 UNK     1      18.396   2.619  34.705  1.00  0.00     0.126 C 
ENDBRANCH  18  19
ENDBRANCH  14  18
BRANCH  15  22
HETATM   22  O7  UNK     1      18.861   1.937  30.240  1.00  0.00    -0.276 OA
BRANCH  22  23
HETATM   23  C20 UNK     1      18.450   1.711  28.916  1.00  0.00     0.260 C 
HETATM   24  O11 UNK     1      17.795   2.482  28.228  1.00  0.00    -0.265 OA
HETATM   25  C23 UNK     1      18.929   0.368  28.453  1.00  0.00     0.126 C 
ENDBRANCH  22  23
ENDBRANCH  15  22
ENDBRANCH   3  12
BRANCH   4  26
HETATM   26  O2  UNK     1      20.103   7.474  33.041  1.00  0.00    -0.305 OA
BRANCH  26  27
HETATM   27  C16 UNK     1      20.731   6.311  33.399  1.00  0.00     0.255 C 
HETATM   28  O8  UNK     1      20.389   5.560  34.302  1.00  0.00    -0.266 OA
HETATM   29  C17 UNK     1      21.919   6.076  32.515  1.00  0.00     0.126 C 
ENDBRANCH  26  27
ENDBRANCH   4  26
BRANCH  10  30
HETATM   30  O5  UNK     1      13.031  10.490  33.027  1.00  0.00    -0.279 OA
BRANCH  30  31
HETATM   31  C19 UNK     1      12.836  11.873  32.874  1.00  0.00     0.260 C 
HETATM   32  O10 UNK     1      13.321  12.571  31.994  1.00  0.00    -0.265 OA
HETATM   33  C22 UNK     1      11.938  12.387  33.961  1.00  0.00     0.126 C 
ENDBRANCH  30  31
ENDBRANCH  10  30
BRANCH   8  34
HETATM   34  O4  UNK     1      17.351  11.460  34.736  1.00  0.00    -0.360 OA
HETATM   35  H8  UNK     1      18.260  11.123  34.765  1.00  0.00     0.217 HD
ENDBRANCH   8  34
TORSDOF 10
ENDMDL
MODEL 5
REMARK VINA RESULT:      -8.8     14.664     17.887
REMARK  10 active torsions:
REMARK  status: ('A' for Active; 'I' for Inactive)
REMARK    1  A    between atoms: C16_27  and  O2_2 
REMARK    2  A    between atoms: C2_13  and  O2_2 
REMARK    3  A    between atoms: C8_19  and  O4_4 
REMARK    4  A    between atoms: C11_22  and  O5_5 
REMARK    5  A    between atoms: C19_30  and  O5_5 
REMARK    6  A    between atoms: C12_23  and  O6_6 
REMARK    7  A    between atoms: C18_29  and  O6_6 
REMARK    8  A    between atoms: C15_26  and  O7_7 
REMARK    9  A    between atoms: C20_31  and  O7_7 
REMARK   10  A    between atoms: C1_12  and  C3_14 
ROOT
HETATM    1  O1  UNK     1      32.178  -7.827  32.527  1.00  0.00    -0.337 OA
HETATM    2  O3  UNK     1      36.014  -6.549  31.830  1.00  0.00    -0.289 OA
HETATM    3  C1  UNK     1      33.168  -7.839  33.568  1.00  0.00     0.199 C 
HETATM    4  C2  UNK     1      34.176  -6.703  33.386  1.00  0.00     0.240 C 
HETATM    5  C4  UNK     1      34.848  -6.861  32.040  1.00  0.00     0.197 C 
HETATM    6  C5  UNK     1      33.993  -7.389  30.958  1.00  0.00     0.079 A 
HETATM    7  C6  UNK     1      32.702  -7.825  31.262  1.00  0.00     0.089 A 
HETATM    8  C8  UNK     1      34.459  -7.424  29.642  1.00  0.00     0.085 A 
HETATM    9  C10 UNK     1      31.862  -8.267  30.238  1.00  0.00     0.075 A 
HETATM   10  C11 UNK     1      32.323  -8.300  28.923  1.00  0.00     0.084 A 
HETATM   11  C13 UNK     1      33.621  -7.883  28.625  1.00  0.00     0.075 A 
ENDROOT
BRANCH   3  12
HETATM   12  C3  UNK     1      32.432  -7.731  34.890  1.00  0.00    -0.023 A 
HETATM   13  C7  UNK     1      31.583  -6.650  35.130  1.00  0.00     0.050 A 
HETATM   14  C12 UNK     1      30.906  -6.552  36.346  1.00  0.00     0.113 A 
HETATM   15  C15 UNK     1      31.077  -7.534  37.321  1.00  0.00     0.113 A 
HETATM   16  C14 UNK     1      31.925  -8.615  37.081  1.00  0.00     0.041 A 
HETATM   17  C9  UNK     1      32.603  -8.713  35.865  1.00  0.00     0.013 A 
BRANCH  14  18
HETATM   18  O6  UNK     1      30.080  -5.492  36.569  1.00  0.00    -0.276 OA
BRANCH  18  19
HETATM   19  C18 UNK     1      30.690  -4.420  37.240  1.00  0.00     0.260 C 
HETATM   20  O9  UNK     1      31.747  -3.888  36.926  1.00  0.00    -0.265 OA
HETATM   21  C21 UNK     1      29.857  -4.011  38.418  1.00  0.00     0.126 C 
ENDBRANCH  18  19
ENDBRANCH  14  18
BRANCH  15  22
HETATM   22  O7  UNK     1      30.421  -7.449  38.512  1.00  0.00    -0.276 OA
BRANCH  22  23
HETATM   23  C20 UNK     1      29.135  -8.012  38.499  1.00  0.00     0.260 C 
HETATM   24  O11 UNK     1      28.818  -9.063  37.956  1.00  0.00    -0.265 OA
HETATM   25  C23 UNK     1      28.183  -7.134  39.253  1.00  0.00     0.126 C 
ENDBRANCH  22  23
ENDBRANCH  15  22
ENDBRANCH   3  12
BRANCH   4  26
HETATM   26  O2  UNK     1      35.175  -6.771  34.389  1.00  0.00    -0.305 OA
BRANCH  26  27
HETATM   27  C16 UNK     1      35.204  -5.730  35.278  1.00  0.00     0.255 C 
HETATM   28  O8  UNK     1      35.634  -5.776  36.423  1.00  0.00    -0.266 OA
HETATM   29  C17 UNK     1      34.628  -4.498  34.646  1.00  0.00     0.126 C 
ENDBRANCH  26  27
ENDBRANCH   4  26
BRANCH  10  30
HETATM   30  O5  UNK     1      31.505  -8.739  27.926  1.00  0.00    -0.279 OA
BRANCH  30  31
HETATM   31  C19 UNK     1      30.799  -9.912  28.240  1.00  0.00     0.260 C 
HETATM   32  O10 UNK     1      31.295 -10.969  28.610  1.00  0.00    -0.265 OA
HETATM   33  C22 UNK     1      29.327  -9.691  28.053  1.00  0.00     0.126 C 
ENDBRANCH  30  31
ENDBRANCH  10  30
BRANCH   8  34
HETATM   34  O4  UNK     1      35.710  -7.011  29.291  1.00  0.00    -0.360 OA
HETATM   35  H8  UNK     1      36.173  -7.707  28.801  1.00  0.00     0.217 HD
ENDBRANCH   8  34
TORSDOF 10
ENDMDL
MODEL 6
REMARK VINA RESULT:      -8.8      1.690      7.975
REMARK  10 active torsions:
REMARK  status: ('A' for Active; 'I' for Inactive)
REMARK    1  A    between atoms: C16_27  and  O2_2 
REMARK    2  A    between atoms: C2_13  and  O2_2 
REMARK    3  A    between atoms: C8_19  and  O4_4 
REMARK    4  A    between atoms: C11_22  and  O5_5 
REMARK    5  A    between atoms: C19_30  and  O5_5 
REMARK    6  A    between atoms: C12_23  and  O6_6 
REMARK    7  A    between atoms: C18_29  and  O6_6 
REMARK    8  A    between atoms: C15_26  and  O7_7 
REMARK    9  A    between atoms: C20_31  and  O7_7 
REMARK   10  A    between atoms: C1_12  and  C3_14 
ROOT
HETATM    1  O1  UNK     1      17.713   2.910  33.802  1.00  0.00    -0.337 OA
HETATM    2  O3  UNK     1      19.340   0.784  30.693  1.00  0.00    -0.289 OA
HETATM    3  C1  UNK     1      18.572   3.539  32.838  1.00  0.00     0.199 C 
HETATM    4  C2  UNK     1      18.435   2.885  31.463  1.00  0.00     0.240 C 
HETATM    5  C4  UNK     1      18.791   1.419  31.586  1.00  0.00     0.197 C 
HETATM    6  C5  UNK     1      18.400   0.771  32.853  1.00  0.00     0.079 A 
HETATM    7  C6  UNK     1      17.868   1.552  33.882  1.00  0.00     0.089 A 
HETATM    8  C8  UNK     1      18.533  -0.610  33.011  1.00  0.00     0.085 A 
HETATM    9  C10 UNK     1      17.436   0.942  35.060  1.00  0.00     0.075 A 
HETATM   10  C11 UNK     1      17.563  -0.437  35.220  1.00  0.00     0.084 A 
HETATM   11  C13 UNK     1      18.115  -1.212  34.199  1.00  0.00     0.075 A 
ENDROOT
BRANCH   3  12
HETATM   12  C3  UNK     1      18.202   5.010  32.800  1.00  0.00    -0.023 A 
HETATM   13  C7  UNK     1      19.169   5.980  33.066  1.00  0.00     0.050 A 
HETATM   14  C12 UNK     1      18.829   7.332  33.030  1.00  0.00     0.113 A 
HETATM   15  C15 UNK     1      17.521   7.716  32.729  1.00  0.00     0.113 A 
HETATM   16  C14 UNK     1      16.554   6.746  32.464  1.00  0.00     0.041 A 
HETATM   17  C9  UNK     1      16.895   5.393  32.500  1.00  0.00     0.013 A 
BRANCH  14  18
HETATM   18  O6  UNK     1      19.782   8.271  33.290  1.00  0.00    -0.276 OA
BRANCH  18  19
HETATM   19  C18 UNK     1      19.915   8.591  34.651  1.00  0.00     0.260 C 
HETATM   20  O9  UNK     1      19.431   7.964  35.584  1.00  0.00    -0.265 OA
HETATM   21  C21 UNK     1      20.742   9.833  34.807  1.00  0.00     0.126 C 
ENDBRANCH  18  19
ENDBRANCH  14  18
BRANCH  15  22
HETATM   22  O7  UNK     1      17.177   9.033  32.691  1.00  0.00    -0.276 OA
BRANCH  22  23
HETATM   23  C20 UNK     1      16.273   9.418  33.694  1.00  0.00     0.260 C 
HETATM   24  O11 UNK     1      16.460   9.327  34.900  1.00  0.00    -0.265 OA
HETATM   25  C23 UNK     1      15.022   9.965  33.074  1.00  0.00     0.126 C 
ENDBRANCH  22  23
ENDBRANCH  15  22
ENDBRANCH   3  12
BRANCH   4  26
HETATM   26  O2  UNK     1      19.333   3.483  30.545  1.00  0.00    -0.305 OA
BRANCH  26  27
HETATM   27  C16 UNK     1      18.768   4.034  29.426  1.00  0.00     0.255 C 
HETATM   28  O8  UNK     1      18.174   3.425  28.548  1.00  0.00    -0.266 OA
HETATM   29  C17 UNK     1      18.981   5.518  29.422  1.00  0.00     0.126 C 
ENDBRANCH  26  27
ENDBRANCH   4  26
BRANCH  10  30
HETATM   30  O5  UNK     1      17.149  -1.030  36.374  1.00  0.00    -0.279 OA
BRANCH  30  31
HETATM   31  C19 UNK     1      18.040  -0.873  37.449  1.00  0.00     0.260 C 
HETATM   32  O10 UNK     1      18.096   0.094  38.198  1.00  0.00    -0.265 OA
HETATM   33  C22 UNK     1      18.933  -2.074  37.555  1.00  0.00     0.126 C 
ENDBRANCH  30  31
ENDBRANCH  10  30
BRANCH   8  34
HETATM   34  O4  UNK     1      19.046  -1.418  32.041  1.00  0.00    -0.360 OA
HETATM   35  H8  UNK     1      18.747  -1.131  31.165  1.00  0.00     0.217 HD
ENDBRANCH   8  34
TORSDOF 10
ENDMDL
MODEL 7
REMARK VINA RESULT:      -8.7     13.713     17.180
REMARK  10 active torsions:
REMARK  status: ('A' for Active; 'I' for Inactive)
REMARK    1  A    between atoms: C16_27  and  O2_2 
REMARK    2  A    between atoms: C2_13  and  O2_2 
REMARK    3  A    between atoms: C8_19  and  O4_4 
REMARK    4  A    between atoms: C11_22  and  O5_5 
REMARK    5  A    between atoms: C19_30  and  O5_5 
REMARK    6  A    between atoms: C12_23  and  O6_6 
REMARK    7  A    between atoms: C18_29  and  O6_6 
REMARK    8  A    between atoms: C15_26  and  O7_7 
REMARK    9  A    between atoms: C20_31  and  O7_7 
REMARK   10  A    between atoms: C1_12  and  C3_14 
ROOT
HETATM    1  O1  UNK     1      31.022  -7.218  33.179  1.00  0.00    -0.337 OA
HETATM    2  O3  UNK     1      35.091  -7.275  32.657  1.00  0.00    -0.289 OA
HETATM    3  C1  UNK     1      31.907  -7.550  34.261  1.00  0.00     0.199 C 
HETATM    4  C2  UNK     1      33.239  -6.810  34.133  1.00  0.00     0.240 C 
HETATM    5  C4  UNK     1      33.879  -7.186  32.814  1.00  0.00     0.197 C 
HETATM    6  C5  UNK     1      32.946  -7.409  31.693  1.00  0.00     0.079 A 
HETATM    7  C6  UNK     1      31.571  -7.395  31.937  1.00  0.00     0.089 A 
HETATM    8  C8  UNK     1      33.431  -7.602  30.397  1.00  0.00     0.085 A 
HETATM    9  C10 UNK     1      30.678  -7.541  30.875  1.00  0.00     0.075 A 
HETATM   10  C11 UNK     1      31.158  -7.730  29.580  1.00  0.00     0.084 A 
HETATM   11  C13 UNK     1      32.533  -7.765  29.341  1.00  0.00     0.075 A 
ENDROOT
BRANCH   3  12
HETATM   12  C3  UNK     1      31.190  -7.199  35.551  1.00  0.00    -0.023 A 
HETATM   13  C7  UNK     1      30.834  -8.207  36.448  1.00  0.00     0.050 A 
HETATM   14  C12 UNK     1      30.176  -7.884  37.634  1.00  0.00     0.113 A 
HETATM   15  C15 UNK     1      29.873  -6.554  37.925  1.00  0.00     0.113 A 
HETATM   16  C14 UNK     1      30.229  -5.546  37.028  1.00  0.00     0.041 A 
HETATM   17  C9  UNK     1      30.887  -5.869  35.841  1.00  0.00     0.013 A 
BRANCH  14  18
HETATM   18  O6  UNK     1      29.834  -8.877  38.503  1.00  0.00    -0.276 OA
BRANCH  18  19
HETATM   19  C18 UNK     1      28.539  -9.384  38.312  1.00  0.00     0.260 C 
HETATM   20  O9  UNK     1      27.946  -9.450  37.243  1.00  0.00    -0.265 OA
HETATM   21  C21 UNK     1      27.969  -9.840  39.623  1.00  0.00     0.126 C 
ENDBRANCH  18  19
ENDBRANCH  14  18
BRANCH  15  22
HETATM   22  O7  UNK     1      29.230  -6.226  39.080  1.00  0.00    -0.276 OA
BRANCH  22  23
HETATM   23  C20 UNK     1      28.101  -5.412  38.897  1.00  0.00     0.260 C 
HETATM   24  O11 UNK     1      28.066  -4.196  39.031  1.00  0.00    -0.265 OA
HETATM   25  C23 UNK     1      26.921  -6.251  38.509  1.00  0.00     0.126 C 
ENDBRANCH  22  23
ENDBRANCH  15  22
ENDBRANCH   3  12
BRANCH   4  26
HETATM   26  O2  UNK     1      34.115  -7.197  35.176  1.00  0.00    -0.305 OA
BRANCH  26  27
HETATM   27  C16 UNK     1      34.611  -6.182  35.951  1.00  0.00     0.255 C 
HETATM   28  O8  UNK     1      35.190  -5.185  35.543  1.00  0.00    -0.266 OA
HETATM   29  C17 UNK     1      34.343  -6.463  37.399  1.00  0.00     0.126 C 
ENDBRANCH  26  27
ENDBRANCH   4  26
BRANCH  10  30
HETATM   30  O5  UNK     1      30.286  -7.882  28.546  1.00  0.00    -0.279 OA
BRANCH  30  31
HETATM   31  C19 UNK     1      30.083  -9.217  28.158  1.00  0.00     0.260 C 
HETATM   32  O10 UNK     1      30.837  -9.882  27.460  1.00  0.00    -0.265 OA
HETATM   33  C22 UNK     1      28.789  -9.725  28.724  1.00  0.00     0.126 C 
ENDBRANCH  30  31
ENDBRANCH  10  30
BRANCH   8  34
HETATM   34  O4  UNK     1      34.761  -7.625  30.104  1.00  0.00    -0.360 OA
HETATM   35  H8  UNK     1      35.247  -8.145  30.762  1.00  0.00     0.217 HD
ENDBRANCH   8  34
TORSDOF 10
ENDMDL
MODEL 8
REMARK VINA RESULT:      -8.6     14.264     17.597
REMARK  10 active torsions:
REMARK  status: ('A' for Active; 'I' for Inactive)
REMARK    1  A    between atoms: C16_27  and  O2_2 
REMARK    2  A    between atoms: C2_13  and  O2_2 
REMARK    3  A    between atoms: C8_19  and  O4_4 
REMARK    4  A    between atoms: C11_22  and  O5_5 
REMARK    5  A    between atoms: C19_30  and  O5_5 
REMARK    6  A    between atoms: C12_23  and  O6_6 
REMARK    7  A    between atoms: C18_29  and  O6_6 
REMARK    8  A    between atoms: C15_26  and  O7_7 
REMARK    9  A    between atoms: C20_31  and  O7_7 
REMARK   10  A    between atoms: C1_12  and  C3_14 
ROOT
HETATM    1  O1  UNK     1      30.792  -7.266  35.621  1.00  0.00    -0.337 OA
HETATM    2  O3  UNK     1      31.738  -3.579  37.152  1.00  0.00    -0.289 OA
HETATM    3  C1  UNK     1      31.359  -6.239  34.792  1.00  0.00     0.199 C 
HETATM    4  C2  UNK     1      32.297  -5.336  35.594  1.00  0.00     0.240 C 
HETATM    5  C4  UNK     1      31.515  -4.706  36.726  1.00  0.00     0.197 C 
HETATM    6  C5  UNK     1      30.469  -5.556  37.329  1.00  0.00     0.079 A 
HETATM    7  C6  UNK     1      30.180  -6.794  36.751  1.00  0.00     0.089 A 
HETATM    8  C8  UNK     1      29.797  -5.140  38.481  1.00  0.00     0.085 A 
HETATM    9  C10 UNK     1      29.238  -7.633  37.348  1.00  0.00     0.075 A 
HETATM   10  C11 UNK     1      28.568  -7.223  38.500  1.00  0.00     0.084 A 
HETATM   11  C13 UNK     1      28.844  -5.976  39.064  1.00  0.00     0.075 A 
ENDROOT
BRANCH   3  12
HETATM   12  C3  UNK     1      32.082  -6.930  33.652  1.00  0.00    -0.023 A 
HETATM   13  C7  UNK     1      33.390  -7.382  33.827  1.00  0.00     0.050 A 
HETATM   14  C12 UNK     1      34.054  -8.018  32.777  1.00  0.00     0.113 A 
HETATM   15  C15 UNK     1      33.411  -8.201  31.553  1.00  0.00     0.113 A 
HETATM   16  C14 UNK     1      32.103  -7.749  31.379  1.00  0.00     0.041 A 
HETATM   17  C9  UNK     1      31.439  -7.113  32.428  1.00  0.00     0.013 A 
BRANCH  14  18
HETATM   18  O6  UNK     1      35.332  -8.455  32.961  1.00  0.00    -0.276 OA
BRANCH  18  19
HETATM   19  C18 UNK     1      36.283  -7.427  33.050  1.00  0.00     0.260 C 
HETATM   20  O9  UNK     1      36.467  -6.548  32.218  1.00  0.00    -0.265 OA
HETATM   21  C21 UNK     1      37.062  -7.557  34.325  1.00  0.00     0.126 C 
ENDBRANCH  18  19
ENDBRANCH  14  18
BRANCH  15  22
HETATM   22  O7  UNK     1      34.049  -8.820  30.522  1.00  0.00    -0.276 OA
BRANCH  22  23
HETATM   23  C20 UNK     1      33.881  -8.186  29.280  1.00  0.00     0.260 C 
HETATM   24  O11 UNK     1      33.212  -8.607  28.346  1.00  0.00    -0.265 OA
HETATM   25  C23 UNK     1      34.649  -6.899  29.254  1.00  0.00     0.126 C 
ENDBRANCH  22  23
ENDBRANCH  15  22
ENDBRANCH   3  12
BRANCH   4  26
HETATM   26  O2  UNK     1      32.798  -4.297  34.772  1.00  0.00    -0.305 OA
BRANCH  26  27
HETATM   27  C16 UNK     1      34.148  -4.076  34.839  1.00  0.00     0.255 C 
HETATM   28  O8  UNK     1      34.774  -3.255  34.182  1.00  0.00    -0.266 OA
HETATM   29  C17 UNK     1      34.769  -4.992  35.850  1.00  0.00     0.126 C 
ENDBRANCH  26  27
ENDBRANCH   4  26
BRANCH  10  30
HETATM   30  O5  UNK     1      27.644  -8.039  39.077  1.00  0.00    -0.279 OA
BRANCH  30  31
HETATM   31  C19 UNK     1      26.371  -7.969  38.486  1.00  0.00     0.260 C 
HETATM   32  O10 UNK     1      25.577  -7.045  38.603  1.00  0.00    -0.265 OA
HETATM   33  C22 UNK     1      26.110  -9.208  37.681  1.00  0.00     0.126 C 
ENDBRANCH  30  31
ENDBRANCH  10  30
BRANCH   8  34
HETATM   34  O4  UNK     1      30.040  -3.942  39.084  1.00  0.00    -0.360 OA
HETATM   35  H8  UNK     1      30.588  -3.379  38.517  1.00  0.00     0.217 HD
ENDBRANCH   8  34
TORSDOF 10
ENDMDL
MODEL 9
REMARK VINA RESULT:      -8.6     14.316     16.941
REMARK  10 active torsions:
REMARK  status: ('A' for Active; 'I' for Inactive)
REMARK    1  A    between atoms: C16_27  and  O2_2 
REMARK    2  A    between atoms: C2_13  and  O2_2 
REMARK    3  A    between atoms: C8_19  and  O4_4 
REMARK    4  A    between atoms: C11_22  and  O5_5 
REMARK    5  A    between atoms: C19_30  and  O5_5 
REMARK    6  A    between atoms: C12_23  and  O6_6 
REMARK    7  A    between atoms: C18_29  and  O6_6 
REMARK    8  A    between atoms: C15_26  and  O7_7 
REMARK    9  A    between atoms: C20_31  and  O7_7 
REMARK   10  A    between atoms: C1_12  and  C3_14 
ROOT
HETATM    1  O1  UNK     1      29.977  -7.195  35.491  1.00  0.00    -0.337 OA
HETATM    2  O3  UNK     1      31.568  -3.940  37.417  1.00  0.00    -0.289 OA
HETATM    3  C1  UNK     1      30.654  -6.156  34.764  1.00  0.00     0.199 C 
HETATM    4  C2  UNK     1      31.763  -5.524  35.606  1.00  0.00     0.240 C 
HETATM    5  C4  UNK     1      31.149  -4.951  36.865  1.00  0.00     0.197 C 
HETATM    6  C5  UNK     1      30.016  -5.712  37.427  1.00  0.00     0.079 A 
HETATM    7  C6  UNK     1      29.507  -6.800  36.715  1.00  0.00     0.089 A 
HETATM    8  C8  UNK     1      29.479  -5.367  38.669  1.00  0.00     0.085 A 
HETATM    9  C10 UNK     1      28.478  -7.566  37.265  1.00  0.00     0.075 A 
HETATM   10  C11 UNK     1      27.942  -7.227  38.506  1.00  0.00     0.084 A 
HETATM   11  C13 UNK     1      28.439  -6.126  39.206  1.00  0.00     0.075 A 
ENDROOT
BRANCH   3  12
HETATM   12  C3  UNK     1      31.199  -6.780  33.493  1.00  0.00    -0.023 A 
HETATM   13  C7  UNK     1      30.652  -6.437  32.257  1.00  0.00     0.050 A 
HETATM   14  C12 UNK     1      31.154  -7.010  31.089  1.00  0.00     0.113 A 
HETATM   15  C15 UNK     1      32.203  -7.927  31.156  1.00  0.00     0.113 A 
HETATM   16  C14 UNK     1      32.750  -8.270  32.393  1.00  0.00     0.041 A 
HETATM   17  C9  UNK     1      32.248  -7.697  33.561  1.00  0.00     0.013 A 
BRANCH  14  18
HETATM   18  O6  UNK     1      30.612  -6.666  29.887  1.00  0.00    -0.276 OA
BRANCH  18  19
HETATM   19  C18 UNK     1      29.278  -7.074  29.722  1.00  0.00     0.260 C 
HETATM   20  O9  UNK     1      28.288  -6.389  29.942  1.00  0.00    -0.265 OA
HETATM   21  C21 UNK     1      29.232  -8.491  29.233  1.00  0.00     0.126 C 
ENDBRANCH  18  19
ENDBRANCH  14  18
BRANCH  15  22
HETATM   22  O7  UNK     1      32.702  -8.493  30.022  1.00  0.00    -0.276 OA
BRANCH  22  23
HETATM   23  C20 UNK     1      34.083  -8.311  29.851  1.00  0.00     0.260 C 
HETATM   24  O11 UNK     1      34.946  -9.157  30.043  1.00  0.00    -0.265 OA
HETATM   25  C23 UNK     1      34.363  -6.911  29.393  1.00  0.00     0.126 C 
ENDBRANCH  22  23
ENDBRANCH  15  22
ENDBRANCH   3  12
BRANCH   4  26
HETATM   26  O2  UNK     1      32.376  -4.466  34.892  1.00  0.00    -0.305 OA
BRANCH  26  27
HETATM   27  C16 UNK     1      33.744  -4.428  34.932  1.00  0.00     0.255 C 
HETATM   28  O8  UNK     1      34.451  -3.537  34.481  1.00  0.00    -0.266 OA
HETATM   29  C17 UNK     1      34.272  -5.652  35.619  1.00  0.00     0.126 C 
ENDBRANCH  26  27
ENDBRANCH   4  26
BRANCH  10  30
HETATM   30  O5  UNK     1      26.932  -7.970  39.038  1.00  0.00    -0.279 OA
BRANCH  30  31
HETATM   31  C19 UNK     1      27.122  -9.357  38.925  1.00  0.00     0.260 C 
HETATM   32  O10 UNK     1      26.727 -10.061  38.004  1.00  0.00    -0.265 OA
HETATM   33  C22 UNK     1      27.884  -9.870  40.111  1.00  0.00     0.126 C 
ENDBRANCH  30  31
ENDBRANCH  10  30
BRANCH   8  34
HETATM   34  O4  UNK     1      29.938  -4.315  39.404  1.00  0.00    -0.360 OA
HETATM   35  H8  UNK     1      29.432  -4.228  40.227  1.00  0.00     0.217 HD
ENDBRANCH   8  34
TORSDOF 10
ENDMDL
MODEL 10
REMARK VINA RESULT:      -8.6     13.825     16.864
REMARK  10 active torsions:
REMARK  status: ('A' for Active; 'I' for Inactive)
REMARK    1  A    between atoms: C16_27  and  O2_2 
REMARK    2  A    between atoms: C2_13  and  O2_2 
REMARK    3  A    between atoms: C8_19  and  O4_4 
REMARK    4  A    between atoms: C11_22  and  O5_5 
REMARK    5  A    between atoms: C19_30  and  O5_5 
REMARK    6  A    between atoms: C12_23  and  O6_6 
REMARK    7  A    between atoms: C18_29  and  O6_6 
REMARK    8  A    between atoms: C15_26  and  O7_7 
REMARK    9  A    between atoms: C20_31  and  O7_7 
REMARK   10  A    between atoms: C1_12  and  C3_14 
ROOT
HETATM    1  O1  UNK     1      29.998  -6.413  34.861  1.00  0.00    -0.337 OA
HETATM    2  O3  UNK     1      33.888  -6.017  36.102  1.00  0.00    -0.289 OA
HETATM    3  C1  UNK     1      31.055  -6.147  33.925  1.00  0.00     0.199 C 
HETATM    4  C2  UNK     1      32.372  -6.775  34.384  1.00  0.00     0.240 C 
HETATM    5  C4  UNK     1      32.733  -6.206  35.739  1.00  0.00     0.197 C 
HETATM    6  C5  UNK     1      31.596  -5.922  36.636  1.00  0.00     0.079 A 
HETATM    7  C6  UNK     1      30.294  -6.058  36.150  1.00  0.00     0.089 A 
HETATM    8  C8  UNK     1      31.819  -5.549  37.964  1.00  0.00     0.085 A 
HETATM    9  C10 UNK     1      29.211  -5.853  37.005  1.00  0.00     0.075 A 
HETATM   10  C11 UNK     1      29.429  -5.485  38.332  1.00  0.00     0.084 A 
HETATM   11  C13 UNK     1      30.731  -5.329  38.810  1.00  0.00     0.075 A 
ENDROOT
BRANCH   3  12
HETATM   12  C3  UNK     1      30.611  -6.691  32.580  1.00  0.00    -0.023 A 
HETATM   13  C7  UNK     1      30.257  -8.035  32.453  1.00  0.00     0.050 A 
HETATM   14  C12 UNK     1      29.849  -8.534  31.216  1.00  0.00     0.113 A 
HETATM   15  C15 UNK     1      29.796  -7.691  30.106  1.00  0.00     0.113 A 
HETATM   16  C14 UNK     1      30.150  -6.348  30.233  1.00  0.00     0.041 A 
HETATM   17  C9  UNK     1      30.558  -5.848  31.470  1.00  0.00     0.013 A 
BRANCH  14  18
HETATM   18  O6  UNK     1      29.505  -9.848  31.104  1.00  0.00    -0.276 OA
BRANCH  18  19
HETATM   19  C18 UNK     1      30.561 -10.740  31.351  1.00  0.00     0.260 C 
HETATM   20  O9  UNK     1      31.656 -10.721  30.805  1.00  0.00    -0.265 OA
HETATM   21  C21 UNK     1      30.154 -11.741  32.392  1.00  0.00     0.126 C 
ENDBRANCH  18  19
ENDBRANCH  14  18
BRANCH  15  22
HETATM   22  O7  UNK     1      29.399  -8.167  28.893  1.00  0.00    -0.276 OA
BRANCH  22  23
HETATM   23  C20 UNK     1      30.415  -8.813  28.171  1.00  0.00     0.260 C 
HETATM   24  O11 UNK     1      31.528  -8.360  27.939  1.00  0.00    -0.265 OA
HETATM   25  C23 UNK     1      29.941 -10.160  27.712  1.00  0.00     0.126 C 
ENDBRANCH  22  23
ENDBRANCH  15  22
ENDBRANCH   3  12
BRANCH   4  26
HETATM   26  O2  UNK     1      33.410  -6.450  33.477  1.00  0.00    -0.305 OA
BRANCH  26  27
HETATM   27  C16 UNK     1      34.160  -7.501  33.021  1.00  0.00     0.255 C 
HETATM   28  O8  UNK     1      34.919  -8.186  33.693  1.00  0.00    -0.266 OA
HETATM   29  C17 UNK     1      33.919  -7.707  31.556  1.00  0.00     0.126 C 
ENDBRANCH  26  27
ENDBRANCH   4  26
BRANCH  10  30
HETATM   30  O5  UNK     1      28.371  -5.276  39.163  1.00  0.00    -0.279 OA
BRANCH  30  31
HETATM   31  C19 UNK     1      27.329  -6.206  39.008  1.00  0.00     0.260 C 
HETATM   32  O10 UNK     1      26.230  -5.975  38.521  1.00  0.00    -0.265 OA
HETATM   33  C22 UNK     1      27.754  -7.546  39.534  1.00  0.00     0.126 C 
ENDBRANCH  30  31
ENDBRANCH  10  30
BRANCH   8  34
HETATM   34  O4  UNK     1      33.067  -5.401  38.488  1.00  0.00    -0.360 OA
HETATM   35  H8  UNK     1      33.124  -5.825  39.358  1.00  0.00     0.217 HD
ENDBRANCH   8  34
TORSDOF 10
ENDMDL
