MODEL 1
REMARK VINA RESULT:      -9.2      0.000      0.000
REMARK  4 active torsions:
REMARK  status: ('A' for Active; 'I' for Inactive)
REMARK    1  A    between atoms: C6_13  and  O2_3 
REMARK    2  A    between atoms: C11_18  and  O3_4 
REMARK    3  A    between atoms: C2_9  and  N1_7 
REMARK       I    between atoms: C7_14  and  N1_7 
REMARK    4  A    between atoms: C3_10  and  C7_14 
ROOT
HETATM    1  O4  UNK     1      17.596   3.323  32.841  1.00  0.00    -0.267 OA
HETATM    2  N1  UNK     1      18.749   4.807  31.422  1.00  0.00    -0.320 N 
HETATM    3  C7  UNK     1      18.284   3.572  31.852  1.00  0.00     0.262 C 
HETATM    4  H2  UNK     1      19.298   4.847  30.567  1.00  0.00     0.169 HD
ENDROOT
BRANCH   2   5
HETATM    5  C2  UNK     1      18.539   6.070  32.028  1.00  0.00     0.071 A 
HETATM    6  C6  UNK     1      19.473   6.576  32.916  1.00  0.00     0.096 A 
HETATM    7  C12 UNK     1      19.251   7.821  33.505  1.00  0.00     0.065 A 
HETATM    8  C14 UNK     1      18.097   8.542  33.197  1.00  0.00     0.070 A 
HETATM    9  C11 UNK     1      17.166   8.018  32.300  1.00  0.00     0.092 A 
HETATM   10 Cl1  UNK     1      17.848  10.078  33.941  1.00  0.00    -0.081 Cl
HETATM   11  C8  UNK     1      17.388   6.773  31.712  1.00  0.00     0.071 A 
BRANCH   6  12
HETATM   12  O2  UNK     1      20.606   5.887  33.230  1.00  0.00    -0.354 OA
HETATM   13  C17 UNK     1      21.800   6.256  32.543  1.00  0.00     0.210 C 
ENDBRANCH   6  12
BRANCH   9  14
HETATM   14  O3  UNK     1      16.029   8.700  31.982  1.00  0.00    -0.354 OA
HETATM   15  C18 UNK     1      14.844   8.351  32.693  1.00  0.00     0.210 C 
ENDBRANCH   9  14
ENDBRANCH   2   5
BRANCH   3  16
HETATM   16  C3  UNK     1      18.704   2.482  30.964  1.00  0.00     0.108 A 
HETATM   17  C5  UNK     1      19.119   1.359  31.562  1.00  0.00     0.037 A 
HETATM   18  C1  UNK     1      19.557   0.222  30.767  1.00  0.00    -0.001 A 
HETATM   19  C4  UNK     1      19.536   0.324  29.380  1.00  0.00     0.089 A 
HETATM   20  C10 UNK     1      19.997  -0.968  31.349  1.00  0.00     0.014 A 
HETATM   21  C13 UNK     1      19.942  -0.727  28.560  1.00  0.00     0.038 A 
HETATM   22  O1  UNK     1      19.098   1.508  28.755  1.00  0.00    -0.274 OA
HETATM   23  C16 UNK     1      20.381  -1.911  29.149  1.00  0.00     0.003 A 
HETATM   24  C15 UNK     1      20.408  -2.032  30.541  1.00  0.00     0.001 A 
HETATM   25  C9  UNK     1      18.674   2.613  29.490  1.00  0.00     0.304 A 
HETATM   26  O5  UNK     1      18.295   3.640  28.938  1.00  0.00    -0.259 OA
ENDBRANCH   3  16
TORSDOF 4
ENDMDL
MODEL 2
REMARK VINA RESULT:      -9.2      9.075     12.780
REMARK  4 active torsions:
REMARK  status: ('A' for Active; 'I' for Inactive)
REMARK    1  A    between atoms: C6_13  and  O2_3 
REMARK    2  A    between atoms: C11_18  and  O3_4 
REMARK    3  A    between atoms: C2_9  and  N1_7 
REMARK       I    between atoms: C7_14  and  N1_7 
REMARK    4  A    between atoms: C3_10  and  C7_14 
ROOT
HETATM    1  O4  UNK     1      21.290  -4.408  36.935  1.00  0.00    -0.267 OA
HETATM    2  N1  UNK     1      19.066  -5.159  36.742  1.00  0.00    -0.320 N 
HETATM    3  C7  UNK     1      20.097  -4.232  36.687  1.00  0.00     0.262 C 
HETATM    4  H2  UNK     1      18.128  -4.856  36.490  1.00  0.00     0.169 HD
ENDROOT
BRANCH   2   5
HETATM    5  C2  UNK     1      19.150  -6.527  37.097  1.00  0.00     0.071 A 
HETATM    6  C6  UNK     1      18.610  -7.494  36.265  1.00  0.00     0.096 A 
HETATM    7  C12 UNK     1      18.702  -8.837  36.630  1.00  0.00     0.065 A 
HETATM    8  C14 UNK     1      19.333  -9.195  37.821  1.00  0.00     0.070 A 
HETATM    9  C11 UNK     1      19.872  -8.209  38.648  1.00  0.00     0.092 A 
HETATM   10 Cl1  UNK     1      19.430 -10.864  38.246  1.00  0.00    -0.081 Cl
HETATM   11  C8  UNK     1      19.781  -6.866  38.284  1.00  0.00     0.071 A 
BRANCH   6  12
HETATM   12  O2  UNK     1      17.989  -7.164  35.098  1.00  0.00    -0.354 OA
HETATM   13  C17 UNK     1      16.584  -7.394  35.025  1.00  0.00     0.210 C 
ENDBRANCH   6  12
BRANCH   9  14
HETATM   14  O3  UNK     1      20.493  -8.530  39.818  1.00  0.00    -0.354 OA
HETATM   15  C18 UNK     1      21.915  -8.426  39.845  1.00  0.00     0.210 C 
ENDBRANCH   9  14
ENDBRANCH   2   5
BRANCH   3  16
HETATM   16  C3  UNK     1      19.628  -2.904  36.275  1.00  0.00     0.108 A 
HETATM   17  C5  UNK     1      18.923  -2.219  37.182  1.00  0.00     0.037 A 
HETATM   18  C1  UNK     1      18.412  -0.893  36.868  1.00  0.00    -0.001 A 
HETATM   19  C4  UNK     1      18.672  -0.354  35.611  1.00  0.00     0.089 A 
HETATM   20  C10 UNK     1      17.672  -0.143  37.783  1.00  0.00     0.014 A 
HETATM   21  C13 UNK     1      18.213   0.910  35.246  1.00  0.00     0.038 A 
HETATM   22  O1  UNK     1      19.415  -1.080  34.660  1.00  0.00    -0.274 OA
HETATM   23  C16 UNK     1      17.474   1.652  36.166  1.00  0.00     0.003 A 
HETATM   24  C15 UNK     1      17.205   1.127  37.432  1.00  0.00     0.001 A 
HETATM   25  C9  UNK     1      19.915  -2.350  34.933  1.00  0.00     0.304 A 
HETATM   26  O5  UNK     1      20.560  -2.976  34.098  1.00  0.00    -0.259 OA
ENDBRANCH   3  16
TORSDOF 4
ENDMDL
MODEL 3
REMARK VINA RESULT:      -8.9      1.286      2.074
REMARK  4 active torsions:
REMARK  status: ('A' for Active; 'I' for Inactive)
REMARK    1  A    between atoms: C6_13  and  O2_3 
REMARK    2  A    between atoms: C11_18  and  O3_4 
REMARK    3  A    between atoms: C2_9  and  N1_7 
REMARK       I    between atoms: C7_14  and  N1_7 
REMARK    4  A    between atoms: C3_10  and  C7_14 
ROOT
HETATM    1  O4  UNK     1      18.419   4.594  30.276  1.00  0.00    -0.267 OA
HETATM    2  N1  UNK     1      17.998   4.587  32.593  1.00  0.00    -0.320 N 
HETATM    3  C7  UNK     1      18.346   4.033  31.368  1.00  0.00     0.262 C 
HETATM    4  H2  UNK     1      18.000   3.986  33.414  1.00  0.00     0.169 HD
ENDROOT
BRANCH   2   5
HETATM    5  C2  UNK     1      17.647   5.931  32.866  1.00  0.00     0.071 A 
HETATM    6  C6  UNK     1      18.552   6.768  33.499  1.00  0.00     0.096 A 
HETATM    7  C12 UNK     1      18.191   8.090  33.761  1.00  0.00     0.065 A 
HETATM    8  C14 UNK     1      16.931   8.556  33.385  1.00  0.00     0.070 A 
HETATM    9  C11 UNK     1      16.032   7.700  32.749  1.00  0.00     0.092 A 
HETATM   10 Cl1  UNK     1      16.511  10.195  33.723  1.00  0.00    -0.081 Cl
HETATM   11  C8  UNK     1      16.392   6.379  32.487  1.00  0.00     0.071 A 
BRANCH   6  12
HETATM   12  O2  UNK     1      19.787   6.331  33.874  1.00  0.00    -0.354 OA
HETATM   13  C17 UNK     1      20.845   6.495  32.932  1.00  0.00     0.210 C 
ENDBRANCH   6  12
BRANCH   9  14
HETATM   14  O3  UNK     1      14.794   8.129  32.371  1.00  0.00    -0.354 OA
HETATM   15  C18 UNK     1      13.762   7.148  32.305  1.00  0.00     0.210 C 
ENDBRANCH   9  14
ENDBRANCH   2   5
BRANCH   3  16
HETATM   16  C3  UNK     1      18.648   2.601  31.474  1.00  0.00     0.108 A 
HETATM   17  C5  UNK     1      19.198   2.032  30.395  1.00  0.00     0.037 A 
HETATM   18  C1  UNK     1      19.533   0.616  30.401  1.00  0.00    -0.001 A 
HETATM   19  C4  UNK     1      19.273  -0.131  31.546  1.00  0.00     0.089 A 
HETATM   20  C10 UNK     1      20.108  -0.018  29.299  1.00  0.00     0.014 A 
HETATM   21  C13 UNK     1      19.569  -1.490  31.618  1.00  0.00     0.038 A 
HETATM   22  O1  UNK     1      18.694   0.473  32.679  1.00  0.00    -0.274 OA
HETATM   23  C16 UNK     1      20.143  -2.116  30.513  1.00  0.00     0.003 A 
HETATM   24  C15 UNK     1      20.412  -1.382  29.355  1.00  0.00     0.001 A 
HETATM   25  C9  UNK     1      18.362   1.826  32.701  1.00  0.00     0.304 A 
HETATM   26  O5  UNK     1      17.857   2.343  33.692  1.00  0.00    -0.259 OA
ENDBRANCH   3  16
TORSDOF 4
ENDMDL
MODEL 4
REMARK VINA RESULT:      -8.6     14.669     18.714
REMARK  4 active torsions:
REMARK  status: ('A' for Active; 'I' for Inactive)
REMARK    1  A    between atoms: C6_13  and  O2_3 
REMARK    2  A    between atoms: C11_18  and  O3_4 
REMARK    3  A    between atoms: C2_9  and  N1_7 
REMARK       I    between atoms: C7_14  and  N1_7 
REMARK    4  A    between atoms: C3_10  and  C7_14 
ROOT
HETATM    1  O4  UNK     1      20.386  -3.325  16.052  1.00  0.00    -0.267 OA
HETATM    2  N1  UNK     1      18.155  -3.195  15.308  1.00  0.00    -0.320 N 
HETATM    3  C7  UNK     1      19.345  -2.707  15.829  1.00  0.00     0.262 C 
HETATM    4  H2  UNK     1      17.384  -2.546  15.169  1.00  0.00     0.169 HD
ENDROOT
BRANCH   2   5
HETATM    5  C2  UNK     1      17.865  -4.523  14.911  1.00  0.00     0.071 A 
HETATM    6  C6  UNK     1      18.163  -4.943  13.625  1.00  0.00     0.096 A 
HETATM    7  C12 UNK     1      17.871  -6.254  13.250  1.00  0.00     0.065 A 
HETATM    8  C14 UNK     1      17.285  -7.127  14.166  1.00  0.00     0.070 A 
HETATM    9  C11 UNK     1      16.991  -6.689  15.457  1.00  0.00     0.092 A 
HETATM   10 Cl1  UNK     1      16.934  -8.743  13.673  1.00  0.00    -0.081 Cl
HETATM   11  C8  UNK     1      17.283  -5.379  15.833  1.00  0.00     0.071 A 
BRANCH   6  12
HETATM   12  O2  UNK     1      18.735  -4.104  12.716  1.00  0.00    -0.354 OA
HETATM   13  C17 UNK     1      20.128  -4.276  12.464  1.00  0.00     0.210 C 
ENDBRANCH   6  12
BRANCH   9  14
HETATM   14  O3  UNK     1      16.417  -7.522  16.372  1.00  0.00    -0.354 OA
HETATM   15  C18 UNK     1      15.694  -6.911  17.438  1.00  0.00     0.210 C 
ENDBRANCH   9  14
ENDBRANCH   2   5
BRANCH   3  16
HETATM   16  C3  UNK     1      19.274  -1.272  16.124  1.00  0.00     0.108 A 
HETATM   17  C5  UNK     1      19.151  -0.938  17.414  1.00  0.00     0.037 A 
HETATM   18  C1  UNK     1      19.070   0.460  17.807  1.00  0.00    -0.001 A 
HETATM   19  C4  UNK     1      19.125   1.440  16.820  1.00  0.00     0.089 A 
HETATM   20  C10 UNK     1      18.942   0.853  19.141  1.00  0.00     0.014 A 
HETATM   21  C13 UNK     1      19.053   2.797  17.128  1.00  0.00     0.038 A 
HETATM   22  O1  UNK     1      19.254   1.083  15.464  1.00  0.00    -0.274 OA
HETATM   23  C16 UNK     1      18.925   3.180  18.462  1.00  0.00     0.003 A 
HETATM   24  C15 UNK     1      18.869   2.211  19.466  1.00  0.00     0.001 A 
HETATM   25  C9  UNK     1      19.333  -0.247  15.058  1.00  0.00     0.304 A 
HETATM   26  O5  UNK     1      19.444  -0.548  13.874  1.00  0.00    -0.259 OA
ENDBRANCH   3  16
TORSDOF 4
ENDMDL
MODEL 5
REMARK VINA RESULT:      -8.3      7.838     11.419
REMARK  4 active torsions:
REMARK  status: ('A' for Active; 'I' for Inactive)
REMARK    1  A    between atoms: C6_13  and  O2_3 
REMARK    2  A    between atoms: C11_18  and  O3_4 
REMARK    3  A    between atoms: C2_9  and  N1_7 
REMARK       I    between atoms: C7_14  and  N1_7 
REMARK    4  A    between atoms: C3_10  and  C7_14 
ROOT
HETATM    1  O4  UNK     1      20.313  -2.469  37.137  1.00  0.00    -0.267 OA
HETATM    2  N1  UNK     1      19.651  -4.351  35.885  1.00  0.00    -0.320 N 
HETATM    3  C7  UNK     1      19.930  -3.008  36.100  1.00  0.00     0.262 C 
HETATM    4  H2  UNK     1      19.356  -4.642  34.956  1.00  0.00     0.169 HD
ENDROOT
BRANCH   2   5
HETATM    5  C2  UNK     1      19.746  -5.413  36.817  1.00  0.00     0.071 A 
HETATM    6  C6  UNK     1      18.704  -6.317  36.944  1.00  0.00     0.096 A 
HETATM    7  C12 UNK     1      18.812  -7.358  37.866  1.00  0.00     0.065 A 
HETATM    8  C14 UNK     1      19.960  -7.480  38.648  1.00  0.00     0.070 A 
HETATM    9  C11 UNK     1      21.001  -6.562  38.507  1.00  0.00     0.092 A 
HETATM   10 Cl1  UNK     1      20.066  -8.777  39.781  1.00  0.00    -0.081 Cl
HETATM   11  C8  UNK     1      20.893  -5.521  37.586  1.00  0.00     0.071 A 
BRANCH   6  12
HETATM   12  O2  UNK     1      17.573  -6.214  36.190  1.00  0.00    -0.354 OA
HETATM   13  C17 UNK     1      17.216  -7.347  35.400  1.00  0.00     0.210 C 
ENDBRANCH   6  12
BRANCH   9  14
HETATM   14  O3  UNK     1      22.134  -6.657  39.259  1.00  0.00    -0.354 OA
HETATM   15  C18 UNK     1      23.152  -7.536  38.786  1.00  0.00     0.210 C 
ENDBRANCH   9  14
ENDBRANCH   2   5
BRANCH   3  16
HETATM   16  C3  UNK     1      19.717  -2.199  34.895  1.00  0.00     0.108 A 
HETATM   17  C5  UNK     1      20.300  -2.641  33.775  1.00  0.00     0.037 A 
HETATM   18  C1  UNK     1      20.149  -1.907  32.528  1.00  0.00    -0.001 A 
HETATM   19  C4  UNK     1      19.389  -0.741  32.523  1.00  0.00     0.089 A 
HETATM   20  C10 UNK     1      20.738  -2.332  31.336  1.00  0.00     0.014 A 
HETATM   21  C13 UNK     1      19.204   0.010  31.363  1.00  0.00     0.038 A 
HETATM   22  O1  UNK     1      18.777  -0.279  33.705  1.00  0.00    -0.274 OA
HETATM   23  C16 UNK     1      19.797  -0.422  30.178  1.00  0.00     0.003 A 
HETATM   24  C15 UNK     1      20.562  -1.591  30.164  1.00  0.00     0.001 A 
HETATM   25  C9  UNK     1      18.905  -0.961  34.912  1.00  0.00     0.304 A 
HETATM   26  O5  UNK     1      18.371  -0.551  35.937  1.00  0.00    -0.259 OA
ENDBRANCH   3  16
TORSDOF 4
ENDMDL
MODEL 6
REMARK VINA RESULT:      -8.3      7.989     10.089
REMARK  4 active torsions:
REMARK  status: ('A' for Active; 'I' for Inactive)
REMARK    1  A    between atoms: C6_13  and  O2_3 
REMARK    2  A    between atoms: C11_18  and  O3_4 
REMARK    3  A    between atoms: C2_9  and  N1_7 
REMARK       I    between atoms: C7_14  and  N1_7 
REMARK    4  A    between atoms: C3_10  and  C7_14 
ROOT
HETATM    1  O4  UNK     1      20.956  -3.619  37.593  1.00  0.00    -0.267 OA
HETATM    2  N1  UNK     1      19.096  -3.628  36.148  1.00  0.00    -0.320 N 
HETATM    3  C7  UNK     1      20.102  -4.194  36.919  1.00  0.00     0.262 C 
HETATM    4  H2  UNK     1      18.455  -4.247  35.658  1.00  0.00     0.169 HD
ENDROOT
BRANCH   2   5
HETATM    5  C2  UNK     1      18.820  -2.252  35.962  1.00  0.00     0.071 A 
HETATM    6  C6  UNK     1      19.309  -1.593  34.845  1.00  0.00     0.096 A 
HETATM    7  C12 UNK     1      19.029  -0.237  34.676  1.00  0.00     0.065 A 
HETATM    8  C14 UNK     1      18.264   0.441  35.625  1.00  0.00     0.070 A 
HETATM    9  C11 UNK     1      17.779  -0.237  36.743  1.00  0.00     0.092 A 
HETATM   10 Cl1  UNK     1      17.935   2.118  35.390  1.00  0.00    -0.081 Cl
HETATM   11  C8  UNK     1      18.058  -1.593  36.913  1.00  0.00     0.071 A 
BRANCH   6  12
HETATM   12  O2  UNK     1      20.059  -2.237  33.908  1.00  0.00    -0.354 OA
HETATM   13  C17 UNK     1      19.861  -1.858  32.548  1.00  0.00     0.210 C 
ENDBRANCH   6  12
BRANCH   9  14
HETATM   14  O3  UNK     1      17.029   0.401  37.687  1.00  0.00    -0.354 OA
HETATM   15  C18 UNK     1      17.722   1.251  38.597  1.00  0.00     0.210 C 
ENDBRANCH   9  14
ENDBRANCH   2   5
BRANCH   3  16
HETATM   16  C3  UNK     1      20.078  -5.660  36.871  1.00  0.00     0.108 A 
HETATM   17  C5  UNK     1      19.950  -6.288  38.046  1.00  0.00     0.037 A 
HETATM   18  C1  UNK     1      19.917  -7.741  38.103  1.00  0.00    -0.001 A 
HETATM   19  C4  UNK     1      20.019  -8.462  36.918  1.00  0.00     0.089 A 
HETATM   20  C10 UNK     1      19.785  -8.437  39.306  1.00  0.00     0.014 A 
HETATM   21  C13 UNK     1      19.994  -9.856  36.902  1.00  0.00     0.038 A 
HETATM   22  O1  UNK     1      20.153  -7.797  35.684  1.00  0.00    -0.274 OA
HETATM   23  C16 UNK     1      19.862 -10.542  38.107  1.00  0.00     0.003 A 
HETATM   24  C15 UNK     1      19.757  -9.835  39.307  1.00  0.00     0.001 A 
HETATM   25  C9  UNK     1      20.189  -6.407  35.599  1.00  0.00     0.304 A 
HETATM   26  O5  UNK     1      20.307  -5.836  34.520  1.00  0.00    -0.259 OA
ENDBRANCH   3  16
TORSDOF 4
ENDMDL
MODEL 7
REMARK VINA RESULT:      -8.2     14.360     18.343
REMARK  4 active torsions:
REMARK  status: ('A' for Active; 'I' for Inactive)
REMARK    1  A    between atoms: C6_13  and  O2_3 
REMARK    2  A    between atoms: C11_18  and  O3_4 
REMARK    3  A    between atoms: C2_9  and  N1_7 
REMARK       I    between atoms: C7_14  and  N1_7 
REMARK    4  A    between atoms: C3_10  and  C7_14 
ROOT
HETATM    1  O4  UNK     1      17.622  -2.329  16.264  1.00  0.00    -0.267 OA
HETATM    2  N1  UNK     1      19.668  -1.910  15.175  1.00  0.00    -0.320 N 
HETATM    3  C7  UNK     1      18.658  -1.686  16.101  1.00  0.00     0.262 C 
HETATM    4  H2  UNK     1      20.474  -1.290  15.178  1.00  0.00     0.169 HD
ENDROOT
BRANCH   2   5
HETATM    5  C2  UNK     1      19.737  -2.936  14.202  1.00  0.00     0.071 A 
HETATM    6  C6  UNK     1      19.173  -2.744  12.951  1.00  0.00     0.096 A 
HETATM    7  C12 UNK     1      19.249  -3.766  12.005  1.00  0.00     0.065 A 
HETATM    8  C14 UNK     1      19.889  -4.964  12.321  1.00  0.00     0.070 A 
HETATM    9  C11 UNK     1      20.452  -5.141  13.585  1.00  0.00     0.092 A 
HETATM   10 Cl1  UNK     1      19.966  -6.210  11.130  1.00  0.00    -0.081 Cl
HETATM   11  C8  UNK     1      20.376  -4.121  14.532  1.00  0.00     0.071 A 
BRANCH   6  12
HETATM   12  O2  UNK     1      18.543  -1.581  12.624  1.00  0.00    -0.354 OA
HETATM   13  C17 UNK     1      18.950  -0.943  11.415  1.00  0.00     0.210 C 
ENDBRANCH   6  12
BRANCH   9  14
HETATM   14  O3  UNK     1      21.083  -6.302  13.921  1.00  0.00    -0.354 OA
HETATM   15  C18 UNK     1      21.398  -6.491  15.299  1.00  0.00     0.210 C 
ENDBRANCH   9  14
ENDBRANCH   2   5
BRANCH   3  16
HETATM   16  C3  UNK     1      18.934  -0.522  16.950  1.00  0.00     0.108 A 
HETATM   17  C5  UNK     1      18.948  -0.743  18.270  1.00  0.00     0.037 A 
HETATM   18  C1  UNK     1      19.212   0.349  19.195  1.00  0.00    -0.001 A 
HETATM   19  C4  UNK     1      19.448   1.621  18.683  1.00  0.00     0.089 A 
HETATM   20  C10 UNK     1      19.237   0.163  20.578  1.00  0.00     0.014 A 
HETATM   21  C13 UNK     1      19.706   2.710  19.514  1.00  0.00     0.038 A 
HETATM   22  O1  UNK     1      19.431   1.849  17.294  1.00  0.00    -0.274 OA
HETATM   23  C16 UNK     1      19.729   2.516  20.894  1.00  0.00     0.003 A 
HETATM   24  C15 UNK     1      19.495   1.245  21.425  1.00  0.00     0.001 A 
HETATM   25  C9  UNK     1      19.182   0.823  16.385  1.00  0.00     0.304 A 
HETATM   26  O5  UNK     1      19.168   1.031  15.176  1.00  0.00    -0.259 OA
ENDBRANCH   3  16
TORSDOF 4
ENDMDL
MODEL 8
REMARK VINA RESULT:      -8.2      6.979      9.284
REMARK  4 active torsions:
REMARK  status: ('A' for Active; 'I' for Inactive)
REMARK    1  A    between atoms: C6_13  and  O2_3 
REMARK    2  A    between atoms: C11_18  and  O3_4 
REMARK    3  A    between atoms: C2_9  and  N1_7 
REMARK       I    between atoms: C7_14  and  N1_7 
REMARK    4  A    between atoms: C3_10  and  C7_14 
ROOT
HETATM    1  O4  UNK     1      20.562  -3.484  34.341  1.00  0.00    -0.267 OA
HETATM    2  N1  UNK     1      19.028  -2.413  35.772  1.00  0.00    -0.320 N 
HETATM    3  C7  UNK     1      19.868  -3.437  35.355  1.00  0.00     0.262 C 
HETATM    4  H2  UNK     1      18.530  -2.523  36.652  1.00  0.00     0.169 HD
ENDROOT
BRANCH   2   5
HETATM    5  C2  UNK     1      18.778  -1.181  35.120  1.00  0.00     0.071 A 
HETATM    6  C6  UNK     1      18.419  -0.067  35.861  1.00  0.00     0.096 A 
HETATM    7  C12 UNK     1      18.176   1.140  35.204  1.00  0.00     0.065 A 
HETATM    8  C14 UNK     1      18.295   1.214  33.816  1.00  0.00     0.070 A 
HETATM    9  C11 UNK     1      18.657   0.083  33.086  1.00  0.00     0.092 A 
HETATM   10 Cl1  UNK     1      17.987   2.719  33.031  1.00  0.00    -0.081 Cl
HETATM   11  C8  UNK     1      18.901  -1.123  33.742  1.00  0.00     0.071 A 
BRANCH   6  12
HETATM   12  O2  UNK     1      18.297  -0.120  37.217  1.00  0.00    -0.354 OA
HETATM   13  C17 UNK     1      17.571   0.936  37.843  1.00  0.00     0.210 C 
ENDBRANCH   6  12
BRANCH   9  14
HETATM   14  O3  UNK     1      18.781   0.127  31.728  1.00  0.00    -0.354 OA
HETATM   15  C18 UNK     1      19.831  -0.642  31.149  1.00  0.00     0.210 C 
ENDBRANCH   9  14
ENDBRANCH   2   5
BRANCH   3  16
HETATM   16  C3  UNK     1      19.873  -4.566  36.293  1.00  0.00     0.108 A 
HETATM   17  C5  UNK     1      19.414  -5.730  35.820  1.00  0.00     0.037 A 
HETATM   18  C1  UNK     1      19.378  -6.907  36.675  1.00  0.00    -0.001 A 
HETATM   19  C4  UNK     1      19.829  -6.799  37.987  1.00  0.00     0.089 A 
HETATM   20  C10 UNK     1      18.908  -8.142  36.223  1.00  0.00     0.014 A 
HETATM   21  C13 UNK     1      19.821  -7.887  38.857  1.00  0.00     0.038 A 
HETATM   22  O1  UNK     1      20.311  -5.571  38.480  1.00  0.00    -0.274 OA
HETATM   23  C16 UNK     1      19.350  -9.116  38.398  1.00  0.00     0.003 A 
HETATM   24  C15 UNK     1      18.894  -9.243  37.083  1.00  0.00     0.001 A 
HETATM   25  C9  UNK     1      20.357  -4.428  37.685  1.00  0.00     0.304 A 
HETATM   26  O5  UNK     1      20.777  -3.362  38.123  1.00  0.00    -0.259 OA
ENDBRANCH   3  16
TORSDOF 4
ENDMDL
MODEL 9
REMARK VINA RESULT:      -8.2      2.895      8.093
REMARK  4 active torsions:
REMARK  status: ('A' for Active; 'I' for Inactive)
REMARK    1  A    between atoms: C6_13  and  O2_3 
REMARK    2  A    between atoms: C11_18  and  O3_4 
REMARK    3  A    between atoms: C2_9  and  N1_7 
REMARK       I    between atoms: C7_14  and  N1_7 
REMARK    4  A    between atoms: C3_10  and  C7_14 
ROOT
HETATM    1  O4  UNK     1      19.442   5.574  32.757  1.00  0.00    -0.267 OA
HETATM    2  N1  UNK     1      17.622   4.317  31.945  1.00  0.00    -0.320 N 
HETATM    3  C7  UNK     1      18.272   5.460  32.391  1.00  0.00     0.262 C 
HETATM    4  H2  UNK     1      16.648   4.393  31.663  1.00  0.00     0.169 HD
ENDROOT
BRANCH   2   5
HETATM    5  C2  UNK     1      18.160   3.015  31.807  1.00  0.00     0.071 A 
HETATM    6  C6  UNK     1      18.200   2.162  32.899  1.00  0.00     0.096 A 
HETATM    7  C12 UNK     1      18.733   0.883  32.746  1.00  0.00     0.065 A 
HETATM    8  C14 UNK     1      19.219   0.473  31.505  1.00  0.00     0.070 A 
HETATM    9  C11 UNK     1      19.172   1.343  30.416  1.00  0.00     0.092 A 
HETATM   10 Cl1  UNK     1      19.874  -1.115  31.347  1.00  0.00    -0.081 Cl
HETATM   11  C8  UNK     1      18.639   2.622  30.567  1.00  0.00     0.071 A 
BRANCH   6  12
HETATM   12  O2  UNK     1      17.731   2.545  34.119  1.00  0.00    -0.354 OA
HETATM   13  C17 UNK     1      18.333   1.942  35.262  1.00  0.00     0.210 C 
ENDBRANCH   6  12
BRANCH   9  14
HETATM   14  O3  UNK     1      19.640   0.969  29.191  1.00  0.00    -0.354 OA
HETATM   15  C18 UNK     1      18.714   0.338  28.309  1.00  0.00     0.210 C 
ENDBRANCH   9  14
ENDBRANCH   2   5
BRANCH   3  16
HETATM   16  C3  UNK     1      17.390   6.632  32.399  1.00  0.00     0.108 A 
HETATM   17  C5  UNK     1      16.927   7.016  33.594  1.00  0.00     0.037 A 
HETATM   18  C1  UNK     1      16.044   8.167  33.705  1.00  0.00    -0.001 A 
HETATM   19  C4  UNK     1      15.692   8.858  32.550  1.00  0.00     0.089 A 
HETATM   20  C10 UNK     1      15.538   8.603  34.932  1.00  0.00     0.014 A 
HETATM   21  C13 UNK     1      14.851   9.968  32.586  1.00  0.00     0.038 A 
HETATM   22  O1  UNK     1      16.182   8.449  31.294  1.00  0.00    -0.274 OA
HETATM   23  C16 UNK     1      14.350  10.396  33.814  1.00  0.00     0.003 A 
HETATM   24  C15 UNK     1      14.693   9.715  34.985  1.00  0.00     0.001 A 
HETATM   25  C9  UNK     1      17.028   7.351  31.158  1.00  0.00     0.304 A 
HETATM   26  O5  UNK     1      17.449   7.002  30.060  1.00  0.00    -0.259 OA
ENDBRANCH   3  16
TORSDOF 4
ENDMDL
MODEL 10
REMARK VINA RESULT:      -8.1     14.357     18.244
REMARK  4 active torsions:
REMARK  status: ('A' for Active; 'I' for Inactive)
REMARK    1  A    between atoms: C6_13  and  O2_3 
REMARK    2  A    between atoms: C11_18  and  O3_4 
REMARK    3  A    between atoms: C2_9  and  N1_7 
REMARK       I    between atoms: C7_14  and  N1_7 
REMARK    4  A    between atoms: C3_10  and  C7_14 
ROOT
HETATM    1  O4  UNK     1      17.473  -2.273  16.279  1.00  0.00    -0.267 OA
HETATM    2  N1  UNK     1      19.585  -2.021  15.268  1.00  0.00    -0.320 N 
HETATM    3  C7  UNK     1      18.556  -1.705  16.145  1.00  0.00     0.262 C 
HETATM    4  H2  UNK     1      20.431  -1.457  15.292  1.00  0.00     0.169 HD
ENDROOT
BRANCH   2   5
HETATM    5  C2  UNK     1      19.623  -3.074  14.323  1.00  0.00     0.071 A 
HETATM    6  C6  UNK     1      20.168  -4.299  14.672  1.00  0.00     0.096 A 
HETATM    7  C12 UNK     1      20.198  -5.326  13.729  1.00  0.00     0.065 A 
HETATM    8  C14 UNK     1      19.682  -5.115  12.450  1.00  0.00     0.070 A 
HETATM    9  C11 UNK     1      19.137  -3.876  12.115  1.00  0.00     0.092 A 
HETATM   10 Cl1  UNK     1      19.734  -6.403  11.305  1.00  0.00    -0.081 Cl
HETATM   11  C8  UNK     1      19.106  -2.848  13.057  1.00  0.00     0.071 A 
BRANCH   6  12
HETATM   12  O2  UNK     1      20.678  -4.524  15.915  1.00  0.00    -0.354 OA
HETATM   13  C17 UNK     1      22.084  -4.741  16.009  1.00  0.00     0.210 C 
ENDBRANCH   6  12
BRANCH   9  14
HETATM   14  O3  UNK     1      18.626  -3.641  10.872  1.00  0.00    -0.354 OA
HETATM   15  C18 UNK     1      19.529  -3.151   9.884  1.00  0.00     0.210 C 
ENDBRANCH   9  14
ENDBRANCH   2   5
BRANCH   3  16
HETATM   16  C3  UNK     1      18.876  -0.542  16.979  1.00  0.00     0.108 A 
HETATM   17  C5  UNK     1      18.889  -0.747  18.301  1.00  0.00     0.037 A 
HETATM   18  C1  UNK     1      19.194   0.345  19.212  1.00  0.00    -0.001 A 
HETATM   19  C4  UNK     1      19.473   1.602  18.684  1.00  0.00     0.089 A 
HETATM   20  C10 UNK     1      19.219   0.176  20.597  1.00  0.00     0.014 A 
HETATM   21  C13 UNK     1      19.773   2.691  19.500  1.00  0.00     0.038 A 
HETATM   22  O1  UNK     1      19.459   1.813  17.291  1.00  0.00    -0.274 OA
HETATM   23  C16 UNK     1      19.795   2.513  20.882  1.00  0.00     0.003 A 
HETATM   24  C15 UNK     1      19.519   1.258  21.430  1.00  0.00     0.001 A 
HETATM   25  C9  UNK     1      19.169   0.787  16.396  1.00  0.00     0.304 A 
HETATM   26  O5  UNK     1      19.158   0.980  15.185  1.00  0.00    -0.259 OA
ENDBRANCH   3  16
TORSDOF 4
ENDMDL
