MODEL 1
REMARK VINA RESULT:     -10.8      0.000      0.000
REMARK  5 active torsions:
REMARK  status: ('A' for Active; 'I' for Inactive)
REMARK    1  A    between atoms: C5_11  and  N1_4 
REMARK    2  A    between atoms: C6_12  and  N2_5 
REMARK    3  A    between atoms: C17_23  and  N3_6 
REMARK       I    between atoms: C9_15  and  N3_6 
REMARK    4  A    between atoms: C5_11  and  C7_13 
REMARK    5  A    between atoms: C6_12  and  C9_15 
ROOT
HETATM    1  N1  UNK     1      19.330  -3.218  36.424  1.00  0.00     0.096 N 
HETATM    2  N2  UNK     1      18.359  -0.566  35.803  1.00  0.00     0.100 N 
HETATM    3  C1  UNK     1      20.026  -2.357  35.461  1.00  0.00     0.303 C 
HETATM    4  C2  UNK     1      18.635  -2.405  37.430  1.00  0.00     0.303 C 
HETATM    5  C3  UNK     1      19.051  -1.380  34.796  1.00  0.00     0.303 C 
HETATM    6  C4  UNK     1      17.661  -1.427  36.765  1.00  0.00     0.303 C 
ENDROOT
BRANCH   1   7
HETATM    7  C5  UNK     1      20.262  -4.147  37.061  1.00  0.00     0.312 C 
BRANCH   7   8
HETATM    8  C7  UNK     1      20.197  -5.508  36.460  1.00  0.00    -0.011 A 
HETATM    9  C10 UNK     1      20.274  -5.685  35.134  1.00  0.00     0.092 A 
HETATM   10  C13 UNK     1      20.215  -7.010  34.495  1.00  0.00     0.288 A 
HETATM   11  O1  UNK     1      20.074  -8.102  35.337  1.00  0.00    -0.275 OA
HETATM   12  O3  UNK     1      20.289  -7.133  33.277  1.00  0.00    -0.260 OA
HETATM   13  C11 UNK     1      19.991  -7.948  36.736  1.00  0.00     0.090 A 
HETATM   14  C8  UNK     1      20.048  -6.685  37.327  1.00  0.00     0.006 A 
HETATM   15  C14 UNK     1      19.850  -9.116  37.486  1.00  0.00     0.045 A 
HETATM   16  C12 UNK     1      19.958  -6.617  38.724  1.00  0.00     0.015 A 
HETATM   17  C16 UNK     1      19.816  -7.779  39.489  1.00  0.00     0.007 A 
HETATM   18  C15 UNK     1      19.762  -9.028  38.871  1.00  0.00    -0.059 A 
HETATM   19  C20 UNK     1      19.611 -10.262  39.693  1.00  0.00     0.048 C 
ENDBRANCH   7   8
ENDBRANCH   1   7
BRANCH   2  20
HETATM   20  C6  UNK     1      17.428   0.364  35.168  1.00  0.00     0.375 C 
BRANCH  20  21
HETATM   21  C9  UNK     1      18.201   1.540  34.594  1.00  0.00     0.250 C 
HETATM   22  O2  UNK     1      19.139   2.065  35.186  1.00  0.00    -0.271 OA
HETATM   23  N3  UNK     1      17.692   1.890  33.346  1.00  0.00    -0.326 N 
HETATM   24  H15 UNK     1      16.912   1.346  32.984  1.00  0.00     0.169 HD
BRANCH  23  25
HETATM   25  C17 UNK     1      18.135   2.927  32.492  1.00  0.00     0.035 A 
HETATM   26  C18 UNK     1      18.252   4.229  32.977  1.00  0.00     0.037 A 
HETATM   27  C21 UNK     1      18.690   5.251  32.135  1.00  0.00    -0.054 A 
HETATM   28  C22 UNK     1      19.009   4.971  30.807  1.00  0.00    -0.056 A 
HETATM   29  C24 UNK     1      18.807   6.638  32.678  1.00  0.00     0.049 C 
HETATM   30  C23 UNK     1      18.892   3.669  30.320  1.00  0.00     0.009 A 
HETATM   31  C25 UNK     1      19.481   6.048  29.887  1.00  0.00     0.049 C 
HETATM   32  C19 UNK     1      18.455   2.647  31.163  1.00  0.00     0.030 A 
ENDBRANCH  23  25
ENDBRANCH  20  21
ENDBRANCH   2  20
TORSDOF 5
ENDMDL
MODEL 2
REMARK VINA RESULT:      -9.7      3.738     12.642
REMARK  5 active torsions:
REMARK  status: ('A' for Active; 'I' for Inactive)
REMARK    1  A    between atoms: C5_11  and  N1_4 
REMARK    2  A    between atoms: C6_12  and  N2_5 
REMARK    3  A    between atoms: C17_23  and  N3_6 
REMARK       I    between atoms: C9_15  and  N3_6 
REMARK    4  A    between atoms: C5_11  and  C7_13 
REMARK    5  A    between atoms: C6_12  and  C9_15 
ROOT
HETATM    1  N1  UNK     1      18.070   5.369  31.576  1.00  0.00     0.096 N 
HETATM    2  N2  UNK     1      19.010   2.701  30.977  1.00  0.00     0.100 N 
HETATM    3  C1  UNK     1      18.307   4.387  32.641  1.00  0.00     0.303 C 
HETATM    4  C2  UNK     1      18.957   5.111  30.434  1.00  0.00     0.303 C 
HETATM    5  C3  UNK     1      18.122   2.958  32.117  1.00  0.00     0.303 C 
HETATM    6  C4  UNK     1      18.773   3.682  29.911  1.00  0.00     0.303 C 
ENDROOT
BRANCH   1   7
HETATM    7  C5  UNK     1      18.251   6.730  32.076  1.00  0.00     0.312 C 
BRANCH   7   8
HETATM    8  C7  UNK     1      16.952   7.399  32.367  1.00  0.00    -0.011 A 
HETATM    9  C10 UNK     1      15.789   6.843  32.003  1.00  0.00     0.092 A 
HETATM   10  C13 UNK     1      14.482   7.467  32.268  1.00  0.00     0.288 A 
HETATM   11  O1  UNK     1      14.495   8.686  32.929  1.00  0.00    -0.275 OA
HETATM   12  O3  UNK     1      13.437   6.927  31.920  1.00  0.00    -0.260 OA
HETATM   13  C11 UNK     1      15.703   9.295  33.324  1.00  0.00     0.090 A 
HETATM   14  C8  UNK     1      16.935   8.693  33.065  1.00  0.00     0.006 A 
HETATM   15  C14 UNK     1      15.597  10.522  33.981  1.00  0.00     0.045 A 
HETATM   16  C12 UNK     1      18.089   9.364  33.490  1.00  0.00     0.015 A 
HETATM   17  C16 UNK     1      17.999  10.594  34.150  1.00  0.00     0.007 A 
HETATM   18  C15 UNK     1      16.755  11.173  34.395  1.00  0.00    -0.059 A 
HETATM   19  C20 UNK     1      16.667  12.484  35.099  1.00  0.00     0.048 C 
ENDBRANCH   7   8
ENDBRANCH   1   7
BRANCH   2  20
HETATM   20  C6  UNK     1      18.832   1.339  30.478  1.00  0.00     0.375 C 
BRANCH  20  21
HETATM   21  C9  UNK     1      19.596   0.372  31.365  1.00  0.00     0.250 C 
HETATM   22  O2  UNK     1      20.759   0.050  31.144  1.00  0.00    -0.271 OA
HETATM   23  N3  UNK     1      18.791  -0.054  32.419  1.00  0.00    -0.326 N 
HETATM   24  H15 UNK     1      17.844   0.315  32.471  1.00  0.00     0.169 HD
BRANCH  23  25
HETATM   25  C17 UNK     1      19.132  -0.953  33.458  1.00  0.00     0.035 A 
HETATM   26  C18 UNK     1      18.595  -0.782  34.734  1.00  0.00     0.037 A 
HETATM   27  C21 UNK     1      18.930  -1.667  35.757  1.00  0.00    -0.054 A 
HETATM   28  C22 UNK     1      19.806  -2.724  35.506  1.00  0.00    -0.056 A 
HETATM   29  C24 UNK     1      18.342  -1.464  37.115  1.00  0.00     0.049 C 
HETATM   30  C23 UNK     1      20.344  -2.896  34.230  1.00  0.00     0.009 A 
HETATM   31  C25 UNK     1      20.180  -3.686  36.584  1.00  0.00     0.049 C 
HETATM   32  C19 UNK     1      20.007  -2.010  33.207  1.00  0.00     0.030 A 
ENDBRANCH  23  25
ENDBRANCH  20  21
ENDBRANCH   2  20
TORSDOF 5
ENDMDL
MODEL 3
REMARK VINA RESULT:      -9.7      1.274      1.907
REMARK  5 active torsions:
REMARK  status: ('A' for Active; 'I' for Inactive)
REMARK    1  A    between atoms: C5_11  and  N1_4 
REMARK    2  A    between atoms: C6_12  and  N2_5 
REMARK    3  A    between atoms: C17_23  and  N3_6 
REMARK       I    between atoms: C9_15  and  N3_6 
REMARK    4  A    between atoms: C5_11  and  C7_13 
REMARK    5  A    between atoms: C6_12  and  C9_15 
ROOT
HETATM    1  N1  UNK     1      19.683  -3.177  36.182  1.00  0.00     0.096 N 
HETATM    2  N2  UNK     1      18.643  -0.485  36.006  1.00  0.00     0.100 N 
HETATM    3  C1  UNK     1      20.143  -2.248  35.143  1.00  0.00     0.303 C 
HETATM    4  C2  UNK     1      19.269  -2.440  37.382  1.00  0.00     0.303 C 
HETATM    5  C3  UNK     1      19.055  -1.223  34.806  1.00  0.00     0.303 C 
HETATM    6  C4  UNK     1      18.182  -1.414  37.045  1.00  0.00     0.303 C 
ENDROOT
BRANCH   1   7
HETATM    7  C5  UNK     1      20.724  -4.152  36.505  1.00  0.00     0.312 C 
BRANCH   7   8
HETATM    8  C7  UNK     1      20.162  -5.505  36.772  1.00  0.00    -0.011 A 
HETATM    9  C10 UNK     1      19.095  -5.959  36.101  1.00  0.00     0.092 A 
HETATM   10  C13 UNK     1      18.506  -7.288  36.331  1.00  0.00     0.288 A 
HETATM   11  O1  UNK     1      19.111  -8.080  37.295  1.00  0.00    -0.275 OA
HETATM   12  O3  UNK     1      17.528  -7.670  35.696  1.00  0.00    -0.260 OA
HETATM   13  C11 UNK     1      20.234  -7.630  38.018  1.00  0.00     0.090 A 
HETATM   14  C8  UNK     1      20.782  -6.367  37.789  1.00  0.00     0.006 A 
HETATM   15  C14 UNK     1      20.761  -8.511  38.964  1.00  0.00     0.045 A 
HETATM   16  C12 UNK     1      21.898  -5.995  38.550  1.00  0.00     0.015 A 
HETATM   17  C16 UNK     1      22.437  -6.866  39.502  1.00  0.00     0.007 A 
HETATM   18  C15 UNK     1      21.869  -8.123  39.710  1.00  0.00    -0.059 A 
HETATM   19  C20 UNK     1      22.449  -9.046  40.726  1.00  0.00     0.048 C 
ENDBRANCH   7   8
ENDBRANCH   1   7
BRANCH   2  20
HETATM   20  C6  UNK     1      17.605   0.491  35.684  1.00  0.00     0.375 C 
BRANCH  20  21
HETATM   21  C9  UNK     1      18.240   1.709  35.036  1.00  0.00     0.250 C 
HETATM   22  O2  UNK     1      19.094   2.387  35.598  1.00  0.00    -0.271 OA
HETATM   23  N3  UNK     1      17.717   1.905  33.759  1.00  0.00    -0.326 N 
HETATM   24  H15 UNK     1      17.017   1.244  33.429  1.00  0.00     0.169 HD
BRANCH  23  25
HETATM   25  C17 UNK     1      18.048   2.925  32.837  1.00  0.00     0.035 A 
HETATM   26  C18 UNK     1      18.230   2.617  31.489  1.00  0.00     0.037 A 
HETATM   27  C21 UNK     1      18.556   3.623  30.580  1.00  0.00    -0.054 A 
HETATM   28  C22 UNK     1      18.702   4.939  31.020  1.00  0.00    -0.056 A 
HETATM   29  C24 UNK     1      18.745   3.268  29.142  1.00  0.00     0.049 C 
HETATM   30  C23 UNK     1      18.521   5.249  32.368  1.00  0.00     0.009 A 
HETATM   31  C25 UNK     1      19.049   6.033  30.067  1.00  0.00     0.049 C 
HETATM   32  C19 UNK     1      18.194   4.241  33.276  1.00  0.00     0.030 A 
ENDBRANCH  23  25
ENDBRANCH  20  21
ENDBRANCH   2  20
TORSDOF 5
ENDMDL
MODEL 4
REMARK VINA RESULT:      -9.7      5.625     12.910
REMARK  5 active torsions:
REMARK  status: ('A' for Active; 'I' for Inactive)
REMARK    1  A    between atoms: C5_11  and  N1_4 
REMARK    2  A    between atoms: C6_12  and  N2_5 
REMARK    3  A    between atoms: C17_23  and  N3_6 
REMARK       I    between atoms: C9_15  and  N3_6 
REMARK    4  A    between atoms: C5_11  and  C7_13 
REMARK    5  A    between atoms: C6_12  and  C9_15 
ROOT
HETATM    1  N1  UNK     1      18.228   6.068  32.153  1.00  0.00     0.096 N 
HETATM    2  N2  UNK     1      18.919   4.020  30.232  1.00  0.00     0.100 N 
HETATM    3  C1  UNK     1      18.073   4.643  32.469  1.00  0.00     0.303 C 
HETATM    4  C2  UNK     1      19.318   6.264  31.188  1.00  0.00     0.303 C 
HETATM    5  C3  UNK     1      17.828   3.826  31.196  1.00  0.00     0.303 C 
HETATM    6  C4  UNK     1      19.074   5.445  29.916  1.00  0.00     0.303 C 
ENDROOT
BRANCH   1   7
HETATM    7  C5  UNK     1      18.466   6.846  33.368  1.00  0.00     0.312 C 
BRANCH   7   8
HETATM    8  C7  UNK     1      17.340   7.773  33.670  1.00  0.00    -0.011 A 
HETATM    9  C10 UNK     1      16.076   7.332  33.735  1.00  0.00     0.092 A 
HETATM   10  C13 UNK     1      14.932   8.210  34.030  1.00  0.00     0.288 A 
HETATM   11  O1  UNK     1      15.215   9.550  34.247  1.00  0.00    -0.275 OA
HETATM   12  O3  UNK     1      13.789   7.770  34.082  1.00  0.00    -0.260 OA
HETATM   13  C11 UNK     1      16.534  10.044  34.185  1.00  0.00     0.090 A 
HETATM   14  C8  UNK     1      17.608   9.199  33.904  1.00  0.00     0.006 A 
HETATM   15  C14 UNK     1      16.700  11.410  34.420  1.00  0.00     0.045 A 
HETATM   16  C12 UNK     1      18.888   9.768  33.861  1.00  0.00     0.015 A 
HETATM   17  C16 UNK     1      19.071  11.135  34.093  1.00  0.00     0.007 A 
HETATM   18  C15 UNK     1      17.979  11.956  34.372  1.00  0.00    -0.059 A 
HETATM   19  C20 UNK     1      18.181  13.412  34.619  1.00  0.00     0.048 C 
ENDBRANCH   7   8
ENDBRANCH   1   7
BRANCH   2  20
HETATM   20  C6  UNK     1      18.684   3.241  29.019  1.00  0.00     0.375 C 
BRANCH  20  21
HETATM   21  C9  UNK     1      18.581   1.768  29.376  1.00  0.00     0.250 C 
HETATM   22  O2  UNK     1      17.542   1.129  29.248  1.00  0.00    -0.271 OA
HETATM   23  N3  UNK     1      19.807   1.297  29.840  1.00  0.00    -0.326 N 
HETATM   24  H15 UNK     1      20.583   1.954  29.877  1.00  0.00     0.169 HD
BRANCH  23  25
HETATM   25  C17 UNK     1      20.122  -0.014  30.271  1.00  0.00     0.035 A 
HETATM   26  C18 UNK     1      19.901  -0.385  31.596  1.00  0.00     0.037 A 
HETATM   27  C21 UNK     1      20.211  -1.677  32.020  1.00  0.00    -0.054 A 
HETATM   28  C22 UNK     1      20.743  -2.598  31.118  1.00  0.00    -0.056 A 
HETATM   29  C24 UNK     1      19.965  -2.051  33.445  1.00  0.00     0.049 C 
HETATM   30  C23 UNK     1      20.965  -2.227  29.792  1.00  0.00     0.009 A 
HETATM   31  C25 UNK     1      21.083  -3.986  31.547  1.00  0.00     0.049 C 
HETATM   32  C19 UNK     1      20.654  -0.935  29.368  1.00  0.00     0.030 A 
ENDBRANCH  23  25
ENDBRANCH  20  21
ENDBRANCH   2  20
TORSDOF 5
ENDMDL
MODEL 5
REMARK VINA RESULT:      -9.5      1.728      2.613
REMARK  5 active torsions:
REMARK  status: ('A' for Active; 'I' for Inactive)
REMARK    1  A    between atoms: C5_11  and  N1_4 
REMARK    2  A    between atoms: C6_12  and  N2_5 
REMARK    3  A    between atoms: C17_23  and  N3_6 
REMARK       I    between atoms: C9_15  and  N3_6 
REMARK    4  A    between atoms: C5_11  and  C7_13 
REMARK    5  A    between atoms: C6_12  and  C9_15 
ROOT
HETATM    1  N1  UNK     1      19.487  -3.387  36.515  1.00  0.00     0.096 N 
HETATM    2  N2  UNK     1      18.322  -0.747  36.334  1.00  0.00     0.100 N 
HETATM    3  C1  UNK     1      18.070  -3.157  36.818  1.00  0.00     0.303 C 
HETATM    4  C2  UNK     1      19.967  -2.407  35.533  1.00  0.00     0.303 C 
HETATM    5  C3  UNK     1      17.843  -1.727  37.318  1.00  0.00     0.303 C 
HETATM    6  C4  UNK     1      19.740  -0.977  36.033  1.00  0.00     0.303 C 
ENDROOT
BRANCH   1   7
HETATM    7  C5  UNK     1      19.701  -4.751  36.035  1.00  0.00     0.312 C 
BRANCH   7   8
HETATM    8  C7  UNK     1      20.542  -5.551  36.969  1.00  0.00    -0.011 A 
HETATM    9  C10 UNK     1      21.605  -5.010  37.580  1.00  0.00     0.092 A 
HETATM   10  C13 UNK     1      22.464  -5.761  38.510  1.00  0.00     0.288 A 
HETATM   11  O1  UNK     1      22.127  -7.086  38.740  1.00  0.00    -0.275 OA
HETATM   12  O3  UNK     1      23.429  -5.233  39.053  1.00  0.00    -0.260 OA
HETATM   13  C11 UNK     1      21.015  -7.682  38.111  1.00  0.00     0.090 A 
HETATM   14  C8  UNK     1      20.209  -6.958  37.231  1.00  0.00     0.006 A 
HETATM   15  C14 UNK     1      20.770  -9.022  38.415  1.00  0.00     0.045 A 
HETATM   16  C12 UNK     1      19.123  -7.623  36.647  1.00  0.00     0.015 A 
HETATM   17  C16 UNK     1      18.865  -8.966  36.942  1.00  0.00     0.007 A 
HETATM   18  C15 UNK     1      19.687  -9.665  37.825  1.00  0.00    -0.059 A 
HETATM   19  C20 UNK     1      19.405 -11.096  38.135  1.00  0.00     0.048 C 
ENDBRANCH   7   8
ENDBRANCH   1   7
BRANCH   2  20
HETATM   20  C6  UNK     1      18.106   0.616  36.812  1.00  0.00     0.375 C 
BRANCH  20  21
HETATM   21  C9  UNK     1      18.753   1.598  35.850  1.00  0.00     0.250 C 
HETATM   22  O2  UNK     1      19.858   2.090  36.053  1.00  0.00    -0.271 OA
HETATM   23  N3  UNK     1      17.921   1.820  34.755  1.00  0.00    -0.326 N 
HETATM   24  H15 UNK     1      17.033   1.324  34.728  1.00  0.00     0.169 HD
BRANCH  23  25
HETATM   25  C17 UNK     1      18.161   2.663  33.645  1.00  0.00     0.035 A 
HETATM   26  C18 UNK     1      18.281   2.118  32.367  1.00  0.00     0.037 A 
HETATM   27  C21 UNK     1      18.518   2.949  31.272  1.00  0.00    -0.054 A 
HETATM   28  C22 UNK     1      18.636   4.327  31.456  1.00  0.00    -0.056 A 
HETATM   29  C24 UNK     1      18.643   2.342  29.914  1.00  0.00     0.049 C 
HETATM   30  C23 UNK     1      18.516   4.873  32.734  1.00  0.00     0.009 A 
HETATM   31  C25 UNK     1      18.888   5.238  30.301  1.00  0.00     0.049 C 
HETATM   32  C19 UNK     1      18.279   4.041  33.828  1.00  0.00     0.030 A 
ENDBRANCH  23  25
ENDBRANCH  20  21
ENDBRANCH   2  20
TORSDOF 5
ENDMDL
MODEL 6
REMARK VINA RESULT:      -9.5      5.612     12.347
REMARK  5 active torsions:
REMARK  status: ('A' for Active; 'I' for Inactive)
REMARK    1  A    between atoms: C5_11  and  N1_4 
REMARK    2  A    between atoms: C6_12  and  N2_5 
REMARK    3  A    between atoms: C17_23  and  N3_6 
REMARK       I    between atoms: C9_15  and  N3_6 
REMARK    4  A    between atoms: C5_11  and  C7_13 
REMARK    5  A    between atoms: C6_12  and  C9_15 
ROOT
HETATM    1  N1  UNK     1      18.399   5.339  32.761  1.00  0.00     0.096 N 
HETATM    2  N2  UNK     1      18.840   3.681  30.434  1.00  0.00     0.100 N 
HETATM    3  C1  UNK     1      18.207   3.886  32.813  1.00  0.00     0.303 C 
HETATM    4  C2  UNK     1      19.414   5.686  31.758  1.00  0.00     0.303 C 
HETATM    5  C3  UNK     1      17.824   3.335  31.435  1.00  0.00     0.303 C 
HETATM    6  C4  UNK     1      19.032   5.136  30.380  1.00  0.00     0.303 C 
ENDROOT
BRANCH   1   7
HETATM    7  C5  UNK     1      18.768   5.862  34.075  1.00  0.00     0.312 C 
BRANCH   7   8
HETATM    8  C7  UNK     1      18.735   7.351  34.117  1.00  0.00    -0.011 A 
HETATM    9  C10 UNK     1      19.852   8.064  34.315  1.00  0.00     0.092 A 
HETATM   10  C13 UNK     1      19.868   9.535  34.365  1.00  0.00     0.288 A 
HETATM   11  O1  UNK     1      18.652  10.178  34.194  1.00  0.00    -0.275 OA
HETATM   12  O3  UNK     1      20.911  10.155  34.547  1.00  0.00    -0.260 OA
HETATM   13  C11 UNK     1      17.460   9.455  33.984  1.00  0.00     0.090 A 
HETATM   14  C8  UNK     1      17.460   8.060  33.940  1.00  0.00     0.006 A 
HETATM   15  C14 UNK     1      16.294  10.206  33.826  1.00  0.00     0.045 A 
HETATM   16  C12 UNK     1      16.234   7.416  33.728  1.00  0.00     0.015 A 
HETATM   17  C16 UNK     1      15.057   8.155  33.567  1.00  0.00     0.007 A 
HETATM   18  C15 UNK     1      15.086   9.548  33.616  1.00  0.00    -0.059 A 
HETATM   19  C20 UNK     1      13.828  10.329  33.444  1.00  0.00     0.048 C 
ENDBRANCH   7   8
ENDBRANCH   1   7
BRANCH   2  20
HETATM   20  C6  UNK     1      18.474   3.157  29.120  1.00  0.00     0.375 C 
BRANCH  20  21
HETATM   21  C9  UNK     1      18.629   1.646  29.117  1.00  0.00     0.250 C 
HETATM   22  O2  UNK     1      17.991   0.918  28.364  1.00  0.00    -0.271 OA
HETATM   23  N3  UNK     1      19.575   1.256  30.063  1.00  0.00    -0.326 N 
HETATM   24  H15 UNK     1      20.028   1.987  30.608  1.00  0.00     0.169 HD
BRANCH  23  25
HETATM   25  C17 UNK     1      20.002  -0.058  30.367  1.00  0.00     0.035 A 
HETATM   26  C18 UNK     1      19.920  -0.535  31.674  1.00  0.00     0.037 A 
HETATM   27  C21 UNK     1      20.341  -1.831  31.973  1.00  0.00    -0.054 A 
HETATM   28  C22 UNK     1      20.846  -2.650  30.963  1.00  0.00    -0.056 A 
HETATM   29  C24 UNK     1      20.242  -2.319  33.381  1.00  0.00     0.049 C 
HETATM   30  C23 UNK     1      20.929  -2.173  29.655  1.00  0.00     0.009 A 
HETATM   31  C25 UNK     1      21.302  -4.040  31.257  1.00  0.00     0.049 C 
HETATM   32  C19 UNK     1      20.508  -0.877  29.357  1.00  0.00     0.030 A 
ENDBRANCH  23  25
ENDBRANCH  20  21
ENDBRANCH   2  20
TORSDOF 5
ENDMDL
MODEL 7
REMARK VINA RESULT:      -9.4      6.262      9.574
REMARK  5 active torsions:
REMARK  status: ('A' for Active; 'I' for Inactive)
REMARK    1  A    between atoms: C5_11  and  N1_4 
REMARK    2  A    between atoms: C6_12  and  N2_5 
REMARK    3  A    between atoms: C17_23  and  N3_6 
REMARK       I    between atoms: C9_15  and  N3_6 
REMARK    4  A    between atoms: C5_11  and  C7_13 
REMARK    5  A    between atoms: C6_12  and  C9_15 
ROOT
HETATM    1  N1  UNK     1      18.466   4.913  32.542  1.00  0.00     0.096 N 
HETATM    2  N2  UNK     1      18.546   7.709  33.277  1.00  0.00     0.100 N 
HETATM    3  C1  UNK     1      17.234   5.680  32.758  1.00  0.00     0.303 C 
HETATM    4  C2  UNK     1      19.543   5.795  32.074  1.00  0.00     0.303 C 
HETATM    5  C3  UNK     1      17.470   6.827  33.747  1.00  0.00     0.303 C 
HETATM    6  C4  UNK     1      19.779   6.942  33.062  1.00  0.00     0.303 C 
ENDROOT
BRANCH   1   7
HETATM    7  C5  UNK     1      18.241   3.822  31.595  1.00  0.00     0.312 C 
BRANCH   7   8
HETATM    8  C7  UNK     1      18.421   2.485  32.226  1.00  0.00    -0.011 A 
HETATM    9  C10 UNK     1      18.089   2.272  33.506  1.00  0.00     0.092 A 
HETATM   10  C13 UNK     1      18.249   0.968  34.172  1.00  0.00     0.288 A 
HETATM   11  O1  UNK     1      18.770  -0.063  33.406  1.00  0.00    -0.275 OA
HETATM   12  O3  UNK     1      17.933   0.810  35.346  1.00  0.00    -0.260 OA
HETATM   13  C11 UNK     1      19.129   0.131  32.056  1.00  0.00     0.090 A 
HETATM   14  C8  UNK     1      18.971   1.372  31.439  1.00  0.00     0.006 A 
HETATM   15  C14 UNK     1      19.644  -0.977  31.382  1.00  0.00     0.045 A 
HETATM   16  C12 UNK     1      19.352   1.483  30.095  1.00  0.00     0.015 A 
HETATM   17  C16 UNK     1      19.870   0.382  29.406  1.00  0.00     0.007 A 
HETATM   18  C15 UNK     1      20.016  -0.847  30.048  1.00  0.00    -0.059 A 
HETATM   19  C20 UNK     1      20.569  -2.017  29.307  1.00  0.00     0.048 C 
ENDBRANCH   7   8
ENDBRANCH   1   7
BRANCH   2  20
HETATM   20  C6  UNK     1      18.770   8.801  34.221  1.00  0.00     0.375 C 
BRANCH  20  21
HETATM   21  C9  UNK     1      17.780   9.919  33.945  1.00  0.00     0.250 C 
HETATM   22  O2  UNK     1      18.107  10.974  33.410  1.00  0.00    -0.271 OA
HETATM   23  N3  UNK     1      16.506   9.553  34.374  1.00  0.00    -0.326 N 
HETATM   24  H15 UNK     1      16.395   8.632  34.792  1.00  0.00     0.169 HD
BRANCH  23  25
HETATM   25  C17 UNK     1      15.316  10.314  34.296  1.00  0.00     0.035 A 
HETATM   26  C18 UNK     1      14.791  10.909  35.442  1.00  0.00     0.037 A 
HETATM   27  C21 UNK     1      13.618  11.660  35.365  1.00  0.00    -0.054 A 
HETATM   28  C22 UNK     1      12.969  11.814  34.139  1.00  0.00    -0.056 A 
HETATM   29  C24 UNK     1      13.075  12.287  36.606  1.00  0.00     0.049 C 
HETATM   30  C23 UNK     1      13.494  11.219  32.992  1.00  0.00     0.009 A 
HETATM   31  C25 UNK     1      11.713  12.613  34.031  1.00  0.00     0.049 C 
HETATM   32  C19 UNK     1      14.667  10.469  33.071  1.00  0.00     0.030 A 
ENDBRANCH  23  25
ENDBRANCH  20  21
ENDBRANCH   2  20
TORSDOF 5
ENDMDL
MODEL 8
REMARK VINA RESULT:      -9.3     14.177     17.525
REMARK  5 active torsions:
REMARK  status: ('A' for Active; 'I' for Inactive)
REMARK    1  A    between atoms: C5_11  and  N1_4 
REMARK    2  A    between atoms: C6_12  and  N2_5 
REMARK    3  A    between atoms: C17_23  and  N3_6 
REMARK       I    between atoms: C9_15  and  N3_6 
REMARK    4  A    between atoms: C5_11  and  C7_13 
REMARK    5  A    between atoms: C6_12  and  C9_15 
ROOT
HETATM    1  N1  UNK     1      32.176  -6.019  35.940  1.00  0.00     0.096 N 
HETATM    2  N2  UNK     1      34.784  -6.591  34.828  1.00  0.00     0.100 N 
HETATM    3  C1  UNK     1      33.038  -4.948  35.426  1.00  0.00     0.303 C 
HETATM    4  C2  UNK     1      32.444  -7.277  35.230  1.00  0.00     0.303 C 
HETATM    5  C3  UNK     1      34.516  -5.334  35.539  1.00  0.00     0.303 C 
HETATM    6  C4  UNK     1      33.923  -7.663  35.342  1.00  0.00     0.303 C 
ENDROOT
BRANCH   1   7
HETATM    7  C5  UNK     1      30.766  -5.651  35.828  1.00  0.00     0.312 C 
BRANCH   7   8
HETATM    8  C7  UNK     1      30.086  -5.621  37.153  1.00  0.00    -0.011 A 
HETATM    9  C10 UNK     1      30.122  -4.527  37.926  1.00  0.00     0.092 A 
HETATM   10  C13 UNK     1      29.466  -4.451  39.241  1.00  0.00     0.288 A 
HETATM   11  O1  UNK     1      28.788  -5.583  39.666  1.00  0.00    -0.275 OA
HETATM   12  O3  UNK     1      29.520  -3.432  39.922  1.00  0.00    -0.260 OA
HETATM   13  C11 UNK     1      28.733  -6.748  38.875  1.00  0.00     0.090 A 
HETATM   14  C8  UNK     1      29.360  -6.806  37.630  1.00  0.00     0.006 A 
HETATM   15  C14 UNK     1      28.022  -7.828  39.403  1.00  0.00     0.045 A 
HETATM   16  C12 UNK     1      29.258  -8.001  36.906  1.00  0.00     0.015 A 
HETATM   17  C16 UNK     1      28.550  -9.092  37.422  1.00  0.00     0.007 A 
HETATM   18  C15 UNK     1      27.933  -9.006  38.669  1.00  0.00    -0.059 A 
HETATM   19  C20 UNK     1      27.180 -10.172  39.212  1.00  0.00     0.048 C 
ENDBRANCH   7   8
ENDBRANCH   1   7
BRANCH   2  20
HETATM   20  C6  UNK     1      36.193  -6.959  34.937  1.00  0.00     0.375 C 
BRANCH  20  21
HETATM   21  C9  UNK     1      36.592  -7.794  33.732  1.00  0.00     0.250 C 
HETATM   22  O2  UNK     1      36.610  -7.341  32.592  1.00  0.00    -0.271 OA
HETATM   23  N3  UNK     1      36.923  -9.087  34.129  1.00  0.00    -0.326 N 
HETATM   24  H15 UNK     1      36.867  -9.306  35.121  1.00  0.00     0.169 HD
BRANCH  23  25
HETATM   25  C17 UNK     1      37.344 -10.162  33.310  1.00  0.00     0.035 A 
HETATM   26  C18 UNK     1      38.596 -10.124  32.697  1.00  0.00     0.037 A 
HETATM   27  C21 UNK     1      39.011 -11.183  31.890  1.00  0.00    -0.054 A 
HETATM   28  C22 UNK     1      38.172 -12.280  31.695  1.00  0.00    -0.056 A 
HETATM   29  C24 UNK     1      40.356 -11.119  31.245  1.00  0.00     0.049 C 
HETATM   30  C23 UNK     1      36.919 -12.319  32.307  1.00  0.00     0.009 A 
HETATM   31  C25 UNK     1      38.594 -13.426  30.836  1.00  0.00     0.049 C 
HETATM   32  C19 UNK     1      36.505 -11.259  33.114  1.00  0.00     0.030 A 
ENDBRANCH  23  25
ENDBRANCH  20  21
ENDBRANCH   2  20
TORSDOF 5
ENDMDL
MODEL 9
REMARK VINA RESULT:      -9.3      6.288      9.941
REMARK  5 active torsions:
REMARK  status: ('A' for Active; 'I' for Inactive)
REMARK    1  A    between atoms: C5_11  and  N1_4 
REMARK    2  A    between atoms: C6_12  and  N2_5 
REMARK    3  A    between atoms: C17_23  and  N3_6 
REMARK       I    between atoms: C9_15  and  N3_6 
REMARK    4  A    between atoms: C5_11  and  C7_13 
REMARK    5  A    between atoms: C6_12  and  C9_15 
ROOT
HETATM    1  N1  UNK     1      18.432   4.972  32.592  1.00  0.00     0.096 N 
HETATM    2  N2  UNK     1      18.699   7.774  33.253  1.00  0.00     0.100 N 
HETATM    3  C1  UNK     1      17.256   5.809  32.852  1.00  0.00     0.303 C 
HETATM    4  C2  UNK     1      19.528   5.783  32.047  1.00  0.00     0.303 C 
HETATM    5  C3  UNK     1      17.604   6.962  33.800  1.00  0.00     0.303 C 
HETATM    6  C4  UNK     1      19.877   6.937  32.994  1.00  0.00     0.303 C 
ENDROOT
BRANCH   1   7
HETATM    7  C5  UNK     1      18.099   3.875  31.685  1.00  0.00     0.312 C 
BRANCH   7   8
HETATM    8  C7  UNK     1      18.338   2.541  32.304  1.00  0.00    -0.011 A 
HETATM    9  C10 UNK     1      18.048   2.313  33.593  1.00  0.00     0.092 A 
HETATM   10  C13 UNK     1      18.267   1.013  34.247  1.00  0.00     0.288 A 
HETATM   11  O1  UNK     1      18.799   0.001  33.463  1.00  0.00    -0.275 OA
HETATM   12  O3  UNK     1      17.989   0.840  35.429  1.00  0.00    -0.260 OA
HETATM   13  C11 UNK     1      19.115   0.212  32.105  1.00  0.00     0.090 A 
HETATM   14  C8  UNK     1      18.902   1.450  31.497  1.00  0.00     0.006 A 
HETATM   15  C14 UNK     1      19.646  -0.877  31.412  1.00  0.00     0.045 A 
HETATM   16  C12 UNK     1      19.242   1.577  30.144  1.00  0.00     0.015 A 
HETATM   17  C16 UNK     1      19.775   0.495  29.436  1.00  0.00     0.007 A 
HETATM   18  C15 UNK     1      19.977  -0.731  30.069  1.00  0.00    -0.059 A 
HETATM   19  C20 UNK     1      20.546  -1.880  29.307  1.00  0.00     0.048 C 
ENDBRANCH   7   8
ENDBRANCH   1   7
BRANCH   2  20
HETATM   20  C6  UNK     1      19.032   8.872  34.157  1.00  0.00     0.375 C 
BRANCH  20  21
HETATM   21  C9  UNK     1      18.194  10.089  33.804  1.00  0.00     0.250 C 
HETATM   22  O2  UNK     1      17.074   9.999  33.310  1.00  0.00    -0.271 OA
HETATM   23  N3  UNK     1      18.878  11.258  34.129  1.00  0.00    -0.326 N 
HETATM   24  H15 UNK     1      19.802  11.165  34.546  1.00  0.00     0.169 HD
BRANCH  23  25
HETATM   25  C17 UNK     1      18.440  12.592  33.957  1.00  0.00     0.035 A 
HETATM   26  C18 UNK     1      18.916  13.351  32.887  1.00  0.00     0.037 A 
HETATM   27  C21 UNK     1      18.484  14.666  32.717  1.00  0.00    -0.054 A 
HETATM   28  C22 UNK     1      17.576  15.223  33.618  1.00  0.00    -0.056 A 
HETATM   29  C24 UNK     1      19.007  15.458  31.565  1.00  0.00     0.049 C 
HETATM   30  C23 UNK     1      17.100  14.465  34.688  1.00  0.00     0.009 A 
HETATM   31  C25 UNK     1      17.098  16.628  33.457  1.00  0.00     0.049 C 
HETATM   32  C19 UNK     1      17.533  13.150  34.858  1.00  0.00     0.030 A 
ENDBRANCH  23  25
ENDBRANCH  20  21
ENDBRANCH   2  20
TORSDOF 5
ENDMDL
MODEL 10
REMARK VINA RESULT:      -9.2      1.954      2.446
REMARK  5 active torsions:
REMARK  status: ('A' for Active; 'I' for Inactive)
REMARK    1  A    between atoms: C5_11  and  N1_4 
REMARK    2  A    between atoms: C6_12  and  N2_5 
REMARK    3  A    between atoms: C17_23  and  N3_6 
REMARK       I    between atoms: C9_15  and  N3_6 
REMARK    4  A    between atoms: C5_11  and  C7_13 
REMARK    5  A    between atoms: C6_12  and  C9_15 
ROOT
HETATM    1  N1  UNK     1      19.518  -2.680  35.718  1.00  0.00     0.096 N 
HETATM    2  N2  UNK     1      18.786  -0.137  34.553  1.00  0.00     0.100 N 
HETATM    3  C1  UNK     1      20.148  -2.197  34.484  1.00  0.00     0.303 C 
HETATM    4  C2  UNK     1      19.099  -1.549  36.556  1.00  0.00     0.303 C 
HETATM    5  C3  UNK     1      19.203  -1.268  33.715  1.00  0.00     0.303 C 
HETATM    6  C4  UNK     1      18.155  -0.619  35.787  1.00  0.00     0.303 C 
ENDROOT
BRANCH   1   7
HETATM    7  C5  UNK     1      20.422  -3.563  36.453  1.00  0.00     0.312 C 
BRANCH   7   8
HETATM    8  C7  UNK     1      19.758  -4.831  36.864  1.00  0.00    -0.011 A 
HETATM    9  C10 UNK     1      18.519  -5.131  36.451  1.00  0.00     0.092 A 
HETATM   10  C13 UNK     1      17.823  -6.371  36.832  1.00  0.00     0.288 A 
HETATM   11  O1  UNK     1      18.514  -7.246  37.656  1.00  0.00    -0.275 OA
HETATM   12  O3  UNK     1      16.689  -6.612  36.433  1.00  0.00    -0.260 OA
HETATM   13  C11 UNK     1      19.818  -6.957  38.107  1.00  0.00     0.090 A 
HETATM   14  C8  UNK     1      20.465  -5.778  37.739  1.00  0.00     0.006 A 
HETATM   15  C14 UNK     1      20.417  -7.909  38.934  1.00  0.00     0.045 A 
HETATM   16  C12 UNK     1      21.760  -5.566  38.230  1.00  0.00     0.015 A 
HETATM   17  C16 UNK     1      22.374  -6.510  39.059  1.00  0.00     0.007 A 
HETATM   18  C15 UNK     1      21.703  -7.681  39.411  1.00  0.00    -0.059 A 
HETATM   19  C20 UNK     1      22.364  -8.683  40.296  1.00  0.00     0.048 C 
ENDBRANCH   7   8
ENDBRANCH   1   7
BRANCH   2  20
HETATM   20  C6  UNK     1      17.884   0.748  33.820  1.00  0.00     0.375 C 
BRANCH  20  21
HETATM   21  C9  UNK     1      18.063   2.174  34.313  1.00  0.00     0.250 C 
HETATM   22  O2  UNK     1      18.190   2.451  35.501  1.00  0.00    -0.271 OA
HETATM   23  N3  UNK     1      18.066   3.060  33.237  1.00  0.00    -0.326 N 
HETATM   24  H15 UNK     1      17.960   2.670  32.303  1.00  0.00     0.169 HD
BRANCH  23  25
HETATM   25  C17 UNK     1      18.208   4.467  33.278  1.00  0.00     0.035 A 
HETATM   26  C18 UNK     1      17.355   5.277  32.528  1.00  0.00     0.037 A 
HETATM   27  C21 UNK     1      17.495   6.664  32.568  1.00  0.00    -0.054 A 
HETATM   28  C22 UNK     1      18.489   7.242  33.358  1.00  0.00    -0.056 A 
HETATM   29  C24 UNK     1      16.570   7.510  31.757  1.00  0.00     0.049 C 
HETATM   30  C23 UNK     1      19.343   6.432  34.108  1.00  0.00     0.009 A 
HETATM   31  C25 UNK     1      18.658   8.723  33.418  1.00  0.00     0.049 C 
HETATM   32  C19 UNK     1      19.202   5.045  34.067  1.00  0.00     0.030 A 
ENDBRANCH  23  25
ENDBRANCH  20  21
ENDBRANCH   2  20
TORSDOF 5
ENDMDL
