MODEL 1
REMARK VINA RESULT:      -9.4      0.000      0.000
REMARK  7 active torsions:
REMARK  status: ('A' for Active; 'I' for Inactive)
REMARK    1  A    between atoms: C22_29  and  S1_1 
REMARK    2  A    between atoms: C5_12  and  N1_5 
REMARK    3  A    between atoms: C6_13  and  N2_6 
REMARK    4  A    between atoms: C18_25  and  N3_7 
REMARK       I    between atoms: C9_16  and  N3_7 
REMARK    5  A    between atoms: C5_12  and  C7_14 
REMARK    6  A    between atoms: C6_13  and  C9_16 
REMARK    7  A    between atoms: C13_20  and  C17_24 
ROOT
HETATM    1  N1  UNK     1      19.216  -3.125  36.131  1.00  0.00     0.096 N 
HETATM    2  N2  UNK     1      18.294  -0.490  35.380  1.00  0.00     0.100 N 
HETATM    3  C1  UNK     1      19.960  -2.302  35.169  1.00  0.00     0.303 C 
HETATM    4  C2  UNK     1      18.487  -2.273  37.079  1.00  0.00     0.303 C 
HETATM    5  C3  UNK     1      19.021  -1.342  34.431  1.00  0.00     0.303 C 
HETATM    6  C4  UNK     1      17.550  -1.313  36.341  1.00  0.00     0.303 C 
ENDROOT
BRANCH   1   7
HETATM    7  C5  UNK     1      20.113  -4.038  36.836  1.00  0.00     0.312 C 
BRANCH   7   8
HETATM    8  C7  UNK     1      19.684  -5.459  36.709  1.00  0.00    -0.011 A 
HETATM    9  C10 UNK     1      18.562  -5.787  36.054  1.00  0.00     0.092 A 
HETATM   10  C14 UNK     1      18.097  -7.176  35.902  1.00  0.00     0.288 A 
HETATM   11  O1  UNK     1      18.885  -8.162  36.474  1.00  0.00    -0.275 OA
HETATM   12  O3  UNK     1      17.064  -7.438  35.294  1.00  0.00    -0.260 OA
HETATM   13  C11 UNK     1      20.071  -7.848  37.167  1.00  0.00     0.090 A 
HETATM   14  C8  UNK     1      20.498  -6.526  37.304  1.00  0.00     0.007 A 
HETATM   15  C15 UNK     1      20.784  -8.922  37.703  1.00  0.00     0.039 A 
HETATM   16  C12 UNK     1      21.688  -6.298  38.009  1.00  0.00     0.022 A 
HETATM   17  C13 UNK     1      22.414  -7.364  38.552  1.00  0.00    -0.058 A 
HETATM   18  C16 UNK     1      21.963  -8.674  38.399  1.00  0.00     0.010 A 
BRANCH  17  19
HETATM   19  C17 UNK     1      23.679  -7.097  39.298  1.00  0.00     0.034 C 
HETATM   20  C19 UNK     1      24.840  -7.948  38.794  1.00  0.00     0.010 C 
ENDBRANCH  17  19
ENDBRANCH   7   8
ENDBRANCH   1   7
BRANCH   2  21
HETATM   21  C6  UNK     1      17.398   0.425  34.675  1.00  0.00     0.375 C 
BRANCH  21  22
HETATM   22  C9  UNK     1      18.164   1.675  34.278  1.00  0.00     0.250 C 
HETATM   23  O2  UNK     1      19.050   2.157  34.976  1.00  0.00    -0.271 OA
HETATM   24  N3  UNK     1      17.713   2.146  33.047  1.00  0.00    -0.326 N 
HETATM   25  H15 UNK     1      16.972   1.626  32.584  1.00  0.00     0.169 HD
BRANCH  24  26
HETATM   26  C18 UNK     1      18.169   3.283  32.337  1.00  0.00     0.036 A 
HETATM   27  C20 UNK     1      18.240   4.521  32.973  1.00  0.00     0.048 A 
HETATM   28  C22 UNK     1      18.689   5.641  32.272  1.00  0.00     0.002 A 
HETATM   29  C24 UNK     1      19.065   5.521  30.935  1.00  0.00     0.018 A 
HETATM   30  C23 UNK     1      18.994   4.283  30.298  1.00  0.00     0.004 A 
HETATM   31  C21 UNK     1      18.545   3.164  30.999  1.00  0.00     0.029 A 
BRANCH  28  32
HETATM   32  S1  UNK     1      18.782   7.224  33.086  1.00  0.00    -0.134 SA
HETATM   33  C25 UNK     1      17.238   8.009  32.544  1.00  0.00     0.095 C 
ENDBRANCH  28  32
ENDBRANCH  24  26
ENDBRANCH  21  22
ENDBRANCH   2  21
TORSDOF 7
ENDMDL
MODEL 2
REMARK VINA RESULT:      -9.2      4.977     11.330
REMARK  7 active torsions:
REMARK  status: ('A' for Active; 'I' for Inactive)
REMARK    1  A    between atoms: C22_29  and  S1_1 
REMARK    2  A    between atoms: C5_12  and  N1_5 
REMARK    3  A    between atoms: C6_13  and  N2_6 
REMARK    4  A    between atoms: C18_25  and  N3_7 
REMARK       I    between atoms: C9_16  and  N3_7 
REMARK    5  A    between atoms: C5_12  and  C7_14 
REMARK    6  A    between atoms: C6_13  and  C9_16 
REMARK    7  A    between atoms: C13_20  and  C17_24 
ROOT
HETATM    1  N1  UNK     1      19.973  -4.730  36.628  1.00  0.00     0.096 N 
HETATM    2  N2  UNK     1      20.043  -7.620  36.670  1.00  0.00     0.100 N 
HETATM    3  C1  UNK     1      20.606  -5.462  37.732  1.00  0.00     0.303 C 
HETATM    4  C2  UNK     1      20.049  -5.509  35.386  1.00  0.00     0.303 C 
HETATM    5  C3  UNK     1      19.964  -6.842  37.912  1.00  0.00     0.303 C 
HETATM    6  C4  UNK     1      19.408  -6.889  35.566  1.00  0.00     0.303 C 
ENDROOT
BRANCH   1   7
HETATM    7  C5  UNK     1      20.588  -3.416  36.455  1.00  0.00     0.312 C 
BRANCH   7   8
HETATM    8  C7  UNK     1      19.585  -2.362  36.137  1.00  0.00    -0.011 A 
HETATM    9  C10 UNK     1      18.812  -1.832  37.095  1.00  0.00     0.092 A 
HETATM   10  C14 UNK     1      17.806  -0.788  36.829  1.00  0.00     0.288 A 
HETATM   11  O1  UNK     1      17.686  -0.359  35.518  1.00  0.00    -0.275 OA
HETATM   12  O3  UNK     1      17.118  -0.325  37.732  1.00  0.00    -0.260 OA
HETATM   13  C11 UNK     1      18.486  -0.898  34.489  1.00  0.00     0.090 A 
HETATM   14  C8  UNK     1      19.433  -1.887  34.756  1.00  0.00     0.007 A 
HETATM   15  C15 UNK     1      18.278  -0.390  33.205  1.00  0.00     0.039 A 
HETATM   16  C12 UNK     1      20.188  -2.371  33.679  1.00  0.00     0.022 A 
HETATM   17  C13 UNK     1      19.991  -1.872  32.386  1.00  0.00    -0.058 A 
HETATM   18  C16 UNK     1      19.037  -0.884  32.149  1.00  0.00     0.010 A 
BRANCH  17  19
HETATM   19  C17 UNK     1      20.807  -2.402  31.254  1.00  0.00     0.034 C 
HETATM   20  C19 UNK     1      20.355  -1.851  29.905  1.00  0.00     0.010 C 
ENDBRANCH  17  19
ENDBRANCH   7   8
ENDBRANCH   1   7
BRANCH   2  21
HETATM   21  C6  UNK     1      19.429  -8.935  36.843  1.00  0.00     0.375 C 
BRANCH  21  22
HETATM   22  C9  UNK     1      20.517  -9.985  36.985  1.00  0.00     0.250 C 
HETATM   23  O2  UNK     1      20.333 -11.055  37.558  1.00  0.00    -0.271 OA
HETATM   24  N3  UNK     1      21.692  -9.547  36.378  1.00  0.00    -0.326 N 
HETATM   25  H15 UNK     1      21.682  -8.633  35.933  1.00  0.00     0.169 HD
BRANCH  24  26
HETATM   26  C18 UNK     1      22.928 -10.231  36.295  1.00  0.00     0.036 A 
HETATM   27  C20 UNK     1      24.103  -9.603  36.707  1.00  0.00     0.048 A 
HETATM   28  C22 UNK     1      25.322 -10.278  36.624  1.00  0.00     0.002 A 
HETATM   29  C24 UNK     1      25.364 -11.580  36.127  1.00  0.00     0.018 A 
HETATM   30  C23 UNK     1      24.189 -12.208  35.716  1.00  0.00     0.004 A 
HETATM   31  C21 UNK     1      22.972 -11.534  35.799  1.00  0.00     0.029 A 
BRANCH  28  32
HETATM   32  S1  UNK     1      26.823  -9.476  37.152  1.00  0.00    -0.134 SA
HETATM   33  C25 UNK     1      27.821  -9.524  35.637  1.00  0.00     0.095 C 
ENDBRANCH  28  32
ENDBRANCH  24  26
ENDBRANCH  21  22
ENDBRANCH   2  21
TORSDOF 7
ENDMDL
MODEL 3
REMARK VINA RESULT:      -9.0      5.745      8.438
REMARK  7 active torsions:
REMARK  status: ('A' for Active; 'I' for Inactive)
REMARK    1  A    between atoms: C22_29  and  S1_1 
REMARK    2  A    between atoms: C5_12  and  N1_5 
REMARK    3  A    between atoms: C6_13  and  N2_6 
REMARK    4  A    between atoms: C18_25  and  N3_7 
REMARK       I    between atoms: C9_16  and  N3_7 
REMARK    5  A    between atoms: C5_12  and  C7_14 
REMARK    6  A    between atoms: C6_13  and  C9_16 
REMARK    7  A    between atoms: C13_20  and  C17_24 
ROOT
HETATM    1  N1  UNK     1      18.894   3.626  31.270  1.00  0.00     0.096 N 
HETATM    2  N2  UNK     1      19.216   6.290  32.345  1.00  0.00     0.100 N 
HETATM    3  C1  UNK     1      18.018   4.130  32.334  1.00  0.00     0.303 C 
HETATM    4  C2  UNK     1      19.374   4.733  30.433  1.00  0.00     0.303 C 
HETATM    5  C3  UNK     1      18.739   5.183  33.183  1.00  0.00     0.303 C 
HETATM    6  C4  UNK     1      20.094   5.786  31.282  1.00  0.00     0.303 C 
ENDROOT
BRANCH   1   7
HETATM    7  C5  UNK     1      18.205   2.624  30.460  1.00  0.00     0.312 C 
BRANCH   7   8
HETATM    8  C7  UNK     1      18.940   1.329  30.420  1.00  0.00    -0.011 A 
HETATM    9  C10 UNK     1      19.608   0.946  29.323  1.00  0.00     0.092 A 
HETATM   10  C14 UNK     1      20.349  -0.324  29.236  1.00  0.00     0.288 A 
HETATM   11  O1  UNK     1      20.334  -1.132  30.361  1.00  0.00    -0.275 OA
HETATM   12  O3  UNK     1      20.950  -0.640  28.215  1.00  0.00    -0.260 OA
HETATM   13  C11 UNK     1      19.641  -0.755  31.530  1.00  0.00     0.090 A 
HETATM   14  C8  UNK     1      18.942   0.451  31.597  1.00  0.00     0.007 A 
HETATM   15  C15 UNK     1      19.694  -1.648  32.602  1.00  0.00     0.039 A 
HETATM   16  C12 UNK     1      18.279   0.752  32.794  1.00  0.00     0.022 A 
HETATM   17  C13 UNK     1      18.323  -0.133  33.878  1.00  0.00    -0.058 A 
HETATM   18  C16 UNK     1      19.029  -1.331  33.782  1.00  0.00     0.010 A 
BRANCH  17  19
HETATM   19  C17 UNK     1      17.609   0.208  35.144  1.00  0.00     0.034 C 
HETATM   20  C19 UNK     1      16.320  -0.589  35.317  1.00  0.00     0.010 C 
ENDBRANCH  17  19
ENDBRANCH   7   8
ENDBRANCH   1   7
BRANCH   2  21
HETATM   21  C6  UNK     1      19.904   7.293  33.156  1.00  0.00     0.375 C 
BRANCH  21  22
HETATM   22  C9  UNK     1      18.910   7.948  34.100  1.00  0.00     0.250 C 
HETATM   23  O2  UNK     1      18.995   7.852  35.320  1.00  0.00    -0.271 OA
HETATM   24  N3  UNK     1      17.945   8.643  33.375  1.00  0.00    -0.326 N 
HETATM   25  H15 UNK     1      18.017   8.635  32.361  1.00  0.00     0.169 HD
BRANCH  24  26
HETATM   26  C18 UNK     1      16.850   9.383  33.884  1.00  0.00     0.036 A 
HETATM   27  C20 UNK     1      17.004  10.732  34.198  1.00  0.00     0.048 A 
HETATM   28  C22 UNK     1      15.924  11.460  34.699  1.00  0.00     0.002 A 
HETATM   29  C24 UNK     1      14.691  10.836  34.888  1.00  0.00     0.018 A 
HETATM   30  C23 UNK     1      14.537   9.487  34.573  1.00  0.00     0.004 A 
HETATM   31  C21 UNK     1      15.616   8.760  34.072  1.00  0.00     0.029 A 
BRANCH  28  32
HETATM   32  S1  UNK     1      16.120  13.186  35.099  1.00  0.00    -0.134 SA
HETATM   33  C25 UNK     1      17.894  13.435  34.802  1.00  0.00     0.095 C 
ENDBRANCH  28  32
ENDBRANCH  24  26
ENDBRANCH  21  22
ENDBRANCH   2  21
TORSDOF 7
ENDMDL
MODEL 4
REMARK VINA RESULT:      -8.9      1.511      2.195
REMARK  7 active torsions:
REMARK  status: ('A' for Active; 'I' for Inactive)
REMARK    1  A    between atoms: C22_29  and  S1_1 
REMARK    2  A    between atoms: C5_12  and  N1_5 
REMARK    3  A    between atoms: C6_13  and  N2_6 
REMARK    4  A    between atoms: C18_25  and  N3_7 
REMARK       I    between atoms: C9_16  and  N3_7 
REMARK    5  A    between atoms: C5_12  and  C7_14 
REMARK    6  A    between atoms: C6_13  and  C9_16 
REMARK    7  A    between atoms: C13_20  and  C17_24 
ROOT
HETATM    1  N1  UNK     1      19.349  -3.285  36.657  1.00  0.00     0.096 N 
HETATM    2  N2  UNK     1      18.599  -0.499  36.474  1.00  0.00     0.100 N 
HETATM    3  C1  UNK     1      19.924  -2.406  35.631  1.00  0.00     0.303 C 
HETATM    4  C2  UNK     1      18.989  -2.512  37.852  1.00  0.00     0.303 C 
HETATM    5  C3  UNK     1      18.956  -1.272  35.278  1.00  0.00     0.303 C 
HETATM    6  C4  UNK     1      18.022  -1.378  37.498  1.00  0.00     0.303 C 
ENDROOT
BRANCH   1   7
HETATM    7  C5  UNK     1      20.274  -4.364  36.995  1.00  0.00     0.312 C 
BRANCH   7   8
HETATM    8  C7  UNK     1      19.646  -5.708  36.859  1.00  0.00    -0.011 A 
HETATM    9  C10 UNK     1      18.535  -5.882  36.130  1.00  0.00     0.092 A 
HETATM   10  C14 UNK     1      17.878  -7.190  35.966  1.00  0.00     0.288 A 
HETATM   11  O1  UNK     1      18.467  -8.267  36.609  1.00  0.00    -0.275 OA
HETATM   12  O3  UNK     1      16.863  -7.311  35.289  1.00  0.00    -0.260 OA
HETATM   13  C11 UNK     1      19.636  -8.115  37.382  1.00  0.00     0.090 A 
HETATM   14  C8  UNK     1      20.246  -6.868  37.529  1.00  0.00     0.007 A 
HETATM   15  C15 UNK     1      20.140  -9.269  37.985  1.00  0.00     0.039 A 
HETATM   16  C12 UNK     1      21.405  -6.801  38.315  1.00  0.00     0.022 A 
HETATM   17  C13 UNK     1      21.923  -7.949  38.925  1.00  0.00    -0.058 A 
HETATM   18  C16 UNK     1      21.292  -9.181  38.761  1.00  0.00     0.010 A 
BRANCH  17  19
HETATM   19  C17 UNK     1      23.159  -7.854  39.757  1.00  0.00     0.034 C 
HETATM   20  C19 UNK     1      24.429  -8.029  38.931  1.00  0.00     0.010 C 
ENDBRANCH  17  19
ENDBRANCH   7   8
ENDBRANCH   1   7
BRANCH   2  21
HETATM   21  C6  UNK     1      17.674   0.582  36.135  1.00  0.00     0.375 C 
BRANCH  21  22
HETATM   22  C9  UNK     1      18.380   1.588  35.242  1.00  0.00     0.250 C 
HETATM   23  O2  UNK     1      19.431   2.133  35.562  1.00  0.00    -0.271 OA
HETATM   24  N3  UNK     1      17.666   1.765  34.059  1.00  0.00    -0.326 N 
HETATM   25  H15 UNK     1      16.811   1.229  33.937  1.00  0.00     0.169 HD
BRANCH  24  26
HETATM   26  C18 UNK     1      17.990   2.615  32.974  1.00  0.00     0.036 A 
HETATM   27  C20 UNK     1      18.042   2.103  31.677  1.00  0.00     0.048 A 
HETATM   28  C22 UNK     1      18.361   2.941  30.609  1.00  0.00     0.002 A 
HETATM   29  C24 UNK     1      18.631   4.290  30.838  1.00  0.00     0.018 A 
HETATM   30  C23 UNK     1      18.579   4.802  32.134  1.00  0.00     0.004 A 
HETATM   31  C21 UNK     1      18.260   3.964  33.202  1.00  0.00     0.029 A 
BRANCH  28  32
HETATM   32  S1  UNK     1      18.425   2.288  28.952  1.00  0.00    -0.134 SA
HETATM   33  C25 UNK     1      19.461   0.814  29.174  1.00  0.00     0.095 C 
ENDBRANCH  28  32
ENDBRANCH  24  26
ENDBRANCH  21  22
ENDBRANCH   2  21
TORSDOF 7
ENDMDL
MODEL 5
REMARK VINA RESULT:      -8.8      6.261     13.134
REMARK  7 active torsions:
REMARK  status: ('A' for Active; 'I' for Inactive)
REMARK    1  A    between atoms: C22_29  and  S1_1 
REMARK    2  A    between atoms: C5_12  and  N1_5 
REMARK    3  A    between atoms: C6_13  and  N2_6 
REMARK    4  A    between atoms: C18_25  and  N3_7 
REMARK       I    between atoms: C9_16  and  N3_7 
REMARK    5  A    between atoms: C5_12  and  C7_14 
REMARK    6  A    between atoms: C6_13  and  C9_16 
REMARK    7  A    between atoms: C13_20  and  C17_24 
ROOT
HETATM    1  N1  UNK     1      18.443   6.424  32.969  1.00  0.00     0.096 N 
HETATM    2  N2  UNK     1      18.208   4.754  30.620  1.00  0.00     0.100 N 
HETATM    3  C1  UNK     1      18.070   6.989  31.666  1.00  0.00     0.303 C 
HETATM    4  C2  UNK     1      18.002   5.027  33.067  1.00  0.00     0.303 C 
HETATM    5  C3  UNK     1      18.651   6.151  30.521  1.00  0.00     0.303 C 
HETATM    6  C4  UNK     1      18.582   4.190  31.923  1.00  0.00     0.303 C 
ENDROOT
BRANCH   1   7
HETATM    7  C5  UNK     1      17.886   7.223  34.058  1.00  0.00     0.312 C 
BRANCH   7   8
HETATM    8  C7  UNK     1      16.575   7.832  33.696  1.00  0.00    -0.011 A 
HETATM    9  C10 UNK     1      15.547   7.073  33.293  1.00  0.00     0.092 A 
HETATM   10  C14 UNK     1      14.233   7.629  32.926  1.00  0.00     0.288 A 
HETATM   11  O1  UNK     1      14.092   9.005  33.015  1.00  0.00    -0.275 OA
HETATM   12  O3  UNK     1      13.315   6.903  32.562  1.00  0.00    -0.260 OA
HETATM   13  C11 UNK     1      15.156   9.829  33.437  1.00  0.00     0.090 A 
HETATM   14  C8  UNK     1      16.395   9.287  33.781  1.00  0.00     0.007 A 
HETATM   15  C15 UNK     1      14.900  11.200  33.489  1.00  0.00     0.039 A 
HETATM   16  C12 UNK     1      17.400  10.174  34.189  1.00  0.00     0.022 A 
HETATM   17  C13 UNK     1      17.159  11.551  34.246  1.00  0.00    -0.058 A 
HETATM   18  C16 UNK     1      15.912  12.064  33.897  1.00  0.00     0.010 A 
BRANCH  17  19
HETATM   19  C17 UNK     1      18.245  12.477  34.685  1.00  0.00     0.034 C 
HETATM   20  C19 UNK     1      17.915  13.938  34.394  1.00  0.00     0.010 C 
ENDBRANCH  17  19
ENDBRANCH   7   8
ENDBRANCH   1   7
BRANCH   2  21
HETATM   21  C6  UNK     1      18.764   3.956  29.529  1.00  0.00     0.375 C 
BRANCH  21  22
HETATM   22  C9  UNK     1      18.505   2.484  29.799  1.00  0.00     0.250 C 
HETATM   23  O2  UNK     1      17.375   2.019  29.902  1.00  0.00    -0.271 OA
HETATM   24  N3  UNK     1      19.711   1.793  29.895  1.00  0.00    -0.326 N 
HETATM   25  H15 UNK     1      20.571   2.323  29.776  1.00  0.00     0.169 HD
BRANCH  24  26
HETATM   26  C18 UNK     1      19.898   0.411  30.139  1.00  0.00     0.036 A 
HETATM   27  C20 UNK     1      19.811  -0.086  31.439  1.00  0.00     0.048 A 
HETATM   28  C22 UNK     1      19.996  -1.448  31.679  1.00  0.00     0.002 A 
HETATM   29  C24 UNK     1      20.270  -2.311  30.618  1.00  0.00     0.018 A 
HETATM   30  C23 UNK     1      20.357  -1.814  29.319  1.00  0.00     0.004 A 
HETATM   31  C21 UNK     1      20.172  -0.453  29.079  1.00  0.00     0.029 A 
BRANCH  28  32
HETATM   32  S1  UNK     1      19.882  -2.085  33.340  1.00  0.00    -0.134 SA
HETATM   33  C25 UNK     1      18.593  -1.026  34.054  1.00  0.00     0.095 C 
ENDBRANCH  28  32
ENDBRANCH  24  26
ENDBRANCH  21  22
ENDBRANCH   2  21
TORSDOF 7
ENDMDL
MODEL 6
REMARK VINA RESULT:      -8.7      4.736     11.399
REMARK  7 active torsions:
REMARK  status: ('A' for Active; 'I' for Inactive)
REMARK    1  A    between atoms: C22_29  and  S1_1 
REMARK    2  A    between atoms: C5_12  and  N1_5 
REMARK    3  A    between atoms: C6_13  and  N2_6 
REMARK    4  A    between atoms: C18_25  and  N3_7 
REMARK       I    between atoms: C9_16  and  N3_7 
REMARK    5  A    between atoms: C5_12  and  C7_14 
REMARK    6  A    between atoms: C6_13  and  C9_16 
REMARK    7  A    between atoms: C13_20  and  C17_24 
ROOT
HETATM    1  N1  UNK     1      19.995  -4.647  36.291  1.00  0.00     0.096 N 
HETATM    2  N2  UNK     1      19.583  -7.377  37.147  1.00  0.00     0.100 N 
HETATM    3  C1  UNK     1      18.645  -5.199  36.457  1.00  0.00     0.303 C 
HETATM    4  C2  UNK     1      20.935  -5.311  37.202  1.00  0.00     0.303 C 
HETATM    5  C3  UNK     1      18.643  -6.715  36.234  1.00  0.00     0.303 C 
HETATM    6  C4  UNK     1      20.933  -6.826  36.980  1.00  0.00     0.303 C 
ENDROOT
BRANCH   1   7
HETATM    7  C5  UNK     1      19.995  -3.202  36.506  1.00  0.00     0.312 C 
BRANCH   7   8
HETATM    8  C7  UNK     1      19.824  -2.443  35.235  1.00  0.00    -0.011 A 
HETATM    9  C10 UNK     1      20.439  -2.832  34.110  1.00  0.00     0.092 A 
HETATM   10  C14 UNK     1      20.301  -2.115  32.830  1.00  0.00     0.288 A 
HETATM   11  O1  UNK     1      19.487  -0.993  32.830  1.00  0.00    -0.275 OA
HETATM   12  O3  UNK     1      20.878  -2.501  31.820  1.00  0.00    -0.260 OA
HETATM   13  C11 UNK     1      18.827  -0.561  33.998  1.00  0.00     0.090 A 
HETATM   14  C8  UNK     1      18.969  -1.250  35.203  1.00  0.00     0.007 A 
HETATM   15  C15 UNK     1      18.033   0.582  33.880  1.00  0.00     0.039 A 
HETATM   16  C12 UNK     1      18.279  -0.755  36.319  1.00  0.00     0.022 A 
HETATM   17  C13 UNK     1      17.480   0.389  36.217  1.00  0.00    -0.058 A 
HETATM   18  C16 UNK     1      17.357   1.056  35.000  1.00  0.00     0.010 A 
BRANCH  17  19
HETATM   19  C17 UNK     1      16.755   0.898  37.418  1.00  0.00     0.034 C 
HETATM   20  C19 UNK     1      17.704   1.301  38.542  1.00  0.00     0.010 C 
ENDBRANCH  17  19
ENDBRANCH   7   8
ENDBRANCH   1   7
BRANCH   2  21
HETATM   21  C6  UNK     1      19.581  -8.823  36.933  1.00  0.00     0.375 C 
BRANCH  21  22
HETATM   22  C9  UNK     1      20.911  -9.402  37.386  1.00  0.00     0.250 C 
HETATM   23  O2  UNK     1      21.191  -9.567  38.569  1.00  0.00    -0.271 OA
HETATM   24  N3  UNK     1      21.707  -9.702  36.283  1.00  0.00    -0.326 N 
HETATM   25  H15 UNK     1      21.325  -9.514  35.359  1.00  0.00     0.169 HD
BRANCH  24  26
HETATM   26  C18 UNK     1      23.010 -10.253  36.282  1.00  0.00     0.036 A 
HETATM   27  C20 UNK     1      24.091  -9.492  36.728  1.00  0.00     0.048 A 
HETATM   28  C22 UNK     1      25.375 -10.036  36.727  1.00  0.00     0.002 A 
HETATM   29  C24 UNK     1      25.579 -11.341  36.278  1.00  0.00     0.018 A 
HETATM   30  C23 UNK     1      24.499 -12.102  35.832  1.00  0.00     0.004 A 
HETATM   31  C21 UNK     1      23.215 -11.557  35.833  1.00  0.00     0.029 A 
BRANCH  28  32
HETATM   32  S1  UNK     1      26.756  -9.065  37.300  1.00  0.00    -0.134 SA
HETATM   33  C25 UNK     1      27.267  -9.984  38.779  1.00  0.00     0.095 C 
ENDBRANCH  28  32
ENDBRANCH  24  26
ENDBRANCH  21  22
ENDBRANCH   2  21
TORSDOF 7
ENDMDL
MODEL 7
REMARK VINA RESULT:      -8.6      4.784     12.644
REMARK  7 active torsions:
REMARK  status: ('A' for Active; 'I' for Inactive)
REMARK    1  A    between atoms: C22_29  and  S1_1 
REMARK    2  A    between atoms: C5_12  and  N1_5 
REMARK    3  A    between atoms: C6_13  and  N2_6 
REMARK    4  A    between atoms: C18_25  and  N3_7 
REMARK       I    between atoms: C9_16  and  N3_7 
REMARK    5  A    between atoms: C5_12  and  C7_14 
REMARK    6  A    between atoms: C6_13  and  C9_16 
REMARK    7  A    between atoms: C13_20  and  C17_24 
ROOT
HETATM    1  N1  UNK     1      18.026   5.330  31.265  1.00  0.00     0.096 N 
HETATM    2  N2  UNK     1      18.923   2.819  30.148  1.00  0.00     0.100 N 
HETATM    3  C1  UNK     1      18.252   4.155  32.115  1.00  0.00     0.303 C 
HETATM    4  C2  UNK     1      18.903   5.289  30.088  1.00  0.00     0.303 C 
HETATM    5  C3  UNK     1      18.043   2.859  31.323  1.00  0.00     0.303 C 
HETATM    6  C4  UNK     1      18.695   3.993  29.297  1.00  0.00     0.303 C 
ENDROOT
BRANCH   1   7
HETATM    7  C5  UNK     1      18.229   6.564  32.021  1.00  0.00     0.312 C 
BRANCH   7   8
HETATM    8  C7  UNK     1      16.945   7.264  32.309  1.00  0.00    -0.011 A 
HETATM    9  C10 UNK     1      15.770   6.730  31.950  1.00  0.00     0.092 A 
HETATM   10  C14 UNK     1      14.476   7.384  32.214  1.00  0.00     0.288 A 
HETATM   11  O1  UNK     1      14.518   8.605  32.867  1.00  0.00    -0.275 OA
HETATM   12  O3  UNK     1      13.420   6.864  31.872  1.00  0.00    -0.260 OA
HETATM   13  C11 UNK     1      15.740   9.192  33.257  1.00  0.00     0.090 A 
HETATM   14  C8  UNK     1      16.957   8.560  32.999  1.00  0.00     0.007 A 
HETATM   15  C15 UNK     1      15.660  10.425  33.907  1.00  0.00     0.039 A 
HETATM   16  C12 UNK     1      18.126   9.209  33.418  1.00  0.00     0.022 A 
HETATM   17  C13 UNK     1      18.064  10.446  34.071  1.00  0.00    -0.058 A 
HETATM   18  C16 UNK     1      16.833  11.052  34.315  1.00  0.00     0.010 A 
BRANCH  17  19
HETATM   19  C17 UNK     1      19.322  11.118  34.509  1.00  0.00     0.034 C 
HETATM   20  C19 UNK     1      20.509  10.162  34.546  1.00  0.00     0.010 C 
ENDBRANCH  17  19
ENDBRANCH   7   8
ENDBRANCH   1   7
BRANCH   2  21
HETATM   21  C6  UNK     1      18.722   1.583  29.393  1.00  0.00     0.375 C 
BRANCH  21  22
HETATM   22  C9  UNK     1      19.564   0.476  30.003  1.00  0.00     0.250 C 
HETATM   23  O2  UNK     1      20.579   0.044  29.465  1.00  0.00    -0.271 OA
HETATM   24  N3  UNK     1      19.016   0.067  31.216  1.00  0.00    -0.326 N 
HETATM   25  H15 UNK     1      18.169   0.533  31.534  1.00  0.00     0.169 HD
BRANCH  24  26
HETATM   26  C18 UNK     1      19.501  -0.937  32.089  1.00  0.00     0.036 A 
HETATM   27  C20 UNK     1      19.086  -0.965  33.420  1.00  0.00     0.048 A 
HETATM   28  C22 UNK     1      19.565  -1.955  34.279  1.00  0.00     0.002 A 
HETATM   29  C24 UNK     1      20.460  -2.915  33.806  1.00  0.00     0.018 A 
HETATM   30  C23 UNK     1      20.874  -2.886  32.475  1.00  0.00     0.004 A 
HETATM   31  C21 UNK     1      20.395  -1.897  31.617  1.00  0.00     0.029 A 
BRANCH  28  32
HETATM   32  S1  UNK     1      19.033  -1.993  35.979  1.00  0.00    -0.134 SA
HETATM   33  C25 UNK     1      20.378  -2.925  36.766  1.00  0.00     0.095 C 
ENDBRANCH  28  32
ENDBRANCH  24  26
ENDBRANCH  21  22
ENDBRANCH   2  21
TORSDOF 7
ENDMDL
MODEL 8
REMARK VINA RESULT:      -8.5      8.393     12.408
REMARK  7 active torsions:
REMARK  status: ('A' for Active; 'I' for Inactive)
REMARK    1  A    between atoms: C22_29  and  S1_1 
REMARK    2  A    between atoms: C5_12  and  N1_5 
REMARK    3  A    between atoms: C6_13  and  N2_6 
REMARK    4  A    between atoms: C18_25  and  N3_7 
REMARK       I    between atoms: C9_16  and  N3_7 
REMARK    5  A    between atoms: C5_12  and  C7_14 
REMARK    6  A    between atoms: C6_13  and  C9_16 
REMARK    7  A    between atoms: C13_20  and  C17_24 
ROOT
HETATM    1  N1  UNK     1      28.670  -8.769  36.002  1.00  0.00     0.096 N 
HETATM    2  N2  UNK     1      26.338  -8.441  37.680  1.00  0.00     0.100 N 
HETATM    3  C1  UNK     1      27.655  -9.824  36.112  1.00  0.00     0.303 C 
HETATM    4  C2  UNK     1      28.062  -7.449  36.215  1.00  0.00     0.303 C 
HETATM    5  C3  UNK     1      26.946  -9.761  37.470  1.00  0.00     0.303 C 
HETATM    6  C4  UNK     1      27.353  -7.387  37.571  1.00  0.00     0.303 C 
ENDROOT
BRANCH   1   7
HETATM    7  C5  UNK     1      29.342  -8.829  34.707  1.00  0.00     0.312 C 
BRANCH   7   8
HETATM    8  C7  UNK     1      30.065  -7.565  34.389  1.00  0.00    -0.011 A 
HETATM    9  C10 UNK     1      31.078  -7.136  35.154  1.00  0.00     0.092 A 
HETATM   10  C14 UNK     1      31.822  -5.894  34.880  1.00  0.00     0.288 A 
HETATM   11  O1  UNK     1      31.427  -5.164  33.770  1.00  0.00    -0.275 OA
HETATM   12  O3  UNK     1      32.745  -5.534  35.602  1.00  0.00    -0.260 OA
HETATM   13  C11 UNK     1      30.366  -5.591  32.946  1.00  0.00     0.090 A 
HETATM   14  C8  UNK     1      29.670  -6.769  33.219  1.00  0.00     0.007 A 
HETATM   15  C15 UNK     1      30.055  -4.776  31.856  1.00  0.00     0.039 A 
HETATM   16  C12 UNK     1      28.627  -7.123  32.352  1.00  0.00     0.022 A 
HETATM   17  C13 UNK     1      28.304  -6.317  31.255  1.00  0.00    -0.058 A 
HETATM   18  C16 UNK     1      29.016  -5.145  31.007  1.00  0.00     0.010 A 
BRANCH  17  19
HETATM   19  C17 UNK     1      27.189  -6.714  30.345  1.00  0.00     0.034 C 
HETATM   20  C19 UNK     1      27.070  -8.227  30.199  1.00  0.00     0.010 C 
ENDBRANCH  17  19
ENDBRANCH   7   8
ENDBRANCH   1   7
BRANCH   2  21
HETATM   21  C6  UNK     1      25.663  -8.382  38.975  1.00  0.00     0.375 C 
BRANCH  21  22
HETATM   22  C9  UNK     1      24.306  -7.720  38.807  1.00  0.00     0.250 C 
HETATM   23  O2  UNK     1      24.147  -6.507  38.901  1.00  0.00    -0.271 OA
HETATM   24  N3  UNK     1      23.332  -8.678  38.536  1.00  0.00    -0.326 N 
HETATM   25  H15 UNK     1      23.627  -9.650  38.481  1.00  0.00     0.169 HD
BRANCH  24  26
HETATM   26  C18 UNK     1      21.950  -8.466  38.318  1.00  0.00     0.036 A 
HETATM   27  C20 UNK     1      21.505  -7.965  37.095  1.00  0.00     0.048 A 
HETATM   28  C22 UNK     1      20.142  -7.756  36.881  1.00  0.00     0.002 A 
HETATM   29  C24 UNK     1      19.225  -8.048  37.891  1.00  0.00     0.018 A 
HETATM   30  C23 UNK     1      19.671  -8.549  39.113  1.00  0.00     0.004 A 
HETATM   31  C21 UNK     1      21.033  -8.758  39.327  1.00  0.00     0.029 A 
BRANCH  28  32
HETATM   32  S1  UNK     1      19.572  -7.117  35.318  1.00  0.00    -0.134 SA
HETATM   33  C25 UNK     1      17.778  -7.358  35.451  1.00  0.00     0.095 C 
ENDBRANCH  28  32
ENDBRANCH  24  26
ENDBRANCH  21  22
ENDBRANCH   2  21
TORSDOF 7
ENDMDL
MODEL 9
REMARK VINA RESULT:      -8.5     12.682     17.325
REMARK  7 active torsions:
REMARK  status: ('A' for Active; 'I' for Inactive)
REMARK    1  A    between atoms: C22_29  and  S1_1 
REMARK    2  A    between atoms: C5_12  and  N1_5 
REMARK    3  A    between atoms: C6_13  and  N2_6 
REMARK    4  A    between atoms: C18_25  and  N3_7 
REMARK       I    between atoms: C9_16  and  N3_7 
REMARK    5  A    between atoms: C5_12  and  C7_14 
REMARK    6  A    between atoms: C6_13  and  C9_16 
REMARK    7  A    between atoms: C13_20  and  C17_24 
ROOT
HETATM    1  N1  UNK     1      31.938  -6.010  35.926  1.00  0.00     0.096 N 
HETATM    2  N2  UNK     1      34.546  -6.709  34.890  1.00  0.00     0.100 N 
HETATM    3  C1  UNK     1      32.811  -5.001  35.313  1.00  0.00     0.303 C 
HETATM    4  C2  UNK     1      32.199  -7.334  35.347  1.00  0.00     0.303 C 
HETATM    5  C3  UNK     1      34.286  -5.386  35.471  1.00  0.00     0.303 C 
HETATM    6  C4  UNK     1      33.674  -7.717  35.504  1.00  0.00     0.303 C 
ENDROOT
BRANCH   1   7
HETATM    7  C5  UNK     1      30.533  -5.644  35.772  1.00  0.00     0.312 C 
BRANCH   7   8
HETATM    8  C7  UNK     1      29.818  -5.591  37.078  1.00  0.00    -0.011 A 
HETATM    9  C10 UNK     1      30.043  -4.599  37.950  1.00  0.00     0.092 A 
HETATM   10  C14 UNK     1      29.361  -4.504  39.253  1.00  0.00     0.288 A 
HETATM   11  O1  UNK     1      28.451  -5.504  39.553  1.00  0.00    -0.275 OA
HETATM   12  O3  UNK     1      29.591  -3.579  40.024  1.00  0.00    -0.260 OA
HETATM   13  C11 UNK     1      28.193  -6.561  38.656  1.00  0.00     0.090 A 
HETATM   14  C8  UNK     1      28.848  -6.638  37.426  1.00  0.00     0.007 A 
HETATM   15  C15 UNK     1      27.257  -7.512  39.065  1.00  0.00     0.039 A 
HETATM   16  C12 UNK     1      28.536  -7.719  36.591  1.00  0.00     0.022 A 
HETATM   17  C13 UNK     1      27.600  -8.682  36.987  1.00  0.00    -0.058 A 
HETATM   18  C16 UNK     1      26.962  -8.579  38.221  1.00  0.00     0.010 A 
BRANCH  17  19
HETATM   19  C17 UNK     1      27.283  -9.825  36.081  1.00  0.00     0.034 C 
HETATM   20  C19 UNK     1      26.045 -10.594  36.529  1.00  0.00     0.010 C 
ENDBRANCH  17  19
ENDBRANCH   7   8
ENDBRANCH   1   7
BRANCH   2  21
HETATM   21  C6  UNK     1      35.953  -7.074  35.042  1.00  0.00     0.375 C 
BRANCH  21  22
HETATM   22  C9  UNK     1      36.513  -7.497  33.695  1.00  0.00     0.250 C 
HETATM   23  O2  UNK     1      36.635  -6.717  32.756  1.00  0.00    -0.271 OA
HETATM   24  N3  UNK     1      36.852  -8.848  33.717  1.00  0.00    -0.326 N 
HETATM   25  H15 UNK     1      36.697  -9.361  34.581  1.00  0.00     0.169 HD
BRANCH  24  26
HETATM   26  C18 UNK     1      37.401  -9.618  32.664  1.00  0.00     0.036 A 
HETATM   27  C20 UNK     1      38.669 -10.182  32.799  1.00  0.00     0.048 A 
HETATM   28  C22 UNK     1      39.210 -10.940  31.760  1.00  0.00     0.002 A 
HETATM   29  C24 UNK     1      38.483 -11.132  30.586  1.00  0.00     0.018 A 
HETATM   30  C23 UNK     1      37.215 -10.568  30.450  1.00  0.00     0.004 A 
HETATM   31  C21 UNK     1      36.674  -9.810  31.489  1.00  0.00     0.029 A 
BRANCH  28  32
HETATM   32  S1  UNK     1      40.830 -11.663  31.933  1.00  0.00    -0.134 SA
HETATM   33  C25 UNK     1      41.774 -10.288  32.647  1.00  0.00     0.095 C 
ENDBRANCH  28  32
ENDBRANCH  24  26
ENDBRANCH  21  22
ENDBRANCH   2  21
TORSDOF 7
ENDMDL
MODEL 10
REMARK VINA RESULT:      -8.5      8.444     12.857
REMARK  7 active torsions:
REMARK  status: ('A' for Active; 'I' for Inactive)
REMARK    1  A    between atoms: C22_29  and  S1_1 
REMARK    2  A    between atoms: C5_12  and  N1_5 
REMARK    3  A    between atoms: C6_13  and  N2_6 
REMARK    4  A    between atoms: C18_25  and  N3_7 
REMARK       I    between atoms: C9_16  and  N3_7 
REMARK    5  A    between atoms: C5_12  and  C7_14 
REMARK    6  A    between atoms: C6_13  and  C9_16 
REMARK    7  A    between atoms: C13_20  and  C17_24 
ROOT
HETATM    1  N1  UNK     1      29.261  -6.361  37.264  1.00  0.00     0.096 N 
HETATM    2  N2  UNK     1      26.629  -7.262  38.052  1.00  0.00     0.100 N 
HETATM    3  C1  UNK     1      28.375  -7.050  36.317  1.00  0.00     0.303 C 
HETATM    4  C2  UNK     1      28.473  -5.631  38.265  1.00  0.00     0.303 C 
HETATM    5  C3  UNK     1      27.418  -7.994  37.053  1.00  0.00     0.303 C 
HETATM    6  C4  UNK     1      27.515  -6.574  38.999  1.00  0.00     0.303 C 
ENDROOT
BRANCH   1   7
HETATM    7  C5  UNK     1      30.171  -5.460  36.562  1.00  0.00     0.312 C 
BRANCH   7   8
HETATM    8  C7  UNK     1      31.487  -6.099  36.276  1.00  0.00    -0.011 A 
HETATM    9  C10 UNK     1      32.355  -6.365  37.261  1.00  0.00     0.092 A 
HETATM   10  C14 UNK     1      33.666  -6.996  37.028  1.00  0.00     0.288 A 
HETATM   11  O1  UNK     1      33.978  -7.316  35.716  1.00  0.00    -0.275 OA
HETATM   12  O3  UNK     1      34.435  -7.225  37.955  1.00  0.00    -0.260 OA
HETATM   13  C11 UNK     1      33.084  -7.049  34.659  1.00  0.00     0.090 A 
HETATM   14  C8  UNK     1      31.846  -6.450  34.896  1.00  0.00     0.007 A 
HETATM   15  C15 UNK     1      33.505  -7.414  33.379  1.00  0.00     0.039 A 
HETATM   16  C12 UNK     1      31.016  -6.218  33.791  1.00  0.00     0.022 A 
HETATM   17  C13 UNK     1      31.423  -6.578  32.502  1.00  0.00    -0.058 A 
HETATM   18  C16 UNK     1      32.665  -7.175  32.296  1.00  0.00     0.010 A 
BRANCH  17  19
HETATM   19  C17 UNK     1      30.522  -6.322  31.340  1.00  0.00     0.034 C 
HETATM   20  C19 UNK     1      29.690  -5.056  31.519  1.00  0.00     0.010 C 
ENDBRANCH  17  19
ENDBRANCH   7   8
ENDBRANCH   1   7
BRANCH   2  21
HETATM   21  C6  UNK     1      25.717  -8.163  38.753  1.00  0.00     0.375 C 
BRANCH  21  22
HETATM   22  C9  UNK     1      24.319  -7.568  38.751  1.00  0.00     0.250 C 
HETATM   23  O2  UNK     1      24.094  -6.405  39.071  1.00  0.00    -0.271 OA
HETATM   24  N3  UNK     1      23.391  -8.520  38.336  1.00  0.00    -0.326 N 
HETATM   25  H15 UNK     1      23.738  -9.445  38.093  1.00  0.00     0.169 HD
BRANCH  24  26
HETATM   26  C18 UNK     1      21.991  -8.361  38.200  1.00  0.00     0.036 A 
HETATM   27  C20 UNK     1      21.457  -7.846  37.019  1.00  0.00     0.048 A 
HETATM   28  C22 UNK     1      20.077  -7.689  36.887  1.00  0.00     0.002 A 
HETATM   29  C24 UNK     1      19.232  -8.044  37.937  1.00  0.00     0.018 A 
HETATM   30  C23 UNK     1      19.765  -8.558  39.119  1.00  0.00     0.004 A 
HETATM   31  C21 UNK     1      21.144  -8.716  39.250  1.00  0.00     0.029 A 
BRANCH  28  32
HETATM   32  S1  UNK     1      19.395  -7.034  35.376  1.00  0.00    -0.134 SA
HETATM   33  C25 UNK     1      17.645  -7.490  35.532  1.00  0.00     0.095 C 
ENDBRANCH  28  32
ENDBRANCH  24  26
ENDBRANCH  21  22
ENDBRANCH   2  21
TORSDOF 7
ENDMDL
