MODEL 1
REMARK VINA RESULT:      -9.7      0.000      0.000
REMARK  3 active torsions:
REMARK  status: ('A' for Active; 'I' for Inactive)
REMARK    1  A    between atoms: C11_18  and  N1_6 
REMARK    2  A    between atoms: C5_12  and  N1_6 
REMARK    3  A    between atoms: C16_23  and  N2_7 
ROOT
HETATM    1  O1  UNK     1      20.045  -0.314  29.014  1.00  0.00    -0.320 OA
HETATM    2  O2  UNK     1      18.353   0.722  33.256  1.00  0.00    -0.274 OA
HETATM    3  O3  UNK     1      17.509   1.267  35.310  1.00  0.00    -0.260 OA
HETATM    4  C1  UNK     1      19.254   0.132  31.082  1.00  0.00     0.061 A 
HETATM    5  C2  UNK     1      19.081  -0.175  32.443  1.00  0.00     0.105 A 
HETATM    6  C3  UNK     1      19.620  -1.352  32.987  1.00  0.00     0.005 A 
HETATM    7  C4  UNK     1      19.973  -0.762  30.298  1.00  0.00     0.090 A 
HETATM    8  C5  UNK     1      18.870   1.186  30.211  1.00  0.00     0.071 A 
HETATM    9  C6  UNK     1      19.410  -1.624  34.418  1.00  0.00    -0.043 A 
HETATM   10  C7  UNK     1      20.338  -2.216  32.142  1.00  0.00     0.017 A 
HETATM   11  C8  UNK     1      20.530  -1.942  30.780  1.00  0.00     0.039 A 
HETATM   12  C9  UNK     1      19.374   0.867  28.971  1.00  0.00     0.173 A 
HETATM   13  C10 UNK     1      18.713  -0.750  35.156  1.00  0.00     0.090 A 
HETATM   14  C12 UNK     1      19.972  -2.873  35.034  1.00  0.00     0.049 C 
HETATM   15  C13 UNK     1      18.140   0.489  34.605  1.00  0.00     0.288 A 
ENDROOT
BRANCH   8  16
HETATM   16  N1  UNK     1      18.155   2.287  30.517  1.00  0.00    -0.354 N 
HETATM   17  H4  UNK     1      17.159   2.147  30.684  1.00  0.00     0.166 HD
BRANCH  16  18
HETATM   18  C11 UNK     1      18.491   3.672  30.794  1.00  0.00     0.035 A 
HETATM   19  C14 UNK     1      18.301   4.150  32.069  1.00  0.00     0.065 A 
HETATM   20  C16 UNK     1      18.624   5.482  32.335  1.00  0.00     0.105 A 
HETATM   21  C18 UNK     1      19.127   6.294  31.319  1.00  0.00     0.036 A 
HETATM   22  C17 UNK     1      19.307   5.776  30.036  1.00  0.00     0.005 A 
HETATM   23  C15 UNK     1      18.985   4.445  29.770  1.00  0.00     0.029 A 
BRANCH  20  24
HETATM   24  N2  UNK     1      18.441   6.010  33.640  1.00  0.00    -0.116 N 
HETATM   25  O4  UNK     1      17.273   6.174  34.071  1.00  0.00    -0.532 OA
HETATM   26  O5  UNK     1      19.450   6.298  34.328  1.00  0.00    -0.532 OA
ENDBRANCH  20  24
ENDBRANCH  16  18
ENDBRANCH   8  16
TORSDOF 3
ENDMDL
MODEL 2
REMARK VINA RESULT:      -9.6      1.727      2.421
REMARK  3 active torsions:
REMARK  status: ('A' for Active; 'I' for Inactive)
REMARK    1  A    between atoms: C11_18  and  N1_6 
REMARK    2  A    between atoms: C5_12  and  N1_6 
REMARK    3  A    between atoms: C16_23  and  N2_7 
ROOT
HETATM    1  O1  UNK     1      18.947   1.964  28.538  1.00  0.00    -0.320 OA
HETATM    2  O2  UNK     1      18.753   0.408  32.951  1.00  0.00    -0.274 OA
HETATM    3  O3  UNK     1      18.636  -0.312  35.117  1.00  0.00    -0.260 OA
HETATM    4  C1  UNK     1      18.885   1.162  30.648  1.00  0.00     0.061 A 
HETATM    5  C2  UNK     1      19.177   0.190  31.621  1.00  0.00     0.105 A 
HETATM    6  C3  UNK     1      19.878  -0.978  31.280  1.00  0.00     0.005 A 
HETATM    7  C4  UNK     1      19.310   0.930  29.346  1.00  0.00     0.090 A 
HETATM    8  C5  UNK     1      18.224   2.418  30.620  1.00  0.00     0.071 A 
HETATM    9  C6  UNK     1      20.158  -1.963  32.337  1.00  0.00    -0.043 A 
HETATM   10  C7  UNK     1      20.281  -1.155  29.945  1.00  0.00     0.017 A 
HETATM   11  C8  UNK     1      20.007  -0.207  28.948  1.00  0.00     0.039 A 
HETATM   12  C9  UNK     1      18.289   2.861  29.319  1.00  0.00     0.173 A 
HETATM   13  C10 UNK     1      19.738  -1.720  33.587  1.00  0.00     0.090 A 
HETATM   14  C12 UNK     1      20.904  -3.224  32.009  1.00  0.00     0.049 C 
HETATM   15  C13 UNK     1      19.004  -0.502  33.964  1.00  0.00     0.288 A 
ENDROOT
BRANCH   8  16
HETATM   16  N1  UNK     1      17.641   3.065  31.649  1.00  0.00    -0.354 N 
HETATM   17  H4  UNK     1      16.896   2.566  32.133  1.00  0.00     0.166 HD
BRANCH  16  18
HETATM   18  C11 UNK     1      17.904   4.311  32.345  1.00  0.00     0.035 A 
HETATM   19  C14 UNK     1      17.392   5.475  31.823  1.00  0.00     0.065 A 
HETATM   20  C16 UNK     1      17.645   6.674  32.492  1.00  0.00     0.105 A 
HETATM   21  C18 UNK     1      18.402   6.672  33.663  1.00  0.00     0.036 A 
HETATM   22  C17 UNK     1      18.907   5.472  34.166  1.00  0.00     0.005 A 
HETATM   23  C15 UNK     1      18.654   4.275  33.498  1.00  0.00     0.029 A 
BRANCH  20  24
HETATM   24  N2  UNK     1      17.131   7.894  31.980  1.00  0.00    -0.116 N 
HETATM   25  O4  UNK     1      16.646   7.912  30.823  1.00  0.00    -0.532 OA
HETATM   26  O5  UNK     1      17.177   8.922  32.698  1.00  0.00    -0.532 OA
ENDBRANCH  20  24
ENDBRANCH  16  18
ENDBRANCH   8  16
TORSDOF 3
ENDMDL
MODEL 3
REMARK VINA RESULT:      -9.5     23.278     25.060
REMARK  3 active torsions:
REMARK  status: ('A' for Active; 'I' for Inactive)
REMARK    1  A    between atoms: C11_18  and  N1_6 
REMARK    2  A    between atoms: C5_12  and  N1_6 
REMARK    3  A    between atoms: C16_23  and  N2_7 
ROOT
HETATM    1  O1  UNK     1      16.116   5.013   9.601  1.00  0.00    -0.320 OA
HETATM    2  O2  UNK     1      13.464   8.847  10.043  1.00  0.00    -0.274 OA
HETATM    3  O3  UNK     1      12.131  10.693  10.251  1.00  0.00    -0.260 OA
HETATM    4  C1  UNK     1      14.889   6.896   9.823  1.00  0.00     0.061 A 
HETATM    5  C2  UNK     1      14.757   8.279  10.038  1.00  0.00     0.105 A 
HETATM    6  C3  UNK     1      15.889   9.084  10.246  1.00  0.00     0.005 A 
HETATM    7  C4  UNK     1      16.169   6.355   9.822  1.00  0.00     0.090 A 
HETATM    8  C5  UNK     1      14.010   5.806   9.586  1.00  0.00     0.071 A 
HETATM    9  C6  UNK     1      15.693  10.526  10.466  1.00  0.00    -0.043 A 
HETATM   10  C7  UNK     1      17.157   8.478  10.233  1.00  0.00     0.017 A 
HETATM   11  C8  UNK     1      17.326   7.101  10.022  1.00  0.00     0.039 A 
HETATM   12  C9  UNK     1      14.803   4.689   9.459  1.00  0.00     0.173 A 
HETATM   13  C10 UNK     1      14.451  11.027  10.463  1.00  0.00     0.090 A 
HETATM   14  C12 UNK     1      16.881  11.418  10.691  1.00  0.00     0.049 C 
HETATM   15  C13 UNK     1      13.253  10.201  10.247  1.00  0.00     0.288 A 
ENDROOT
BRANCH   8  16
HETATM   16  N1  UNK     1      12.665   5.837   9.500  1.00  0.00    -0.354 N 
HETATM   17  H4  UNK     1      12.156   5.855  10.383  1.00  0.00     0.166 HD
BRANCH  16  18
HETATM   18  C11 UNK     1      11.720   5.975   8.407  1.00  0.00     0.035 A 
HETATM   19  C14 UNK     1      10.377   5.883   8.685  1.00  0.00     0.065 A 
HETATM   20  C16 UNK     1       9.469   6.015   7.633  1.00  0.00     0.105 A 
HETATM   21  C18 UNK     1       9.931   6.236   6.336  1.00  0.00     0.036 A 
HETATM   22  C17 UNK     1      11.301   6.324   6.089  1.00  0.00     0.005 A 
HETATM   23  C15 UNK     1      12.209   6.193   7.140  1.00  0.00     0.029 A 
BRANCH  20  24
HETATM   24  N2  UNK     1       8.074   5.924   7.884  1.00  0.00    -0.116 N 
HETATM   25  O4  UNK     1       7.402   6.981   7.966  1.00  0.00    -0.532 OA
HETATM   26  O5  UNK     1       7.552   4.792   8.018  1.00  0.00    -0.532 OA
ENDBRANCH  20  24
ENDBRANCH  16  18
ENDBRANCH   8  16
TORSDOF 3
ENDMDL
MODEL 4
REMARK VINA RESULT:      -9.4      2.448      5.236
REMARK  3 active torsions:
REMARK  status: ('A' for Active; 'I' for Inactive)
REMARK    1  A    between atoms: C11_18  and  N1_6 
REMARK    2  A    between atoms: C5_12  and  N1_6 
REMARK    3  A    between atoms: C16_23  and  N2_7 
ROOT
HETATM    1  O1  UNK     1      20.629  -2.674  30.633  1.00  0.00    -0.320 OA
HETATM    2  O2  UNK     1      18.711   1.085  32.664  1.00  0.00    -0.274 OA
HETATM    3  O3  UNK     1      17.775   2.897  33.696  1.00  0.00    -0.260 OA
HETATM    4  C1  UNK     1      19.704  -0.833  31.556  1.00  0.00     0.061 A 
HETATM    5  C2  UNK     1      19.194   0.476  31.484  1.00  0.00     0.105 A 
HETATM    6  C3  UNK     1      19.164   1.168  30.262  1.00  0.00     0.005 A 
HETATM    7  C4  UNK     1      20.174  -1.415  30.385  1.00  0.00     0.090 A 
HETATM    8  C5  UNK     1      19.888  -1.807  32.572  1.00  0.00     0.071 A 
HETATM    9  C6  UNK     1      18.620   2.535  30.243  1.00  0.00    -0.043 A 
HETATM   10  C7  UNK     1      19.655   0.525  29.113  1.00  0.00     0.017 A 
HETATM   11  C8  UNK     1      20.171  -0.779  29.148  1.00  0.00     0.039 A 
HETATM   12  C9  UNK     1      20.451  -2.903  31.960  1.00  0.00     0.173 A 
HETATM   13  C10 UNK     1      18.172   3.078  31.383  1.00  0.00     0.090 A 
HETATM   14  C12 UNK     1      18.573   3.306  28.955  1.00  0.00     0.049 C 
HETATM   15  C13 UNK     1      18.194   2.370  32.673  1.00  0.00     0.288 A 
ENDROOT
BRANCH   8  16
HETATM   16  N1  UNK     1      19.580  -1.700  33.881  1.00  0.00    -0.354 N 
HETATM   17  H4  UNK     1      20.252  -2.095  34.537  1.00  0.00     0.166 HD
BRANCH  16  18
HETATM   18  C11 UNK     1      18.531  -1.027  34.625  1.00  0.00     0.035 A 
HETATM   19  C14 UNK     1      18.892  -0.189  35.654  1.00  0.00     0.065 A 
HETATM   20  C16 UNK     1      17.883   0.458  36.370  1.00  0.00     0.105 A 
HETATM   21  C18 UNK     1      16.546   0.248  36.036  1.00  0.00     0.036 A 
HETATM   22  C17 UNK     1      16.215  -0.610  34.986  1.00  0.00     0.005 A 
HETATM   23  C15 UNK     1      17.222  -1.256  34.270  1.00  0.00     0.029 A 
BRANCH  20  24
HETATM   24  N2  UNK     1      18.219   1.331  37.438  1.00  0.00    -0.116 N 
HETATM   25  O4  UNK     1      17.787   1.078  38.589  1.00  0.00    -0.532 OA
HETATM   26  O5  UNK     1      18.939   2.331  37.204  1.00  0.00    -0.532 OA
ENDBRANCH  20  24
ENDBRANCH  16  18
ENDBRANCH   8  16
TORSDOF 3
ENDMDL
MODEL 5
REMARK VINA RESULT:      -9.4      2.889      7.549
REMARK  3 active torsions:
REMARK  status: ('A' for Active; 'I' for Inactive)
REMARK    1  A    between atoms: C11_18  and  N1_6 
REMARK    2  A    between atoms: C5_12  and  N1_6 
REMARK    3  A    between atoms: C16_23  and  N2_7 
ROOT
HETATM    1  O1  UNK     1      20.659   6.467  32.734  1.00  0.00    -0.320 OA
HETATM    2  O2  UNK     1      16.020   6.625  32.111  1.00  0.00    -0.274 OA
HETATM    3  O3  UNK     1      13.759   6.666  31.777  1.00  0.00    -0.260 OA
HETATM    4  C1  UNK     1      18.420   6.592  32.474  1.00  0.00     0.061 A 
HETATM    5  C2  UNK     1      17.162   7.159  32.748  1.00  0.00     0.105 A 
HETATM    6  C3  UNK     1      17.042   8.239  33.638  1.00  0.00     0.005 A 
HETATM    7  C4  UNK     1      19.532   7.131  33.109  1.00  0.00     0.090 A 
HETATM    8  C5  UNK     1      18.913   5.536  31.664  1.00  0.00     0.071 A 
HETATM    9  C6  UNK     1      15.702   8.795  33.889  1.00  0.00    -0.043 A 
HETATM   10  C7  UNK     1      18.204   8.740  34.250  1.00  0.00     0.017 A 
HETATM   11  C8  UNK     1      19.474   8.198  34.000  1.00  0.00     0.039 A 
HETATM   12  C9  UNK     1      20.275   5.503  31.858  1.00  0.00     0.173 A 
HETATM   13  C10 UNK     1      14.644   8.260  33.266  1.00  0.00     0.090 A 
HETATM   14  C12 UNK     1      15.535   9.949  34.835  1.00  0.00     0.049 C 
HETATM   15  C13 UNK     1      14.749   7.130  32.330  1.00  0.00     0.288 A 
ENDROOT
BRANCH   8  16
HETATM   16  N1  UNK     1      18.207   4.717  30.858  1.00  0.00    -0.354 N 
HETATM   17  H4  UNK     1      17.376   5.117  30.424  1.00  0.00     0.166 HD
BRANCH  16  18
HETATM   18  C11 UNK     1      18.411   3.376  30.342  1.00  0.00     0.035 A 
HETATM   19  C14 UNK     1      18.995   2.439  31.160  1.00  0.00     0.065 A 
HETATM   20  C16 UNK     1      19.192   1.150  30.663  1.00  0.00     0.105 A 
HETATM   21  C18 UNK     1      18.798   0.836  29.363  1.00  0.00     0.036 A 
HETATM   22  C17 UNK     1      18.208   1.812  28.558  1.00  0.00     0.005 A 
HETATM   23  C15 UNK     1      18.011   3.100  29.055  1.00  0.00     0.029 A 
BRANCH  20  24
HETATM   24  N2  UNK     1      19.792   0.157  31.482  1.00  0.00    -0.116 N 
HETATM   25  O4  UNK     1      19.141  -0.309  32.448  1.00  0.00    -0.532 OA
HETATM   26  O5  UNK     1      20.957  -0.226  31.218  1.00  0.00    -0.532 OA
ENDBRANCH  20  24
ENDBRANCH  16  18
ENDBRANCH   8  16
TORSDOF 3
ENDMDL
MODEL 6
REMARK VINA RESULT:      -9.3      1.963      3.987
REMARK  3 active torsions:
REMARK  status: ('A' for Active; 'I' for Inactive)
REMARK    1  A    between atoms: C11_18  and  N1_6 
REMARK    2  A    between atoms: C5_12  and  N1_6 
REMARK    3  A    between atoms: C16_23  and  N2_7 
ROOT
HETATM    1  O1  UNK     1      18.381  -0.065  35.465  1.00  0.00    -0.320 OA
HETATM    2  O2  UNK     1      18.967   0.886  30.917  1.00  0.00    -0.274 OA
HETATM    3  O3  UNK     1      19.231   1.390  28.703  1.00  0.00    -0.260 OA
HETATM    4  C1  UNK     1      18.691   0.337  33.264  1.00  0.00     0.061 A 
HETATM    5  C2  UNK     1      19.150  -0.021  31.984  1.00  0.00     0.105 A 
HETATM    6  C3  UNK     1      19.780  -1.258  31.768  1.00  0.00     0.005 A 
HETATM    7  C4  UNK     1      18.880  -0.567  34.302  1.00  0.00     0.090 A 
HETATM    8  C5  UNK     1      18.035   1.456  33.843  1.00  0.00     0.071 A 
HETATM    9  C6  UNK     1      20.240  -1.582  30.409  1.00  0.00    -0.043 A 
HETATM   10  C7  UNK     1      19.941  -2.130  32.859  1.00  0.00     0.017 A 
HETATM   11  C8  UNK     1      19.497  -1.805  34.149  1.00  0.00     0.039 A 
HETATM   12  C9  UNK     1      17.871   1.161  35.176  1.00  0.00     0.173 A 
HETATM   13  C10 UNK     1      20.049  -0.696  29.423  1.00  0.00     0.090 A 
HETATM   14  C12 UNK     1      20.918  -2.895  30.140  1.00  0.00     0.049 C 
HETATM   15  C13 UNK     1      19.391   0.604  29.628  1.00  0.00     0.288 A 
ENDROOT
BRANCH   8  16
HETATM   16  N1  UNK     1      17.642   2.589  33.226  1.00  0.00    -0.354 N 
HETATM   17  H4  UNK     1      16.674   2.619  32.910  1.00  0.00     0.166 HD
BRANCH  16  18
HETATM   18  C11 UNK     1      18.257   3.883  32.993  1.00  0.00     0.035 A 
HETATM   19  C14 UNK     1      18.408   4.313  31.696  1.00  0.00     0.065 A 
HETATM   20  C16 UNK     1      18.999   5.558  31.472  1.00  0.00     0.105 A 
HETATM   21  C18 UNK     1      19.420   6.335  32.551  1.00  0.00     0.036 A 
HETATM   22  C17 UNK     1      19.251   5.867  33.855  1.00  0.00     0.005 A 
HETATM   23  C15 UNK     1      18.660   4.624  34.079  1.00  0.00     0.029 A 
BRANCH  20  24
HETATM   24  N2  UNK     1      19.171   6.033  30.145  1.00  0.00    -0.116 N 
HETATM   25  O4  UNK     1      18.155   6.308  29.461  1.00  0.00    -0.532 OA
HETATM   26  O5  UNK     1      20.333   6.165  29.692  1.00  0.00    -0.532 OA
ENDBRANCH  20  24
ENDBRANCH  16  18
ENDBRANCH   8  16
TORSDOF 3
ENDMDL
MODEL 7
REMARK VINA RESULT:      -9.2      1.230      3.579
REMARK  3 active torsions:
REMARK  status: ('A' for Active; 'I' for Inactive)
REMARK    1  A    between atoms: C11_18  and  N1_6 
REMARK    2  A    between atoms: C5_12  and  N1_6 
REMARK    3  A    between atoms: C16_23  and  N2_7 
ROOT
HETATM    1  O1  UNK     1      18.367   0.224  35.315  1.00  0.00    -0.320 OA
HETATM    2  O2  UNK     1      18.965   0.723  30.697  1.00  0.00    -0.274 OA
HETATM    3  O3  UNK     1      19.234   1.008  28.445  1.00  0.00    -0.260 OA
HETATM    4  C1  UNK     1      18.684   0.408  33.087  1.00  0.00     0.061 A 
HETATM    5  C2  UNK     1      19.148  -0.073  31.850  1.00  0.00     0.105 A 
HETATM    6  C3  UNK     1      19.784  -1.322  31.759  1.00  0.00     0.005 A 
HETATM    7  C4  UNK     1      18.873  -0.389  34.209  1.00  0.00     0.090 A 
HETATM    8  C5  UNK     1      18.020   1.575  33.550  1.00  0.00     0.071 A 
HETATM    9  C6  UNK     1      20.251  -1.777  30.439  1.00  0.00    -0.043 A 
HETATM   10  C7  UNK     1      19.946  -2.081  32.931  1.00  0.00     0.017 A 
HETATM   11  C8  UNK     1      19.496  -1.633  34.181  1.00  0.00     0.039 A 
HETATM   12  C9  UNK     1      17.852   1.412  34.905  1.00  0.00     0.173 A 
HETATM   13  C10 UNK     1      20.059  -0.993  29.370  1.00  0.00     0.090 A 
HETATM   14  C12 UNK     1      20.936  -3.107  30.304  1.00  0.00     0.049 C 
HETATM   15  C13 UNK     1      19.394   0.317  29.444  1.00  0.00     0.288 A 
ENDROOT
BRANCH   8  16
HETATM   16  N1  UNK     1      17.624   2.639  32.823  1.00  0.00    -0.354 N 
HETATM   17  H4  UNK     1      16.640   2.666  32.558  1.00  0.00     0.166 HD
BRANCH  16  18
HETATM   18  C11 UNK     1      18.260   3.875  32.403  1.00  0.00     0.035 A 
HETATM   19  C14 UNK     1      18.394   4.889  33.320  1.00  0.00     0.065 A 
HETATM   20  C16 UNK     1      19.005   6.077  32.916  1.00  0.00     0.105 A 
HETATM   21  C18 UNK     1      19.464   6.214  31.606  1.00  0.00     0.036 A 
HETATM   22  C17 UNK     1      19.312   5.164  30.700  1.00  0.00     0.005 A 
HETATM   23  C15 UNK     1      18.702   3.977  31.104  1.00  0.00     0.029 A 
BRANCH  20  24
HETATM   24  N2  UNK     1      19.160   7.146  33.838  1.00  0.00    -0.116 N 
HETATM   25  O4  UNK     1      20.198   7.849  33.785  1.00  0.00    -0.532 OA
HETATM   26  O5  UNK     1      18.255   7.358  34.681  1.00  0.00    -0.532 OA
ENDBRANCH  20  24
ENDBRANCH  16  18
ENDBRANCH   8  16
TORSDOF 3
ENDMDL
MODEL 8
REMARK VINA RESULT:      -9.1      2.311      2.962
REMARK  3 active torsions:
REMARK  status: ('A' for Active; 'I' for Inactive)
REMARK    1  A    between atoms: C11_18  and  N1_6 
REMARK    2  A    between atoms: C5_12  and  N1_6 
REMARK    3  A    between atoms: C16_23  and  N2_7 
ROOT
HETATM    1  O1  UNK     1      18.661   1.341  31.134  1.00  0.00    -0.320 OA
HETATM    2  O2  UNK     1      18.043   1.573  35.770  1.00  0.00    -0.274 OA
HETATM    3  O3  UNK     1      17.732   1.733  38.029  1.00  0.00    -0.260 OA
HETATM    4  C1  UNK     1      18.375   1.391  33.373  1.00  0.00     0.061 A 
HETATM    5  C2  UNK     1      18.346   0.782  34.640  1.00  0.00     0.105 A 
HETATM    6  C3  UNK     1      18.615  -0.589  34.782  1.00  0.00     0.005 A 
HETATM    7  C4  UNK     1      18.677   0.597  32.273  1.00  0.00     0.090 A 
HETATM    8  C5  UNK     1      18.167   2.698  32.859  1.00  0.00     0.071 A 
HETATM    9  C6  UNK     1      18.571  -1.176  36.131  1.00  0.00    -0.043 A 
HETATM   10  C7  UNK     1      18.913  -1.339  33.632  1.00  0.00     0.017 A 
HETATM   11  C8  UNK     1      18.950  -0.765  32.353  1.00  0.00     0.039 A 
HETATM   12  C9  UNK     1      18.352   2.613  31.498  1.00  0.00     0.173 A 
HETATM   13  C10 UNK     1      18.279  -0.392  37.178  1.00  0.00     0.090 A 
HETATM   14  C12 UNK     1      18.852  -2.639  36.322  1.00  0.00     0.049 C 
HETATM   15  C13 UNK     1      17.996   1.046  37.050  1.00  0.00     0.288 A 
ENDROOT
BRANCH   8  16
HETATM   16  N1  UNK     1      17.850   3.813  33.548  1.00  0.00    -0.354 N 
HETATM   17  H4  UNK     1      17.348   3.675  34.424  1.00  0.00     0.166 HD
BRANCH  16  18
HETATM   18  C11 UNK     1      18.163   5.222  33.399  1.00  0.00     0.035 A 
HETATM   19  C14 UNK     1      17.258   6.031  32.753  1.00  0.00     0.065 A 
HETATM   20  C16 UNK     1      17.560   7.386  32.610  1.00  0.00     0.105 A 
HETATM   21  C18 UNK     1      18.756   7.892  33.118  1.00  0.00     0.036 A 
HETATM   22  C17 UNK     1      19.652   7.043  33.769  1.00  0.00     0.005 A 
HETATM   23  C15 UNK     1      19.351   5.689  33.912  1.00  0.00     0.029 A 
BRANCH  20  24
HETATM   24  N2  UNK     1      16.648   8.250  31.947  1.00  0.00    -0.116 N 
HETATM   25  O4  UNK     1      16.073   9.149  32.608  1.00  0.00    -0.532 OA
HETATM   26  O5  UNK     1      16.442   8.092  30.720  1.00  0.00    -0.532 OA
ENDBRANCH  20  24
ENDBRANCH  16  18
ENDBRANCH   8  16
TORSDOF 3
ENDMDL
MODEL 9
REMARK VINA RESULT:      -9.0      4.056      8.903
REMARK  3 active torsions:
REMARK  status: ('A' for Active; 'I' for Inactive)
REMARK    1  A    between atoms: C11_18  and  N1_6 
REMARK    2  A    between atoms: C5_12  and  N1_6 
REMARK    3  A    between atoms: C16_23  and  N2_7 
ROOT
HETATM    1  O1  UNK     1      19.736  10.064  34.489  1.00  0.00    -0.320 OA
HETATM    2  O2  UNK     1      15.951   7.709  33.053  1.00  0.00    -0.274 OA
HETATM    3  O3  UNK     1      14.130   6.520  32.349  1.00  0.00    -0.260 OA
HETATM    4  C1  UNK     1      17.878   8.982  33.799  1.00  0.00     0.061 A 
HETATM    5  C2  UNK     1      16.516   8.941  33.452  1.00  0.00     0.105 A 
HETATM    6  C3  UNK     1      15.729  10.103  33.499  1.00  0.00     0.005 A 
HETATM    7  C4  UNK     1      18.416  10.203  34.188  1.00  0.00     0.090 A 
HETATM    8  C5  UNK     1      18.947   8.050  33.870  1.00  0.00     0.071 A 
HETATM    9  C6  UNK     1      14.309  10.004  33.124  1.00  0.00    -0.043 A 
HETATM   10  C7  UNK     1      16.331  11.308  33.901  1.00  0.00     0.017 A 
HETATM   11  C8  UNK     1      17.686  11.385  34.255  1.00  0.00     0.039 A 
HETATM   12  C9  UNK     1      20.049   8.756  34.293  1.00  0.00     0.173 A 
HETATM   13  C10 UNK     1      13.810   8.817  32.752  1.00  0.00     0.090 A 
HETATM   14  C12 UNK     1      13.436  11.226  33.163  1.00  0.00     0.049 C 
HETATM   15  C13 UNK     1      14.619   7.589  32.695  1.00  0.00     0.288 A 
ENDROOT
BRANCH   8  16
HETATM   16  N1  UNK     1      18.910   6.732  33.585  1.00  0.00    -0.354 N 
HETATM   17  H4  UNK     1      18.723   6.106  34.367  1.00  0.00     0.166 HD
BRANCH  16  18
HETATM   18  C11 UNK     1      18.960   5.957  32.359  1.00  0.00     0.035 A 
HETATM   19  C14 UNK     1      18.424   4.691  32.361  1.00  0.00     0.065 A 
HETATM   20  C16 UNK     1      18.473   3.945  31.183  1.00  0.00     0.105 A 
HETATM   21  C18 UNK     1      19.055   4.488  30.037  1.00  0.00     0.036 A 
HETATM   22  C17 UNK     1      19.590   5.776  30.070  1.00  0.00     0.005 A 
HETATM   23  C15 UNK     1      19.541   6.522  31.248  1.00  0.00     0.029 A 
BRANCH  20  24
HETATM   24  N2  UNK     1      17.929   2.634  31.149  1.00  0.00    -0.116 N 
HETATM   25  O4  UNK     1      17.863   1.976  32.216  1.00  0.00    -0.532 OA
HETATM   26  O5  UNK     1      17.529   2.168  30.056  1.00  0.00    -0.532 OA
ENDBRANCH  20  24
ENDBRANCH  16  18
ENDBRANCH   8  16
TORSDOF 3
ENDMDL
MODEL 10
REMARK VINA RESULT:      -9.0      4.465      9.103
REMARK  3 active torsions:
REMARK  status: ('A' for Active; 'I' for Inactive)
REMARK    1  A    between atoms: C11_18  and  N1_6 
REMARK    2  A    between atoms: C5_12  and  N1_6 
REMARK    3  A    between atoms: C16_23  and  N2_7 
ROOT
HETATM    1  O1  UNK     1      17.609  -0.621  36.991  1.00  0.00    -0.320 OA
HETATM    2  O2  UNK     1      20.202  -2.692  33.687  1.00  0.00    -0.274 OA
HETATM    3  O3  UNK     1      21.479  -3.737  32.104  1.00  0.00    -0.260 OA
HETATM    4  C1  UNK     1      18.845  -1.572  35.358  1.00  0.00     0.061 A 
HETATM    5  C2  UNK     1      19.376  -1.608  34.056  1.00  0.00     0.105 A 
HETATM    6  C3  UNK     1      19.090  -0.585  33.138  1.00  0.00     0.005 A 
HETATM    7  C4  UNK     1      18.035  -0.498  35.704  1.00  0.00     0.090 A 
HETATM    8  C5  UNK     1      18.911  -2.393  36.515  1.00  0.00     0.071 A 
HETATM    9  C6  UNK     1      19.671  -0.671  31.789  1.00  0.00    -0.043 A 
HETATM   10  C7  UNK     1      18.263   0.475  33.547  1.00  0.00     0.017 A 
HETATM   11  C8  UNK     1      17.716   0.543  34.838  1.00  0.00     0.039 A 
HETATM   12  C9  UNK     1      18.146  -1.772  37.475  1.00  0.00     0.173 A 
HETATM   13  C10 UNK     1      20.450  -1.716  31.476  1.00  0.00     0.090 A 
HETATM   14  C12 UNK     1      19.387   0.404  30.779  1.00  0.00     0.049 C 
HETATM   15  C13 UNK     1      20.761  -2.797  32.424  1.00  0.00     0.288 A 
ENDROOT
BRANCH   8  16
HETATM   16  N1  UNK     1      19.583  -3.553  36.665  1.00  0.00    -0.354 N 
HETATM   17  H4  UNK     1      20.437  -3.512  37.221  1.00  0.00     0.166 HD
BRANCH  16  18
HETATM   18  C11 UNK     1      19.317  -4.934  36.308  1.00  0.00     0.035 A 
HETATM   19  C14 UNK     1      20.135  -5.543  35.387  1.00  0.00     0.065 A 
HETATM   20  C16 UNK     1      19.879  -6.872  35.043  1.00  0.00     0.105 A 
HETATM   21  C18 UNK     1      18.812  -7.551  35.632  1.00  0.00     0.036 A 
HETATM   22  C17 UNK     1      18.001  -6.902  36.563  1.00  0.00     0.005 A 
HETATM   23  C15 UNK     1      18.257  -5.575  36.907  1.00  0.00     0.029 A 
BRANCH  20  24
HETATM   24  N2  UNK     1      20.704  -7.532  34.096  1.00  0.00    -0.116 N 
HETATM   25  O4  UNK     1      21.329  -8.562  34.447  1.00  0.00    -0.532 OA
HETATM   26  O5  UNK     1      20.788  -7.068  32.933  1.00  0.00    -0.532 OA
ENDBRANCH  20  24
ENDBRANCH  16  18
ENDBRANCH   8  16
TORSDOF 3
ENDMDL
