MODEL 1
REMARK VINA RESULT:      -9.1      0.000      0.000
REMARK  10 active torsions:
REMARK  status: ('A' for Active; 'I' for Inactive)
REMARK    1  A    between atoms: C7_17  and  S1_1 
REMARK    2  A    between atoms: C2_12  and  O1_2 
REMARK    3  A    between atoms: C9_19  and  O1_2 
REMARK    4  A    between atoms: C16_26  and  O2_3 
REMARK    5  A    between atoms: C8_18  and  O2_3 
REMARK    6  A    between atoms: C1_11  and  N1_10 
REMARK       I    between atoms: C9_19  and  N1_10 
REMARK    7  A    between atoms: C1_11  and  C8_18 
REMARK    8  A    between atoms: C1_11  and  C3_13 
REMARK    9  A    between atoms: C3_13  and  C7_17 
REMARK   10  A    between atoms: C10_20  and  C11_21 
ROOT
HETATM    1  O3  UNK     1      19.810  -1.936  33.927  1.00  0.00    -0.321 OA
HETATM    2  O8  UNK     1      18.205  -2.171  37.670  1.00  0.00    -0.286 OA
HETATM    3  C10 UNK     1      19.621  -3.147  36.024  1.00  0.00     0.048 A 
HETATM    4  C12 UNK     1      18.341  -1.014  35.625  1.00  0.00     0.049 A 
HETATM    5  C13 UNK     1      18.929  -0.980  34.361  1.00  0.00     0.091 A 
HETATM    6  C14 UNK     1      18.676  -2.119  36.543  1.00  0.00     0.197 A 
HETATM    7  C16 UNK     1      17.740   1.062  33.865  1.00  0.00     0.082 A 
HETATM    8  C19 UNK     1      18.630   0.059  33.479  1.00  0.00     0.075 A 
HETATM    9  C21 UNK     1      17.450  -0.010  36.014  1.00  0.00     0.021 A 
HETATM   10  C22 UNK     1      17.152   1.027  35.129  1.00  0.00     0.038 A 
HETATM   11  C23 UNK     1      20.098  -2.972  34.783  1.00  0.00     0.159 A 
ENDROOT
BRANCH   7  12
HETATM   12  O2  UNK     1      17.445   2.076  33.006  1.00  0.00    -0.277 OA
BRANCH  12  13
HETATM   13  C8  UNK     1      18.159   3.263  33.236  1.00  0.00     0.287 C 
HETATM   14  O6  UNK     1      18.671   3.569  34.308  1.00  0.00    -0.263 OA
BRANCH  13  15
HETATM   15  C1  UNK     1      18.230   4.155  32.002  1.00  0.00     0.187 C 
BRANCH  15  16
HETATM   16  N1  UNK     1      18.743   5.468  32.301  1.00  0.00    -0.323 N 
HETATM   17  C9  UNK     1      17.969   6.611  32.313  1.00  0.00     0.362 C 
HETATM   18  O7  UNK     1      16.767   6.663  32.074  1.00  0.00    -0.238 OA
HETATM   19  H4  UNK     1      19.732   5.565  32.508  1.00  0.00     0.165 HD
BRANCH  17  20
HETATM   20  O1  UNK     1      18.742   7.692  32.632  1.00  0.00    -0.294 OA
BRANCH  20  21
HETATM   21  C2  UNK     1      18.496   8.280  33.914  1.00  0.00     0.061 C 
HETATM   22  C4  UNK     1      17.653   9.540  33.718  1.00  0.00     0.046 C 
HETATM   23  C5  UNK     1      19.850   8.629  34.528  1.00  0.00     0.046 C 
HETATM   24  C6  UNK     1      17.759   7.261  34.783  1.00  0.00     0.046 C 
ENDBRANCH  20  21
ENDBRANCH  17  20
ENDBRANCH  15  16
BRANCH  15  25
HETATM   25  C3  UNK     1      19.026   3.485  30.874  1.00  0.00     0.045 C 
BRANCH  25  26
HETATM   26  C7  UNK     1      18.295   3.483  29.529  1.00  0.00     0.076 C 
BRANCH  26  27
HETATM   27  S1  UNK     1      18.164   1.792  28.875  1.00  0.00    -0.173 SA
HETATM   28  C27 UNK     1      19.321   0.985  30.003  1.00  0.00     0.089 C 
ENDBRANCH  26  27
ENDBRANCH  25  26
ENDBRANCH  15  25
ENDBRANCH  13  15
ENDBRANCH  12  13
ENDBRANCH   7  12
BRANCH   3  29
HETATM   29  C11 UNK     1      20.008  -4.321  36.823  1.00  0.00    -0.017 A 
HETATM   30  C17 UNK     1      19.159  -5.426  36.895  1.00  0.00     0.052 A 
HETATM   31  C15 UNK     1      19.532  -6.540  37.646  1.00  0.00     0.102 A 
HETATM   32  O4  UNK     1      18.666  -7.601  37.662  1.00  0.00    -0.346 OA
HETATM   33  C18 UNK     1      20.740  -6.539  38.347  1.00  0.00     0.102 A 
HETATM   34  C25 UNK     1      19.288  -8.791  38.158  1.00  0.00     0.202 C 
HETATM   35  C26 UNK     1      20.073  -8.487  39.418  1.00  0.00     0.202 C 
HETATM   36  O5  UNK     1      21.148  -7.588  39.128  1.00  0.00    -0.346 OA
HETATM   37  C24 UNK     1      21.596  -5.440  38.263  1.00  0.00     0.040 A 
HETATM   38  C20 UNK     1      21.227  -4.331  37.501  1.00  0.00     0.015 A 
ENDBRANCH   3  29
TORSDOF 10
ENDMDL
MODEL 2
REMARK VINA RESULT:      -9.0     11.216     13.370
REMARK  10 active torsions:
REMARK  status: ('A' for Active; 'I' for Inactive)
REMARK    1  A    between atoms: C7_17  and  S1_1 
REMARK    2  A    between atoms: C2_12  and  O1_2 
REMARK    3  A    between atoms: C9_19  and  O1_2 
REMARK    4  A    between atoms: C16_26  and  O2_3 
REMARK    5  A    between atoms: C8_18  and  O2_3 
REMARK    6  A    between atoms: C1_11  and  N1_10 
REMARK       I    between atoms: C9_19  and  N1_10 
REMARK    7  A    between atoms: C1_11  and  C8_18 
REMARK    8  A    between atoms: C1_11  and  C3_13 
REMARK    9  A    between atoms: C3_13  and  C7_17 
REMARK   10  A    between atoms: C10_20  and  C11_21 
ROOT
HETATM    1  O3  UNK     1      26.006  -5.120  38.779  1.00  0.00    -0.321 OA
HETATM    2  O8  UNK     1      26.130  -9.193  38.583  1.00  0.00    -0.286 OA
HETATM    3  C10 UNK     1      24.797  -7.227  38.743  1.00  0.00     0.048 A 
HETATM    4  C12 UNK     1      27.315  -7.161  38.667  1.00  0.00     0.049 A 
HETATM    5  C13 UNK     1      27.211  -5.772  38.725  1.00  0.00     0.091 A 
HETATM    6  C14 UNK     1      26.084  -7.974  38.662  1.00  0.00     0.197 A 
HETATM    7  C16 UNK     1      29.618  -5.591  38.671  1.00  0.00     0.082 A 
HETATM    8  C19 UNK     1      28.362  -4.984  38.726  1.00  0.00     0.075 A 
HETATM    9  C21 UNK     1      28.570  -7.771  38.611  1.00  0.00     0.021 A 
HETATM   10  C22 UNK     1      29.721  -6.980  38.614  1.00  0.00     0.038 A 
HETATM   11  C23 UNK     1      24.867  -5.888  38.795  1.00  0.00     0.159 A 
ENDROOT
BRANCH   7  12
HETATM   12  O2  UNK     1      30.743  -4.826  38.674  1.00  0.00    -0.277 OA
BRANCH  12  13
HETATM   13  C8  UNK     1      31.035  -4.211  37.446  1.00  0.00     0.287 C 
HETATM   14  O6  UNK     1      30.808  -3.033  37.187  1.00  0.00    -0.263 OA
BRANCH  13  15
HETATM   15  C1  UNK     1      31.665  -5.170  36.444  1.00  0.00     0.187 C 
BRANCH  15  16
HETATM   16  N1  UNK     1      30.879  -5.306  35.243  1.00  0.00    -0.323 N 
HETATM   17  C9  UNK     1      30.738  -6.490  34.547  1.00  0.00     0.362 C 
HETATM   18  O7  UNK     1      31.251  -7.562  34.849  1.00  0.00    -0.238 OA
HETATM   19  H4  UNK     1      30.407  -4.484  34.879  1.00  0.00     0.165 HD
BRANCH  17  20
HETATM   20  O1  UNK     1      29.934  -6.296  33.460  1.00  0.00    -0.294 OA
BRANCH  20  21
HETATM   21  C2  UNK     1      28.620  -6.860  33.544  1.00  0.00     0.061 C 
HETATM   22  C4  UNK     1      28.666  -8.284  32.991  1.00  0.00     0.046 C 
HETATM   23  C5  UNK     1      27.690  -5.987  32.704  1.00  0.00     0.046 C 
HETATM   24  C6  UNK     1      28.184  -6.858  35.008  1.00  0.00     0.046 C 
ENDBRANCH  20  21
ENDBRANCH  17  20
ENDBRANCH  15  16
BRANCH  15  25
HETATM   25  C3  UNK     1      33.113  -4.773  36.125  1.00  0.00     0.045 C 
BRANCH  25  26
HETATM   26  C7  UNK     1      34.154  -5.660  36.811  1.00  0.00     0.076 C 
BRANCH  26  27
HETATM   27  S1  UNK     1      35.439  -6.169  35.630  1.00  0.00    -0.173 SA
HETATM   28  C27 UNK     1      34.551  -5.796  34.101  1.00  0.00     0.089 C 
ENDBRANCH  26  27
ENDBRANCH  25  26
ENDBRANCH  15  25
ENDBRANCH  13  15
ENDBRANCH  12  13
ENDBRANCH   7  12
BRANCH   3  29
HETATM   29  C11 UNK     1      23.498  -7.917  38.785  1.00  0.00    -0.017 A 
HETATM   30  C17 UNK     1      22.975  -8.491  37.626  1.00  0.00     0.052 A 
HETATM   31  C15 UNK     1      21.748  -9.151  37.672  1.00  0.00     0.102 A 
HETATM   32  O4  UNK     1      21.296  -9.711  36.506  1.00  0.00    -0.346 OA
HETATM   33  C18 UNK     1      21.030  -9.213  38.868  1.00  0.00     0.102 A 
HETATM   34  C25 UNK     1      20.232 -10.639  36.736  1.00  0.00     0.202 C 
HETATM   35  C26 UNK     1      19.213 -10.044  37.688  1.00  0.00     0.202 C 
HETATM   36  O5  UNK     1      19.805  -9.818  38.970  1.00  0.00    -0.346 OA
HETATM   37  C24 UNK     1      21.560  -8.652  40.031  1.00  0.00     0.040 A 
HETATM   38  C20 UNK     1      22.795  -8.003  39.987  1.00  0.00     0.015 A 
ENDBRANCH   3  29
TORSDOF 10
ENDMDL
MODEL 3
REMARK VINA RESULT:      -8.8      4.012     12.126
REMARK  10 active torsions:
REMARK  status: ('A' for Active; 'I' for Inactive)
REMARK    1  A    between atoms: C7_17  and  S1_1 
REMARK    2  A    between atoms: C2_12  and  O1_2 
REMARK    3  A    between atoms: C9_19  and  O1_2 
REMARK    4  A    between atoms: C16_26  and  O2_3 
REMARK    5  A    between atoms: C8_18  and  O2_3 
REMARK    6  A    between atoms: C1_11  and  N1_10 
REMARK       I    between atoms: C9_19  and  N1_10 
REMARK    7  A    between atoms: C1_11  and  C8_18 
REMARK    8  A    between atoms: C1_11  and  C3_13 
REMARK    9  A    between atoms: C3_13  and  C7_17 
REMARK   10  A    between atoms: C10_20  and  C11_21 
ROOT
HETATM    1  O3  UNK     1      16.409   7.718  31.251  1.00  0.00    -0.321 OA
HETATM    2  O8  UNK     1      16.652   7.921  35.318  1.00  0.00    -0.286 OA
HETATM    3  C10 UNK     1      15.858   8.902  33.299  1.00  0.00     0.048 A 
HETATM    4  C12 UNK     1      17.235   6.792  33.336  1.00  0.00     0.049 A 
HETATM    5  C13 UNK     1      17.109   6.768  31.948  1.00  0.00     0.091 A 
HETATM    6  C14 UNK     1      16.591   7.879  34.097  1.00  0.00     0.197 A 
HETATM    7  C16 UNK     1      18.430   4.749  31.864  1.00  0.00     0.082 A 
HETATM    8  C19 UNK     1      17.705   5.746  31.210  1.00  0.00     0.075 A 
HETATM    9  C21 UNK     1      17.959   5.795  33.995  1.00  0.00     0.021 A 
HETATM   10  C22 UNK     1      18.556   4.774  33.253  1.00  0.00     0.038 A 
HETATM   11  C23 UNK     1      15.831   8.738  31.968  1.00  0.00     0.159 A 
ENDROOT
BRANCH   7  12
HETATM   12  O2  UNK     1      19.015   3.752  31.147  1.00  0.00    -0.277 OA
BRANCH  12  13
HETATM   13  C8  UNK     1      18.276   2.559  31.095  1.00  0.00     0.287 C 
HETATM   14  O6  UNK     1      17.262   2.398  30.424  1.00  0.00    -0.263 OA
BRANCH  13  15
HETATM   15  C1  UNK     1      18.865   1.464  31.976  1.00  0.00     0.187 C 
BRANCH  15  16
HETATM   16  N1  UNK     1      18.000   1.119  33.076  1.00  0.00    -0.323 N 
HETATM   17  C9  UNK     1      18.277   0.119  33.988  1.00  0.00     0.362 C 
HETATM   18  O7  UNK     1      19.274  -0.595  33.984  1.00  0.00    -0.238 OA
HETATM   19  H4  UNK     1      17.130   1.632  33.187  1.00  0.00     0.165 HD
BRANCH  17  20
HETATM   20  O1  UNK     1      17.269   0.038  34.907  1.00  0.00    -0.294 OA
BRANCH  20  21
HETATM   21  C2  UNK     1      17.591   0.484  36.229  1.00  0.00     0.061 C 
HETATM   22  C4  UNK     1      18.192  -0.688  37.005  1.00  0.00     0.046 C 
HETATM   23  C5  UNK     1      16.294   0.954  36.884  1.00  0.00     0.046 C 
HETATM   24  C6  UNK     1      18.588   1.636  36.124  1.00  0.00     0.046 C 
ENDBRANCH  20  21
ENDBRANCH  17  20
ENDBRANCH  15  16
BRANCH  15  25
HETATM   25  C3  UNK     1      19.245   0.226  31.152  1.00  0.00     0.045 C 
BRANCH  25  26
HETATM   26  C7  UNK     1      19.960   0.562  29.841  1.00  0.00     0.076 C 
BRANCH  26  27
HETATM   27  S1  UNK     1      20.579  -0.950  29.045  1.00  0.00    -0.173 SA
HETATM   28  C27 UNK     1      20.328  -2.092  30.423  1.00  0.00     0.089 C 
ENDBRANCH  26  27
ENDBRANCH  25  26
ENDBRANCH  15  25
ENDBRANCH  13  15
ENDBRANCH  12  13
ENDBRANCH   7  12
BRANCH   3  29
HETATM   29  C11 UNK     1      15.204  10.060  33.930  1.00  0.00    -0.017 A 
HETATM   30  C17 UNK     1      15.907  10.846  34.843  1.00  0.00     0.052 A 
HETATM   31  C15 UNK     1      15.287  11.947  35.433  1.00  0.00     0.102 A 
HETATM   32  O4  UNK     1      16.036  12.692  36.305  1.00  0.00    -0.346 OA
HETATM   33  C18 UNK     1      13.956  12.245  35.133  1.00  0.00     0.102 A 
HETATM   34  C25 UNK     1      15.435  13.963  36.574  1.00  0.00     0.202 C 
HETATM   35  C26 UNK     1      13.956  13.794  36.860  1.00  0.00     0.202 C 
HETATM   36  O5  UNK     1      13.282  13.292  35.703  1.00  0.00    -0.346 OA
HETATM   37  C24 UNK     1      13.257  11.466  34.209  1.00  0.00     0.040 A 
HETATM   38  C20 UNK     1      13.883  10.373  33.609  1.00  0.00     0.015 A 
ENDBRANCH   3  29
TORSDOF 10
ENDMDL
MODEL 4
REMARK VINA RESULT:      -8.7     11.032     13.655
REMARK  10 active torsions:
REMARK  status: ('A' for Active; 'I' for Inactive)
REMARK    1  A    between atoms: C7_17  and  S1_1 
REMARK    2  A    between atoms: C2_12  and  O1_2 
REMARK    3  A    between atoms: C9_19  and  O1_2 
REMARK    4  A    between atoms: C16_26  and  O2_3 
REMARK    5  A    between atoms: C8_18  and  O2_3 
REMARK    6  A    between atoms: C1_11  and  N1_10 
REMARK       I    between atoms: C9_19  and  N1_10 
REMARK    7  A    between atoms: C1_11  and  C8_18 
REMARK    8  A    between atoms: C1_11  and  C3_13 
REMARK    9  A    between atoms: C3_13  and  C7_17 
REMARK   10  A    between atoms: C10_20  and  C11_21 
ROOT
HETATM    1  O3  UNK     1      27.323  -8.840  38.737  1.00  0.00    -0.321 OA
HETATM    2  O8  UNK     1      25.246  -5.329  38.684  1.00  0.00    -0.286 OA
HETATM    3  C10 UNK     1      25.174  -7.709  38.720  1.00  0.00     0.048 A 
HETATM    4  C12 UNK     1      27.335  -6.415  38.650  1.00  0.00     0.049 A 
HETATM    5  C13 UNK     1      27.991  -7.644  38.682  1.00  0.00     0.091 A 
HETATM    6  C14 UNK     1      25.860  -6.387  38.680  1.00  0.00     0.197 A 
HETATM    7  C16 UNK     1      30.120  -6.508  38.604  1.00  0.00     0.082 A 
HETATM    8  C19 UNK     1      29.385  -7.693  38.660  1.00  0.00     0.075 A 
HETATM    9  C21 UNK     1      28.067  -5.227  38.596  1.00  0.00     0.021 A 
HETATM   10  C22 UNK     1      29.462  -5.279  38.572  1.00  0.00     0.038 A 
HETATM   11  C23 UNK     1      25.950  -8.803  38.743  1.00  0.00     0.159 A 
ENDROOT
BRANCH   7  12
HETATM   12  O2  UNK     1      31.480  -6.552  38.580  1.00  0.00    -0.277 OA
BRANCH  12  13
HETATM   13  C8  UNK     1      32.057  -6.100  37.382  1.00  0.00     0.287 C 
HETATM   14  O6  UNK     1      32.625  -5.022  37.248  1.00  0.00    -0.263 OA
BRANCH  13  15
HETATM   15  C1  UNK     1      31.899  -7.098  36.241  1.00  0.00     0.187 C 
BRANCH  15  16
HETATM   16  N1  UNK     1      31.533  -6.462  35.001  1.00  0.00    -0.323 N 
HETATM   17  C9  UNK     1      30.230  -6.192  34.631  1.00  0.00     0.362 C 
HETATM   18  O7  UNK     1      29.231  -6.454  35.292  1.00  0.00    -0.238 OA
HETATM   19  H4  UNK     1      32.271  -6.202  34.354  1.00  0.00     0.165 HD
BRANCH  17  20
HETATM   20  O1  UNK     1      30.212  -5.586  33.407  1.00  0.00    -0.294 OA
BRANCH  20  21
HETATM   21  C2  UNK     1      29.482  -6.269  32.382  1.00  0.00     0.061 C 
HETATM   22  C4  UNK     1      29.737  -7.769  32.520  1.00  0.00     0.046 C 
HETATM   23  C5  UNK     1      29.993  -5.758  31.036  1.00  0.00     0.046 C 
HETATM   24  C6  UNK     1      27.997  -5.951  32.548  1.00  0.00     0.046 C 
ENDBRANCH  20  21
ENDBRANCH  17  20
ENDBRANCH  15  16
BRANCH  15  25
HETATM   25  C3  UNK     1      33.156  -7.964  36.078  1.00  0.00     0.045 C 
BRANCH  25  26
HETATM   26  C7  UNK     1      34.012  -7.577  34.870  1.00  0.00     0.076 C 
BRANCH  26  27
HETATM   27  S1  UNK     1      35.369  -6.477  35.374  1.00  0.00    -0.173 SA
HETATM   28  C27 UNK     1      34.840  -4.990  34.495  1.00  0.00     0.089 C 
ENDBRANCH  26  27
ENDBRANCH  25  26
ENDBRANCH  15  25
ENDBRANCH  13  15
ENDBRANCH  12  13
ENDBRANCH   7  12
BRANCH   3  29
HETATM   29  C11 UNK     1      23.707  -7.824  38.713  1.00  0.00    -0.017 A 
HETATM   30  C17 UNK     1      23.059  -8.416  37.628  1.00  0.00     0.052 A 
HETATM   31  C15 UNK     1      21.669  -8.531  37.629  1.00  0.00     0.102 A 
HETATM   32  O4  UNK     1      21.092  -9.139  36.545  1.00  0.00    -0.346 OA
HETATM   33  C18 UNK     1      20.925  -8.029  38.699  1.00  0.00     0.102 A 
HETATM   34  C25 UNK     1      19.735  -9.511  36.802  1.00  0.00     0.202 C 
HETATM   35  C26 UNK     1      18.992  -8.366  37.461  1.00  0.00     0.202 C 
HETATM   36  O5  UNK     1      19.557  -8.082  38.744  1.00  0.00    -0.346 OA
HETATM   37  C24 UNK     1      21.575  -7.450  39.791  1.00  0.00     0.040 A 
HETATM   38  C20 UNK     1      22.966  -7.348  39.795  1.00  0.00     0.015 A 
ENDBRANCH   3  29
TORSDOF 10
ENDMDL
MODEL 5
REMARK VINA RESULT:      -8.4      4.262     12.904
REMARK  10 active torsions:
REMARK  status: ('A' for Active; 'I' for Inactive)
REMARK    1  A    between atoms: C7_17  and  S1_1 
REMARK    2  A    between atoms: C2_12  and  O1_2 
REMARK    3  A    between atoms: C9_19  and  O1_2 
REMARK    4  A    between atoms: C16_26  and  O2_3 
REMARK    5  A    between atoms: C8_18  and  O2_3 
REMARK    6  A    between atoms: C1_11  and  N1_10 
REMARK       I    between atoms: C9_19  and  N1_10 
REMARK    7  A    between atoms: C1_11  and  C8_18 
REMARK    8  A    between atoms: C1_11  and  C3_13 
REMARK    9  A    between atoms: C3_13  and  C7_17 
REMARK   10  A    between atoms: C10_20  and  C11_21 
ROOT
HETATM    1  O3  UNK     1      14.850   7.428  33.192  1.00  0.00    -0.321 OA
HETATM    2  O8  UNK     1      16.768  10.916  34.086  1.00  0.00    -0.286 OA
HETATM    3  C10 UNK     1      14.702   9.799  33.698  1.00  0.00     0.048 A 
HETATM    4  C12 UNK     1      16.929   8.630  33.548  1.00  0.00     0.049 A 
HETATM    5  C13 UNK     1      16.219   7.465  33.257  1.00  0.00     0.091 A 
HETATM    6  C14 UNK     1      16.186   9.879  33.799  1.00  0.00     0.197 A 
HETATM    7  C16 UNK     1      18.295   6.247  33.075  1.00  0.00     0.082 A 
HETATM    8  C19 UNK     1      16.901   6.271  33.021  1.00  0.00     0.075 A 
HETATM    9  C21 UNK     1      18.324   8.608  33.603  1.00  0.00     0.021 A 
HETATM   10  C22 UNK     1      19.004   7.413  33.364  1.00  0.00     0.038 A 
HETATM   11  C23 UNK     1      14.170   8.602  33.408  1.00  0.00     0.159 A 
ENDROOT
BRANCH   7  12
HETATM   12  O2  UNK     1      18.964   5.085  32.842  1.00  0.00    -0.277 OA
BRANCH  12  13
HETATM   13  C8  UNK     1      18.708   4.505  31.589  1.00  0.00     0.287 C 
HETATM   14  O6  UNK     1      18.631   5.129  30.537  1.00  0.00    -0.263 OA
BRANCH  13  15
HETATM   15  C1  UNK     1      18.524   2.994  31.668  1.00  0.00     0.187 C 
BRANCH  15  16
HETATM   16  N1  UNK     1      17.855   2.584  32.877  1.00  0.00    -0.323 N 
HETATM   17  C9  UNK     1      18.095   1.385  33.520  1.00  0.00     0.362 C 
HETATM   18  O7  UNK     1      18.892   0.527  33.156  1.00  0.00    -0.238 OA
HETATM   19  H4  UNK     1      17.159   3.204  33.278  1.00  0.00     0.165 HD
BRANCH  17  20
HETATM   20  O1  UNK     1      17.309   1.290  34.633  1.00  0.00    -0.294 OA
BRANCH  20  21
HETATM   21  C2  UNK     1      18.002   1.148  35.878  1.00  0.00     0.061 C 
HETATM   22  C4  UNK     1      17.055   1.545  37.010  1.00  0.00     0.046 C 
HETATM   23  C5  UNK     1      19.212   2.080  35.838  1.00  0.00     0.046 C 
HETATM   24  C6  UNK     1      18.447  -0.305  36.024  1.00  0.00     0.046 C 
ENDBRANCH  20  21
ENDBRANCH  17  20
ENDBRANCH  15  16
BRANCH  15  25
HETATM   25  C3  UNK     1      17.812   2.452  30.421  1.00  0.00     0.045 C 
BRANCH  25  26
HETATM   26  C7  UNK     1      18.771   2.045  29.300  1.00  0.00     0.076 C 
BRANCH  26  27
HETATM   27  S1  UNK     1      19.618   0.491  29.715  1.00  0.00    -0.173 SA
HETATM   28  C27 UNK     1      19.249  -0.420  28.199  1.00  0.00     0.089 C 
ENDBRANCH  26  27
ENDBRANCH  25  26
ENDBRANCH  15  25
ENDBRANCH  13  15
ENDBRANCH  12  13
ENDBRANCH   7  12
BRANCH   3  29
HETATM   29  C11 UNK     1      13.844  10.980  33.888  1.00  0.00    -0.017 A 
HETATM   30  C17 UNK     1      13.535  11.419  35.175  1.00  0.00     0.052 A 
HETATM   31  C15 UNK     1      12.729  12.542  35.351  1.00  0.00     0.102 A 
HETATM   32  O4  UNK     1      12.478  12.936  36.639  1.00  0.00    -0.346 OA
HETATM   33  C18 UNK     1      12.208  13.210  34.241  1.00  0.00     0.102 A 
HETATM   34  C25 UNK     1      11.950  14.265  36.698  1.00  0.00     0.202 C 
HETATM   35  C26 UNK     1      10.851  14.439  35.668  1.00  0.00     0.202 C 
HETATM   36  O5  UNK     1      11.383  14.300  34.347  1.00  0.00    -0.346 OA
HETATM   37  C24 UNK     1      12.528  12.780  32.952  1.00  0.00     0.040 A 
HETATM   38  C20 UNK     1      13.346  11.663  32.777  1.00  0.00     0.015 A 
ENDBRANCH   3  29
TORSDOF 10
ENDMDL
MODEL 6
REMARK VINA RESULT:      -8.4      2.878     11.705
REMARK  10 active torsions:
REMARK  status: ('A' for Active; 'I' for Inactive)
REMARK    1  A    between atoms: C7_17  and  S1_1 
REMARK    2  A    between atoms: C2_12  and  O1_2 
REMARK    3  A    between atoms: C9_19  and  O1_2 
REMARK    4  A    between atoms: C16_26  and  O2_3 
REMARK    5  A    between atoms: C8_18  and  O2_3 
REMARK    6  A    between atoms: C1_11  and  N1_10 
REMARK       I    between atoms: C9_19  and  N1_10 
REMARK    7  A    between atoms: C1_11  and  C8_18 
REMARK    8  A    between atoms: C1_11  and  C3_13 
REMARK    9  A    between atoms: C3_13  and  C7_17 
REMARK   10  A    between atoms: C10_20  and  C11_21 
ROOT
HETATM    1  O3  UNK     1      18.156   2.337  34.595  1.00  0.00    -0.321 OA
HETATM    2  O8  UNK     1      18.629   4.117  30.955  1.00  0.00    -0.286 OA
HETATM    3  C10 UNK     1      18.083   4.364  33.260  1.00  0.00     0.048 A 
HETATM    4  C12 UNK     1      18.655   2.137  32.228  1.00  0.00     0.049 A 
HETATM    5  C13 UNK     1      18.490   1.585  33.498  1.00  0.00     0.091 A 
HETATM    6  C14 UNK     1      18.466   3.589  32.046  1.00  0.00     0.197 A 
HETATM    7  C16 UNK     1      19.011  -0.600  32.614  1.00  0.00     0.082 A 
HETATM    8  C19 UNK     1      18.669   0.216  33.694  1.00  0.00     0.075 A 
HETATM    9  C21 UNK     1      18.998   1.323  31.146  1.00  0.00     0.021 A 
HETATM   10  C22 UNK     1      19.174  -0.047  31.345  1.00  0.00     0.038 A 
HETATM   11  C23 UNK     1      17.962   3.684  34.410  1.00  0.00     0.159 A 
ENDROOT
BRANCH   7  12
HETATM   12  O2  UNK     1      19.184  -1.937  32.801  1.00  0.00    -0.277 OA
BRANCH  12  13
HETATM   13  C8  UNK     1      20.179  -2.272  33.734  1.00  0.00     0.287 C 
HETATM   14  O6  UNK     1      21.380  -2.091  33.565  1.00  0.00    -0.263 OA
BRANCH  13  15
HETATM   15  C1  UNK     1      19.609  -2.903  34.999  1.00  0.00     0.187 C 
BRANCH  15  16
HETATM   16  N1  UNK     1      20.328  -4.087  35.395  1.00  0.00    -0.323 N 
HETATM   17  C9  UNK     1      19.757  -5.138  36.085  1.00  0.00     0.362 C 
HETATM   18  O7  UNK     1      18.587  -5.205  36.446  1.00  0.00    -0.238 OA
HETATM   19  H4  UNK     1      21.314  -4.153  35.165  1.00  0.00     0.165 HD
BRANCH  17  20
HETATM   20  O1  UNK     1      20.693  -6.108  36.311  1.00  0.00    -0.294 OA
BRANCH  20  21
HETATM   21  C2  UNK     1      20.448  -7.372  35.684  1.00  0.00     0.061 C 
HETATM   22  C4  UNK     1      21.586  -8.325  36.049  1.00  0.00     0.046 C 
HETATM   23  C5  UNK     1      20.407  -7.136  34.175  1.00  0.00     0.046 C 
HETATM   24  C6  UNK     1      19.107  -7.909  36.181  1.00  0.00     0.046 C 
ENDBRANCH  20  21
ENDBRANCH  17  20
ENDBRANCH  15  16
BRANCH  15  25
HETATM   25  C3  UNK     1      19.530  -1.884  36.145  1.00  0.00     0.045 C 
BRANCH  25  26
HETATM   26  C7  UNK     1      18.140  -1.781  36.776  1.00  0.00     0.076 C 
BRANCH  26  27
HETATM   27  S1  UNK     1      17.859  -0.111  37.436  1.00  0.00    -0.173 SA
HETATM   28  C27 UNK     1      16.308   0.249  36.582  1.00  0.00     0.089 C 
ENDBRANCH  26  27
ENDBRANCH  25  26
ENDBRANCH  15  25
ENDBRANCH  13  15
ENDBRANCH  12  13
ENDBRANCH   7  12
BRANCH   3  29
HETATM   29  C11 UNK     1      17.826   5.812  33.209  1.00  0.00    -0.017 A 
HETATM   30  C17 UNK     1      18.693   6.697  33.851  1.00  0.00     0.052 A 
HETATM   31  C15 UNK     1      18.451   8.069  33.794  1.00  0.00     0.102 A 
HETATM   32  O4  UNK     1      19.348   8.889  34.426  1.00  0.00    -0.346 OA
HETATM   33  C18 UNK     1      17.328   8.555  33.120  1.00  0.00     0.102 A 
HETATM   34  C25 UNK     1      19.205  10.253  34.019  1.00  0.00     0.202 C 
HETATM   35  C26 UNK     1      17.742  10.652  34.024  1.00  0.00     0.202 C 
HETATM   36  O5  UNK     1      17.017   9.888  33.056  1.00  0.00    -0.346 OA
HETATM   37  C24 UNK     1      16.469   7.671  32.466  1.00  0.00     0.040 A 
HETATM   38  C20 UNK     1      16.719   6.299  32.512  1.00  0.00     0.015 A 
ENDBRANCH   3  29
TORSDOF 10
ENDMDL
MODEL 7
REMARK VINA RESULT:      -8.4      4.238     13.249
REMARK  10 active torsions:
REMARK  status: ('A' for Active; 'I' for Inactive)
REMARK    1  A    between atoms: C7_17  and  S1_1 
REMARK    2  A    between atoms: C2_12  and  O1_2 
REMARK    3  A    between atoms: C9_19  and  O1_2 
REMARK    4  A    between atoms: C16_26  and  O2_3 
REMARK    5  A    between atoms: C8_18  and  O2_3 
REMARK    6  A    between atoms: C1_11  and  N1_10 
REMARK       I    between atoms: C9_19  and  N1_10 
REMARK    7  A    between atoms: C1_11  and  C8_18 
REMARK    8  A    between atoms: C1_11  and  C3_13 
REMARK    9  A    between atoms: C3_13  and  C7_17 
REMARK   10  A    between atoms: C10_20  and  C11_21 
ROOT
HETATM    1  O3  UNK     1      19.640   9.038  34.210  1.00  0.00    -0.321 OA
HETATM    2  O8  UNK     1      15.873  10.237  33.205  1.00  0.00    -0.286 OA
HETATM    3  C10 UNK     1      18.017  10.837  34.047  1.00  0.00     0.048 A 
HETATM    4  C12 UNK     1      17.421   8.475  33.405  1.00  0.00     0.049 A 
HETATM    5  C13 UNK     1      18.725   8.125  33.753  1.00  0.00     0.091 A 
HETATM    6  C14 UNK     1      16.998   9.883  33.527  1.00  0.00     0.197 A 
HETATM    7  C16 UNK     1      18.261   5.827  33.180  1.00  0.00     0.082 A 
HETATM    8  C19 UNK     1      19.148   6.801  33.640  1.00  0.00     0.075 A 
HETATM    9  C21 UNK     1      16.531   7.502  32.943  1.00  0.00     0.021 A 
HETATM   10  C22 UNK     1      16.956   6.177  32.833  1.00  0.00     0.038 A 
HETATM   11  C23 UNK     1      19.229  10.343  34.339  1.00  0.00     0.159 A 
ENDROOT
BRANCH   7  12
HETATM   12  O2  UNK     1      18.669   4.533  33.071  1.00  0.00    -0.277 OA
BRANCH  12  13
HETATM   13  C8  UNK     1      18.860   4.090  31.752  1.00  0.00     0.287 C 
HETATM   14  O6  UNK     1      19.247   4.800  30.830  1.00  0.00    -0.263 OA
BRANCH  13  15
HETATM   15  C1  UNK     1      18.525   2.614  31.573  1.00  0.00     0.187 C 
BRANCH  15  16
HETATM   16  N1  UNK     1      17.607   2.134  32.575  1.00  0.00    -0.323 N 
HETATM   17  C9  UNK     1      17.932   1.182  33.522  1.00  0.00     0.362 C 
HETATM   18  O7  UNK     1      19.021   0.630  33.635  1.00  0.00    -0.238 OA
HETATM   19  H4  UNK     1      16.662   2.506  32.584  1.00  0.00     0.165 HD
BRANCH  17  20
HETATM   20  O1  UNK     1      16.853   0.941  34.325  1.00  0.00    -0.294 OA
BRANCH  20  21
HETATM   21  C2  UNK     1      17.141   0.743  35.714  1.00  0.00     0.061 C 
HETATM   22  C4  UNK     1      18.064   1.868  36.185  1.00  0.00     0.046 C 
HETATM   23  C5  UNK     1      17.831  -0.612  35.852  1.00  0.00     0.046 C 
HETATM   24  C6  UNK     1      15.826   0.758  36.490  1.00  0.00     0.046 C 
ENDBRANCH  20  21
ENDBRANCH  17  20
ENDBRANCH  15  16
BRANCH  15  25
HETATM   25  C3  UNK     1      18.010   2.326  30.156  1.00  0.00     0.045 C 
BRANCH  25  26
HETATM   26  C7  UNK     1      19.009   1.556  29.289  1.00  0.00     0.076 C 
BRANCH  26  27
HETATM   27  S1  UNK     1      19.917   0.338  30.287  1.00  0.00    -0.173 SA
HETATM   28  C27 UNK     1      20.493  -0.724  28.944  1.00  0.00     0.089 C 
ENDBRANCH  26  27
ENDBRANCH  25  26
ENDBRANCH  15  25
ENDBRANCH  13  15
ENDBRANCH  12  13
ENDBRANCH   7  12
BRANCH   3  29
HETATM   29  C11 UNK     1      17.714  12.263  34.254  1.00  0.00    -0.017 A 
HETATM   30  C17 UNK     1      18.340  13.230  33.468  1.00  0.00     0.052 A 
HETATM   31  C15 UNK     1      18.045  14.579  33.662  1.00  0.00     0.102 A 
HETATM   32  O4  UNK     1      18.676  15.481  32.846  1.00  0.00    -0.346 OA
HETATM   33  C18 UNK     1      17.145  14.963  34.660  1.00  0.00     0.102 A 
HETATM   34  C25 UNK     1      18.054  16.768  32.891  1.00  0.00     0.202 C 
HETATM   35  C26 UNK     1      17.780  17.170  34.327  1.00  0.00     0.202 C 
HETATM   36  O5  UNK     1      16.838  16.272  34.921  1.00  0.00    -0.346 OA
HETATM   37  C24 UNK     1      16.508  13.994  35.436  1.00  0.00     0.040 A 
HETATM   38  C20 UNK     1      16.794  12.643  35.232  1.00  0.00     0.015 A 
ENDBRANCH   3  29
TORSDOF 10
ENDMDL
MODEL 8
REMARK VINA RESULT:      -8.3     11.447     14.033
REMARK  10 active torsions:
REMARK  status: ('A' for Active; 'I' for Inactive)
REMARK    1  A    between atoms: C7_17  and  S1_1 
REMARK    2  A    between atoms: C2_12  and  O1_2 
REMARK    3  A    between atoms: C9_19  and  O1_2 
REMARK    4  A    between atoms: C16_26  and  O2_3 
REMARK    5  A    between atoms: C8_18  and  O2_3 
REMARK    6  A    between atoms: C1_11  and  N1_10 
REMARK       I    between atoms: C9_19  and  N1_10 
REMARK    7  A    between atoms: C1_11  and  C8_18 
REMARK    8  A    between atoms: C1_11  and  C3_13 
REMARK    9  A    between atoms: C3_13  and  C7_17 
REMARK   10  A    between atoms: C10_20  and  C11_21 
ROOT
HETATM    1  O3  UNK     1      27.896  -8.372  38.643  1.00  0.00    -0.321 OA
HETATM    2  O8  UNK     1      25.198  -5.312  38.710  1.00  0.00    -0.286 OA
HETATM    3  C10 UNK     1      25.573  -7.663  38.651  1.00  0.00     0.048 A 
HETATM    4  C12 UNK     1      27.453  -5.985  38.652  1.00  0.00     0.049 A 
HETATM    5  C13 UNK     1      28.328  -7.071  38.640  1.00  0.00     0.091 A 
HETATM    6  C14 UNK     1      25.999  -6.235  38.670  1.00  0.00     0.197 A 
HETATM    7  C16 UNK     1      30.206  -5.554  38.626  1.00  0.00     0.082 A 
HETATM    8  C19 UNK     1      29.707  -6.857  38.628  1.00  0.00     0.075 A 
HETATM    9  C21 UNK     1      27.950  -4.680  38.650  1.00  0.00     0.021 A 
HETATM   10  C22 UNK     1      29.330  -4.469  38.637  1.00  0.00     0.038 A 
HETATM   11  C23 UNK     1      26.540  -8.592  38.639  1.00  0.00     0.159 A 
ENDROOT
BRANCH   7  12
HETATM   12  O2  UNK     1      31.551  -5.342  38.612  1.00  0.00    -0.277 OA
BRANCH  12  13
HETATM   13  C8  UNK     1      32.086  -5.076  37.341  1.00  0.00     0.287 C 
HETATM   14  O6  UNK     1      32.108  -3.969  36.814  1.00  0.00    -0.263 OA
BRANCH  13  15
HETATM   15  C1  UNK     1      32.641  -6.324  36.665  1.00  0.00     0.187 C 
BRANCH  15  16
HETATM   16  N1  UNK     1      31.841  -6.743  35.542  1.00  0.00    -0.323 N 
HETATM   17  C9  UNK     1      31.231  -7.979  35.451  1.00  0.00     0.362 C 
HETATM   18  O7  UNK     1      31.288  -8.867  36.295  1.00  0.00    -0.238 OA
HETATM   19  H4  UNK     1      31.723  -6.100  34.765  1.00  0.00     0.165 HD
BRANCH  17  20
HETATM   20  O1  UNK     1      30.546  -8.072  34.272  1.00  0.00    -0.294 OA
BRANCH  20  21
HETATM   21  C2  UNK     1      29.119  -8.001  34.371  1.00  0.00     0.061 C 
HETATM   22  C4  UNK     1      28.529  -8.090  32.964  1.00  0.00     0.046 C 
HETATM   23  C5  UNK     1      28.770  -6.661  35.017  1.00  0.00     0.046 C 
HETATM   24  C6  UNK     1      28.633  -9.159  35.241  1.00  0.00     0.046 C 
ENDBRANCH  20  21
ENDBRANCH  17  20
ENDBRANCH  15  16
BRANCH  15  25
HETATM   25  C3  UNK     1      34.112  -6.137  36.267  1.00  0.00     0.045 C 
BRANCH  25  26
HETATM   26  C7  UNK     1      34.320  -5.967  34.760  1.00  0.00     0.076 C 
BRANCH  26  27
HETATM   27  S1  UNK     1      35.882  -6.736  34.240  1.00  0.00    -0.173 SA
HETATM   28  C27 UNK     1      35.670  -6.575  32.453  1.00  0.00     0.089 C 
ENDBRANCH  26  27
ENDBRANCH  25  26
ENDBRANCH  15  25
ENDBRANCH  13  15
ENDBRANCH  12  13
ENDBRANCH   7  12
BRANCH   3  29
HETATM   29  C11 UNK     1      24.153  -8.050  38.627  1.00  0.00    -0.017 A 
HETATM   30  C17 UNK     1      23.592  -8.573  37.462  1.00  0.00     0.052 A 
HETATM   31  C15 UNK     1      22.249  -8.946  37.445  1.00  0.00     0.102 A 
HETATM   32  O4  UNK     1      21.762  -9.472  36.278  1.00  0.00    -0.346 OA
HETATM   33  C18 UNK     1      21.459  -8.771  38.584  1.00  0.00     0.102 A 
HETATM   34  C25 UNK     1      20.506 -10.129  36.472  1.00  0.00     0.202 C 
HETATM   35  C26 UNK     1      19.584  -9.265  37.309  1.00  0.00     0.202 C 
HETATM   36  O5  UNK     1      20.127  -9.088  38.621  1.00  0.00    -0.346 OA
HETATM   37  C24 UNK     1      22.024  -8.262  39.754  1.00  0.00     0.040 A 
HETATM   38  C20 UNK     1      23.372  -7.901  39.774  1.00  0.00     0.015 A 
ENDBRANCH   3  29
TORSDOF 10
ENDMDL
MODEL 9
REMARK VINA RESULT:      -8.3     26.352     28.894
REMARK  10 active torsions:
REMARK  status: ('A' for Active; 'I' for Inactive)
REMARK    1  A    between atoms: C7_17  and  S1_1 
REMARK    2  A    between atoms: C2_12  and  O1_2 
REMARK    3  A    between atoms: C9_19  and  O1_2 
REMARK    4  A    between atoms: C16_26  and  O2_3 
REMARK    5  A    between atoms: C8_18  and  O2_3 
REMARK    6  A    between atoms: C1_11  and  N1_10 
REMARK       I    between atoms: C9_19  and  N1_10 
REMARK    7  A    between atoms: C1_11  and  C8_18 
REMARK    8  A    between atoms: C1_11  and  C3_13 
REMARK    9  A    between atoms: C3_13  and  C7_17 
REMARK   10  A    between atoms: C10_20  and  C11_21 
ROOT
HETATM    1  O3  UNK     1      14.303   9.634   9.488  1.00  0.00    -0.321 OA
HETATM    2  O8  UNK     1      18.022   8.017   9.925  1.00  0.00    -0.286 OA
HETATM    3  C10 UNK     1      16.710   9.953   9.480  1.00  0.00     0.048 A 
HETATM    4  C12 UNK     1      15.692   7.685   9.886  1.00  0.00     0.049 A 
HETATM    5  C13 UNK     1      14.447   8.294   9.738  1.00  0.00     0.091 A 
HETATM    6  C14 UNK     1      16.912   8.506   9.773  1.00  0.00     0.197 A 
HETATM    7  C16 UNK     1      13.364   6.167  10.102  1.00  0.00     0.082 A 
HETATM    8  C19 UNK     1      13.281   7.536   9.847  1.00  0.00     0.075 A 
HETATM    9  C21 UNK     1      15.779   6.314  10.143  1.00  0.00     0.021 A 
HETATM   10  C22 UNK     1      14.610   5.558  10.249  1.00  0.00     0.038 A 
HETATM   11  C23 UNK     1      15.446  10.386   9.364  1.00  0.00     0.159 A 
ENDROOT
BRANCH   7  12
HETATM   12  O2  UNK     1      12.228   5.424  10.206  1.00  0.00    -0.277 OA
BRANCH  12  13
HETATM   13  C8  UNK     1      11.681   5.021   8.977  1.00  0.00     0.287 C 
HETATM   14  O6  UNK     1      12.216   4.237   8.202  1.00  0.00    -0.263 OA
BRANCH  13  15
HETATM   15  C1  UNK     1      10.332   5.672   8.693  1.00  0.00     0.187 C 
BRANCH  15  16
HETATM   16  N1  UNK     1       9.473   5.684   9.850  1.00  0.00    -0.323 N 
HETATM   17  C9  UNK     1       8.335   4.911   9.970  1.00  0.00     0.362 C 
HETATM   18  O7  UNK     1       7.910   4.129   9.127  1.00  0.00    -0.238 OA
HETATM   19  H4  UNK     1       9.708   6.302  10.621  1.00  0.00     0.165 HD
BRANCH  17  20
HETATM   20  O1  UNK     1       7.740   5.146  11.178  1.00  0.00    -0.294 OA
BRANCH  20  21
HETATM   21  C2  UNK     1       6.497   5.856  11.135  1.00  0.00     0.061 C 
HETATM   22  C4  UNK     1       6.214   6.427  12.524  1.00  0.00     0.046 C 
HETATM   23  C5  UNK     1       5.412   4.857  10.734  1.00  0.00     0.046 C 
HETATM   24  C6  UNK     1       6.609   6.972  10.099  1.00  0.00     0.046 C 
ENDBRANCH  20  21
ENDBRANCH  17  20
ENDBRANCH  15  16
BRANCH  15  25
HETATM   25  C3  UNK     1      10.504   7.080   8.107  1.00  0.00     0.045 C 
BRANCH  25  26
HETATM   26  C7  UNK     1      10.907   7.081   6.630  1.00  0.00     0.076 C 
BRANCH  26  27
HETATM   27  S1  UNK     1       9.699   6.154   5.637  1.00  0.00    -0.173 SA
HETATM   28  C27 UNK     1       8.193   6.731   6.452  1.00  0.00     0.089 C 
ENDBRANCH  26  27
ENDBRANCH  25  26
ENDBRANCH  15  25
ENDBRANCH  13  15
ENDBRANCH  12  13
ENDBRANCH   7  12
BRANCH   3  29
HETATM   29  C11 UNK     1      17.843  10.876   9.304  1.00  0.00    -0.017 A 
HETATM   30  C17 UNK     1      18.231  11.268   8.022  1.00  0.00     0.052 A 
HETATM   31  C15 UNK     1      19.299  12.148   7.859  1.00  0.00     0.102 A 
HETATM   32  O4  UNK     1      19.619  12.511   6.577  1.00  0.00    -0.346 OA
HETATM   33  C18 UNK     1      19.998  12.616   8.974  1.00  0.00     0.102 A 
HETATM   34  C25 UNK     1      20.475  13.658   6.545  1.00  0.00     0.202 C 
HETATM   35  C26 UNK     1      21.601  13.501   7.548  1.00  0.00     0.202 C 
HETATM   36  O5  UNK     1      21.076  13.456   8.878  1.00  0.00    -0.346 OA
HETATM   37  C24 UNK     1      19.601  12.236  10.257  1.00  0.00     0.040 A 
HETATM   38  C20 UNK     1      18.523  11.365  10.420  1.00  0.00     0.015 A 
ENDBRANCH   3  29
TORSDOF 10
ENDMDL
MODEL 10
REMARK VINA RESULT:      -8.3      3.746     11.148
REMARK  10 active torsions:
REMARK  status: ('A' for Active; 'I' for Inactive)
REMARK    1  A    between atoms: C7_17  and  S1_1 
REMARK    2  A    between atoms: C2_12  and  O1_2 
REMARK    3  A    between atoms: C9_19  and  O1_2 
REMARK    4  A    between atoms: C16_26  and  O2_3 
REMARK    5  A    between atoms: C8_18  and  O2_3 
REMARK    6  A    between atoms: C1_11  and  N1_10 
REMARK       I    between atoms: C9_19  and  N1_10 
REMARK    7  A    between atoms: C1_11  and  C8_18 
REMARK    8  A    between atoms: C1_11  and  C3_13 
REMARK    9  A    between atoms: C3_13  and  C7_17 
REMARK   10  A    between atoms: C10_20  and  C11_21 
ROOT
HETATM    1  O3  UNK     1      18.189   4.220  33.452  1.00  0.00    -0.321 OA
HETATM    2  O8  UNK     1      19.012   7.048  30.630  1.00  0.00    -0.286 OA
HETATM    3  C10 UNK     1      18.518   6.564  32.908  1.00  0.00     0.048 A 
HETATM    4  C12 UNK     1      18.646   4.778  31.135  1.00  0.00     0.049 A 
HETATM    5  C13 UNK     1      18.373   3.855  32.144  1.00  0.00     0.091 A 
HETATM    6  C14 UNK     1      18.745   6.209  31.479  1.00  0.00     0.197 A 
HETATM    7  C16 UNK     1      18.460   2.065  30.527  1.00  0.00     0.082 A 
HETATM    8  C19 UNK     1      18.281   2.497  31.841  1.00  0.00     0.075 A 
HETATM    9  C21 UNK     1      18.827   4.349  29.818  1.00  0.00     0.021 A 
HETATM   10  C22 UNK     1      18.732   2.989  29.518  1.00  0.00     0.038 A 
HETATM   11  C23 UNK     1      18.263   5.558  33.757  1.00  0.00     0.159 A 
ENDROOT
BRANCH   7  12
HETATM   12  O2  UNK     1      18.367   0.740  30.227  1.00  0.00    -0.277 OA
BRANCH  12  13
HETATM   13  C8  UNK     1      19.594   0.056  30.221  1.00  0.00     0.287 C 
HETATM   14  O6  UNK     1      20.493   0.249  29.410  1.00  0.00    -0.263 OA
BRANCH  13  15
HETATM   15  C1  UNK     1      19.697  -0.976  31.338  1.00  0.00     0.187 C 
BRANCH  15  16
HETATM   16  N1  UNK     1      18.493  -1.055  32.126  1.00  0.00    -0.323 N 
HETATM   17  C9  UNK     1      18.346  -0.463  33.366  1.00  0.00     0.362 C 
HETATM   18  O7  UNK     1      19.201   0.194  33.950  1.00  0.00    -0.238 OA
HETATM   19  H4  UNK     1      17.708  -1.582  31.758  1.00  0.00     0.165 HD
BRANCH  17  20
HETATM   20  O1  UNK     1      17.095  -0.717  33.855  1.00  0.00    -0.294 OA
BRANCH  20  21
HETATM   21  C2  UNK     1      16.853  -0.294  35.201  1.00  0.00     0.061 C 
HETATM   22  C4  UNK     1      17.494   1.079  35.402  1.00  0.00     0.046 C 
HETATM   23  C5  UNK     1      17.492  -1.326  36.129  1.00  0.00     0.046 C 
HETATM   24  C6  UNK     1      15.344  -0.229  35.427  1.00  0.00     0.046 C 
ENDBRANCH  20  21
ENDBRANCH  17  20
ENDBRANCH  15  16
BRANCH  15  25
HETATM   25  C3  UNK     1      20.101  -2.352  30.792  1.00  0.00     0.045 C 
BRANCH  25  26
HETATM   26  C7  UNK     1      20.773  -3.249  31.834  1.00  0.00     0.076 C 
BRANCH  26  27
HETATM   27  S1  UNK     1      21.519  -2.247  33.155  1.00  0.00    -0.173 SA
HETATM   28  C27 UNK     1      20.545  -2.875  34.541  1.00  0.00     0.089 C 
ENDBRANCH  26  27
ENDBRANCH  25  26
ENDBRANCH  15  25
ENDBRANCH  13  15
ENDBRANCH  12  13
ENDBRANCH   7  12
BRANCH   3  29
HETATM   29  C11 UNK     1      18.549   7.958  33.378  1.00  0.00    -0.017 A 
HETATM   30  C17 UNK     1      17.417   8.763  33.250  1.00  0.00     0.052 A 
HETATM   31  C15 UNK     1      17.448  10.081  33.703  1.00  0.00     0.102 A 
HETATM   32  O4  UNK     1      16.299  10.815  33.568  1.00  0.00    -0.346 OA
HETATM   33  C18 UNK     1      18.618  10.604  34.258  1.00  0.00     0.102 A 
HETATM   34  C25 UNK     1      16.328  12.005  34.363  1.00  0.00     0.202 C 
HETATM   35  C26 UNK     1      17.657  12.715  34.195  1.00  0.00     0.202 C 
HETATM   36  O5  UNK     1      18.722  11.899  34.692  1.00  0.00    -0.346 OA
HETATM   37  C24 UNK     1      19.746   9.795  34.400  1.00  0.00     0.040 A 
HETATM   38  C20 UNK     1      19.710   8.471  33.958  1.00  0.00     0.015 A 
ENDBRANCH   3  29
TORSDOF 10
ENDMDL
