MODEL 1
REMARK VINA RESULT:      -8.9      0.000      0.000
REMARK  10 active torsions:
REMARK  status: ('A' for Active; 'I' for Inactive)
REMARK    1  A    between atoms: C2_12  and  O1_1 
REMARK    2  A    between atoms: C5_15  and  O1_1 
REMARK    3  A    between atoms: C12_22  and  O2_2 
REMARK    4  A    between atoms: C8_18  and  O2_2 
REMARK    5  A    between atoms: C3_13  and  O3_3 
REMARK    6  A    between atoms: C15_25  and  N1_8 
REMARK    7  A    between atoms: C20_30  and  N2_9 
REMARK    8  A    between atoms: C1_11  and  C9_19 
REMARK    9  A    between atoms: C5_15  and  C8_18 
REMARK   10  A    between atoms: C10_20  and  C11_21 
ROOT
HETATM    1  N3  UNK     1      22.093  -1.720  35.323  1.00  0.00    -0.191 NA
HETATM    2  C9  UNK     1      18.768  -2.463  35.855  1.00  0.00     0.035 C 
HETATM    3  C11 UNK     1      19.984  -3.011  36.124  1.00  0.00     0.055 C 
HETATM    4  C24 UNK     1      21.146  -2.289  35.676  1.00  0.00     0.100 C 
ENDROOT
BRANCH   3   5
HETATM    5  C10 UNK     1      20.166  -4.266  36.835  1.00  0.00    -0.015 A 
HETATM    6  C13 UNK     1      19.196  -5.266  36.747  1.00  0.00     0.015 A 
HETATM    7  C16 UNK     1      19.371  -6.469  37.428  1.00  0.00     0.037 A 
HETATM    8  C15 UNK     1      20.515  -6.675  38.199  1.00  0.00     0.102 A 
HETATM    9  C17 UNK     1      21.485  -5.676  38.288  1.00  0.00     0.037 A 
HETATM   10  C14 UNK     1      21.310  -4.472  37.606  1.00  0.00     0.015 A 
BRANCH   8  11
HETATM   11  N1  UNK     1      20.694  -7.901  38.893  1.00  0.00    -0.116 N 
HETATM   12  O4  UNK     1      21.752  -8.551  38.717  1.00  0.00    -0.532 OA
HETATM   13  O5  UNK     1      19.787  -8.301  39.663  1.00  0.00    -0.532 OA
ENDBRANCH   8  11
ENDBRANCH   3   5
BRANCH   2  14
HETATM   14  C1  UNK     1      18.538  -1.195  35.147  1.00  0.00    -0.032 A 
HETATM   15  C4  UNK     1      18.686  -1.134  33.762  1.00  0.00     0.051 A 
HETATM   16  C3  UNK     1      18.468   0.068  33.090  1.00  0.00     0.102 A 
HETATM   17  C2  UNK     1      18.102   1.210  33.803  1.00  0.00     0.102 A 
HETATM   18  C7  UNK     1      17.955   1.149  35.189  1.00  0.00     0.040 A 
HETATM   19  C6  UNK     1      18.173  -0.054  35.862  1.00  0.00     0.014 A 
BRANCH  16  20
HETATM   20  O3  UNK     1      18.615   0.116  31.736  1.00  0.00    -0.353 OA
HETATM   21  C23 UNK     1      19.830  -0.401  31.198  1.00  0.00     0.210 C 
ENDBRANCH  16  20
BRANCH  17  22
HETATM   22  O1  UNK     1      17.886   2.391  33.159  1.00  0.00    -0.346 OA
BRANCH  22  23
HETATM   23  C5  UNK     1      18.292   3.580  33.832  1.00  0.00     0.202 C 
BRANCH  23  24
HETATM   24  C8  UNK     1      18.146   4.758  32.887  1.00  0.00     0.202 C 
BRANCH  24  25
HETATM   25  O2  UNK     1      19.222   5.663  33.104  1.00  0.00    -0.349 OA
BRANCH  25  26
HETATM   26  C12 UNK     1      18.888   6.969  33.349  1.00  0.00     0.069 A 
HETATM   27  C18 UNK     1      19.768   7.794  34.051  1.00  0.00     0.039 A 
HETATM   28  C21 UNK     1      19.428   9.124  34.300  1.00  0.00     0.039 A 
HETATM   29  C20 UNK     1      18.210   9.629  33.847  1.00  0.00     0.103 A 
HETATM   30  C22 UNK     1      17.331   8.804  33.145  1.00  0.00     0.039 A 
HETATM   31  C19 UNK     1      17.670   7.475  32.895  1.00  0.00     0.039 A 
BRANCH  29  32
HETATM   32  N2  UNK     1      17.865  10.983  34.100  1.00  0.00    -0.116 N 
HETATM   33  O6  UNK     1      18.500  11.892  33.514  1.00  0.00    -0.532 OA
HETATM   34  O7  UNK     1      16.935  11.234  34.904  1.00  0.00    -0.532 OA
ENDBRANCH  29  32
ENDBRANCH  25  26
ENDBRANCH  24  25
ENDBRANCH  23  24
ENDBRANCH  22  23
ENDBRANCH  17  22
ENDBRANCH   2  14
TORSDOF 10
ENDMDL
MODEL 2
REMARK VINA RESULT:      -8.8      1.143      2.214
REMARK  10 active torsions:
REMARK  status: ('A' for Active; 'I' for Inactive)
REMARK    1  A    between atoms: C2_12  and  O1_1 
REMARK    2  A    between atoms: C5_15  and  O1_1 
REMARK    3  A    between atoms: C12_22  and  O2_2 
REMARK    4  A    between atoms: C8_18  and  O2_2 
REMARK    5  A    between atoms: C3_13  and  O3_3 
REMARK    6  A    between atoms: C15_25  and  N1_8 
REMARK    7  A    between atoms: C20_30  and  N2_9 
REMARK    8  A    between atoms: C1_11  and  C9_19 
REMARK    9  A    between atoms: C5_15  and  C8_18 
REMARK   10  A    between atoms: C10_20  and  C11_21 
ROOT
HETATM    1  N3  UNK     1      22.060  -1.864  35.326  1.00  0.00    -0.191 NA
HETATM    2  C9  UNK     1      18.749  -2.553  36.002  1.00  0.00     0.035 C 
HETATM    3  C11 UNK     1      19.965  -3.132  36.198  1.00  0.00     0.055 C 
HETATM    4  C24 UNK     1      21.119  -2.423  35.711  1.00  0.00     0.100 C 
ENDROOT
BRANCH   3   5
HETATM    5  C10 UNK     1      20.154  -4.408  36.870  1.00  0.00    -0.015 A 
HETATM    6  C13 UNK     1      19.206  -5.421  36.724  1.00  0.00     0.015 A 
HETATM    7  C16 UNK     1      19.388  -6.644  37.368  1.00  0.00     0.037 A 
HETATM    8  C15 UNK     1      20.518  -6.855  38.159  1.00  0.00     0.102 A 
HETATM    9  C17 UNK     1      21.465  -5.842  38.305  1.00  0.00     0.037 A 
HETATM   10  C14 UNK     1      21.284  -4.618  37.661  1.00  0.00     0.015 A 
BRANCH   8  11
HETATM   11  N1  UNK     1      20.704  -8.102  38.814  1.00  0.00    -0.116 N 
HETATM   12  O4  UNK     1      19.927  -8.421  39.746  1.00  0.00    -0.532 OA
HETATM   13  O5  UNK     1      21.640  -8.849  38.442  1.00  0.00    -0.532 OA
ENDBRANCH   8  11
ENDBRANCH   3   5
BRANCH   2  14
HETATM   14  C1  UNK     1      18.513  -1.264  35.336  1.00  0.00    -0.032 A 
HETATM   15  C4  UNK     1      18.204  -0.135  36.094  1.00  0.00     0.051 A 
HETATM   16  C3  UNK     1      17.980   1.088  35.464  1.00  0.00     0.102 A 
HETATM   17  C2  UNK     1      18.064   1.183  34.075  1.00  0.00     0.102 A 
HETATM   18  C7  UNK     1      18.373   0.054  33.316  1.00  0.00     0.040 A 
HETATM   19  C6  UNK     1      18.598  -1.170  33.947  1.00  0.00     0.014 A 
BRANCH  16  20
HETATM   20  O3  UNK     1      17.678   2.184  36.214  1.00  0.00    -0.353 OA
HETATM   21  C23 UNK     1      16.907   1.969  37.395  1.00  0.00     0.210 C 
ENDBRANCH  16  20
BRANCH  17  22
HETATM   22  O1  UNK     1      17.848   2.373  33.446  1.00  0.00    -0.346 OA
BRANCH  22  23
HETATM   23  C5  UNK     1      18.543   2.595  32.222  1.00  0.00     0.202 C 
BRANCH  23  24
HETATM   24  C8  UNK     1      18.187   3.970  31.692  1.00  0.00     0.202 C 
BRANCH  24  25
HETATM   25  O2  UNK     1      17.421   4.661  32.673  1.00  0.00    -0.349 OA
BRANCH  25  26
HETATM   26  C12 UNK     1      17.836   5.925  33.001  1.00  0.00     0.069 A 
HETATM   27  C18 UNK     1      16.905   6.957  33.115  1.00  0.00     0.039 A 
HETATM   28  C21 UNK     1      17.328   8.244  33.448  1.00  0.00     0.039 A 
HETATM   29  C20 UNK     1      18.681   8.499  33.668  1.00  0.00     0.103 A 
HETATM   30  C22 UNK     1      19.612   7.466  33.554  1.00  0.00     0.039 A 
HETATM   31  C19 UNK     1      19.190   6.179  33.221  1.00  0.00     0.039 A 
BRANCH  29  32
HETATM   32  N2  UNK     1      19.111   9.808  34.009  1.00  0.00    -0.116 N 
HETATM   33  O6  UNK     1      20.229   9.958  34.557  1.00  0.00    -0.532 OA
HETATM   34  O7  UNK     1      18.361  10.781  33.753  1.00  0.00    -0.532 OA
ENDBRANCH  29  32
ENDBRANCH  25  26
ENDBRANCH  24  25
ENDBRANCH  23  24
ENDBRANCH  22  23
ENDBRANCH  17  22
ENDBRANCH   2  14
TORSDOF 10
ENDMDL
MODEL 3
REMARK VINA RESULT:      -8.5      3.219      4.228
REMARK  10 active torsions:
REMARK  status: ('A' for Active; 'I' for Inactive)
REMARK    1  A    between atoms: C2_12  and  O1_1 
REMARK    2  A    between atoms: C5_15  and  O1_1 
REMARK    3  A    between atoms: C12_22  and  O2_2 
REMARK    4  A    between atoms: C8_18  and  O2_2 
REMARK    5  A    between atoms: C3_13  and  O3_3 
REMARK    6  A    between atoms: C15_25  and  N1_8 
REMARK    7  A    between atoms: C20_30  and  N2_9 
REMARK    8  A    between atoms: C1_11  and  C9_19 
REMARK    9  A    between atoms: C5_15  and  C8_18 
REMARK   10  A    between atoms: C10_20  and  C11_21 
ROOT
HETATM    1  N3  UNK     1      17.336  -5.789  36.809  1.00  0.00    -0.191 NA
HETATM    2  C9  UNK     1      20.427  -4.401  36.169  1.00  0.00     0.035 C 
HETATM    3  C11 UNK     1      19.895  -5.635  36.376  1.00  0.00     0.055 C 
HETATM    4  C24 UNK     1      18.478  -5.710  36.616  1.00  0.00     0.100 C 
ENDROOT
BRANCH   3   5
HETATM    5  C10 UNK     1      20.673  -6.864  36.362  1.00  0.00    -0.015 A 
HETATM    6  C13 UNK     1      21.444  -7.216  37.470  1.00  0.00     0.015 A 
HETATM    7  C16 UNK     1      22.188  -8.394  37.457  1.00  0.00     0.037 A 
HETATM    8  C15 UNK     1      22.163  -9.222  36.335  1.00  0.00     0.102 A 
HETATM    9  C17 UNK     1      21.393  -8.872  35.226  1.00  0.00     0.037 A 
HETATM   10  C14 UNK     1      20.648  -7.692  35.239  1.00  0.00     0.015 A 
BRANCH   8  11
HETATM   11  N1  UNK     1      22.922 -10.424  36.321  1.00  0.00    -0.116 N 
HETATM   12  O4  UNK     1      24.170 -10.354  36.220  1.00  0.00    -0.532 OA
HETATM   13  O5  UNK     1      22.321 -11.522  36.411  1.00  0.00    -0.532 OA
ENDBRANCH   8  11
ENDBRANCH   3   5
BRANCH   2  14
HETATM   14  C1  UNK     1      19.679  -3.135  36.166  1.00  0.00    -0.032 A 
HETATM   15  C4  UNK     1      19.531  -2.417  34.980  1.00  0.00     0.051 A 
HETATM   16  C3  UNK     1      18.821  -1.217  34.977  1.00  0.00     0.102 A 
HETATM   17  C2  UNK     1      18.259  -0.735  36.159  1.00  0.00     0.102 A 
HETATM   18  C7  UNK     1      18.408  -1.454  37.345  1.00  0.00     0.040 A 
HETATM   19  C6  UNK     1      19.118  -2.655  37.349  1.00  0.00     0.014 A 
BRANCH  16  20
HETATM   20  O3  UNK     1      18.682  -0.523  33.813  1.00  0.00    -0.353 OA
HETATM   21  C23 UNK     1      19.018  -1.207  32.607  1.00  0.00     0.210 C 
ENDBRANCH  16  20
BRANCH  17  22
HETATM   22  O1  UNK     1      17.562   0.436  36.169  1.00  0.00    -0.346 OA
BRANCH  22  23
HETATM   23  C5  UNK     1      18.205   1.567  36.754  1.00  0.00     0.202 C 
BRANCH  23  24
HETATM   24  C8  UNK     1      18.793   2.427  35.652  1.00  0.00     0.202 C 
BRANCH  24  25
HETATM   25  O2  UNK     1      17.922   2.400  34.527  1.00  0.00    -0.349 OA
BRANCH  25  26
HETATM   26  C12 UNK     1      18.224   3.247  33.494  1.00  0.00     0.069 A 
HETATM   27  C18 UNK     1      18.233   2.771  32.182  1.00  0.00     0.039 A 
HETATM   28  C21 UNK     1      18.541   3.632  31.130  1.00  0.00     0.039 A 
HETATM   29  C20 UNK     1      18.840   4.970  31.388  1.00  0.00     0.103 A 
HETATM   30  C22 UNK     1      18.831   5.446  32.699  1.00  0.00     0.039 A 
HETATM   31  C19 UNK     1      18.523   4.584  33.752  1.00  0.00     0.039 A 
BRANCH  29  32
HETATM   32  N2  UNK     1      19.153   5.847  30.316  1.00  0.00    -0.116 N 
HETATM   33  O6  UNK     1      18.226   6.485  29.762  1.00  0.00    -0.532 OA
HETATM   34  O7  UNK     1      20.348   5.960  29.951  1.00  0.00    -0.532 OA
ENDBRANCH  29  32
ENDBRANCH  25  26
ENDBRANCH  24  25
ENDBRANCH  23  24
ENDBRANCH  22  23
ENDBRANCH  17  22
ENDBRANCH   2  14
TORSDOF 10
ENDMDL
MODEL 4
REMARK VINA RESULT:      -8.5      6.490      8.811
REMARK  10 active torsions:
REMARK  status: ('A' for Active; 'I' for Inactive)
REMARK    1  A    between atoms: C2_12  and  O1_1 
REMARK    2  A    between atoms: C5_15  and  O1_1 
REMARK    3  A    between atoms: C12_22  and  O2_2 
REMARK    4  A    between atoms: C8_18  and  O2_2 
REMARK    5  A    between atoms: C3_13  and  O3_3 
REMARK    6  A    between atoms: C15_25  and  N1_8 
REMARK    7  A    between atoms: C20_30  and  N2_9 
REMARK    8  A    between atoms: C1_11  and  C9_19 
REMARK    9  A    between atoms: C5_15  and  C8_18 
REMARK   10  A    between atoms: C10_20  and  C11_21 
ROOT
HETATM    1  N3  UNK     1      19.684   6.187  29.907  1.00  0.00    -0.191 NA
HETATM    2  C9  UNK     1      17.878   4.236  32.104  1.00  0.00     0.035 C 
HETATM    3  C11 UNK     1      18.606   4.072  30.967  1.00  0.00     0.055 C 
HETATM    4  C24 UNK     1      19.198   5.249  30.387  1.00  0.00     0.100 C 
ENDROOT
BRANCH   3   5
HETATM    5  C10 UNK     1      18.819   2.786  30.321  1.00  0.00    -0.015 A 
HETATM    6  C13 UNK     1      18.280   2.541  29.058  1.00  0.00     0.015 A 
HETATM    7  C16 UNK     1      18.484   1.309  28.439  1.00  0.00     0.037 A 
HETATM    8  C15 UNK     1      19.228   0.320  29.083  1.00  0.00     0.102 A 
HETATM    9  C17 UNK     1      19.767   0.563  30.346  1.00  0.00     0.037 A 
HETATM   10  C14 UNK     1      19.562   1.797  30.966  1.00  0.00     0.015 A 
BRANCH   8  11
HETATM   11  N1  UNK     1      19.437  -0.936  28.453  1.00  0.00    -0.116 N 
HETATM   12  O4  UNK     1      19.999  -1.854  29.097  1.00  0.00    -0.532 OA
HETATM   13  O5  UNK     1      19.053  -1.091  27.268  1.00  0.00    -0.532 OA
ENDBRANCH   8  11
ENDBRANCH   3   5
BRANCH   2  14
HETATM   14  C1  UNK     1      17.644   5.514  32.793  1.00  0.00    -0.032 A 
HETATM   15  C4  UNK     1      16.473   6.232  32.551  1.00  0.00     0.051 A 
HETATM   16  C3  UNK     1      16.251   7.443  33.205  1.00  0.00     0.102 A 
HETATM   17  C2  UNK     1      17.199   7.936  34.101  1.00  0.00     0.102 A 
HETATM   18  C7  UNK     1      18.370   7.219  34.343  1.00  0.00     0.040 A 
HETATM   19  C6  UNK     1      18.593   6.007  33.689  1.00  0.00     0.014 A 
BRANCH  16  20
HETATM   20  O3  UNK     1      15.104   8.136  32.961  1.00  0.00    -0.353 OA
HETATM   21  C23 UNK     1      13.987   7.391  32.477  1.00  0.00     0.210 C 
ENDBRANCH  16  20
BRANCH  17  22
HETATM   22  O1  UNK     1      16.993   9.119  34.747  1.00  0.00    -0.346 OA
BRANCH  22  23
HETATM   23  C5  UNK     1      17.502  10.295  34.123  1.00  0.00     0.202 C 
BRANCH  23  24
HETATM   24  C8  UNK     1      16.671  11.486  34.558  1.00  0.00     0.202 C 
BRANCH  24  25
HETATM   25  O2  UNK     1      15.479  11.018  35.179  1.00  0.00    -0.349 OA
BRANCH  25  26
HETATM   26  C12 UNK     1      14.295  11.482  34.669  1.00  0.00     0.069 A 
HETATM   27  C18 UNK     1      13.360  12.083  35.511  1.00  0.00     0.039 A 
HETATM   28  C21 UNK     1      12.154  12.554  34.992  1.00  0.00     0.039 A 
HETATM   29  C20 UNK     1      11.884  12.426  33.630  1.00  0.00     0.103 A 
HETATM   30  C22 UNK     1      12.820  11.825  32.787  1.00  0.00     0.039 A 
HETATM   31  C19 UNK     1      14.026  11.354  33.306  1.00  0.00     0.039 A 
BRANCH  29  32
HETATM   32  N2  UNK     1      10.657  12.907  33.102  1.00  0.00    -0.116 N 
HETATM   33  O6  UNK     1       9.677  12.128  33.035  1.00  0.00    -0.532 OA
HETATM   34  O7  UNK     1      10.587  14.099  32.714  1.00  0.00    -0.532 OA
ENDBRANCH  29  32
ENDBRANCH  25  26
ENDBRANCH  24  25
ENDBRANCH  23  24
ENDBRANCH  22  23
ENDBRANCH  17  22
ENDBRANCH   2  14
TORSDOF 10
ENDMDL
MODEL 5
REMARK VINA RESULT:      -8.4     11.395     14.327
REMARK  10 active torsions:
REMARK  status: ('A' for Active; 'I' for Inactive)
REMARK    1  A    between atoms: C2_12  and  O1_1 
REMARK    2  A    between atoms: C5_15  and  O1_1 
REMARK    3  A    between atoms: C12_22  and  O2_2 
REMARK    4  A    between atoms: C8_18  and  O2_2 
REMARK    5  A    between atoms: C3_13  and  O3_3 
REMARK    6  A    between atoms: C15_25  and  N1_8 
REMARK    7  A    between atoms: C20_30  and  N2_9 
REMARK    8  A    between atoms: C1_11  and  C9_19 
REMARK    9  A    between atoms: C5_15  and  C8_18 
REMARK   10  A    between atoms: C10_20  and  C11_21 
ROOT
HETATM    1  N3  UNK     1      26.069 -11.367  36.793  1.00  0.00    -0.191 NA
HETATM    2  C9  UNK     1      26.768  -8.052  37.433  1.00  0.00     0.035 C 
HETATM    3  C11 UNK     1      25.694  -8.885  37.469  1.00  0.00     0.055 C 
HETATM    4  C24 UNK     1      25.911 -10.257  37.093  1.00  0.00     0.100 C 
ENDROOT
BRANCH   3   5
HETATM    5  C10 UNK     1      24.359  -8.467  37.869  1.00  0.00    -0.015 A 
HETATM    6  C13 UNK     1      23.250  -8.862  37.120  1.00  0.00     0.015 A 
HETATM    7  C16 UNK     1      21.971  -8.463  37.503  1.00  0.00     0.037 A 
HETATM    8  C15 UNK     1      21.799  -7.667  38.636  1.00  0.00     0.102 A 
HETATM    9  C17 UNK     1      22.907  -7.272  39.385  1.00  0.00     0.037 A 
HETATM   10  C14 UNK     1      24.187  -7.672  39.002  1.00  0.00     0.015 A 
BRANCH   8  11
HETATM   11  N1  UNK     1      20.495  -7.260  39.027  1.00  0.00    -0.116 N 
HETATM   12  O4  UNK     1      20.183  -6.049  38.936  1.00  0.00    -0.532 OA
HETATM   13  O5  UNK     1      19.692  -8.125  39.454  1.00  0.00    -0.532 OA
ENDBRANCH   8  11
ENDBRANCH   3   5
BRANCH   2  14
HETATM   14  C1  UNK     1      28.134  -8.432  37.044  1.00  0.00    -0.032 A 
HETATM   15  C4  UNK     1      28.442  -8.643  35.701  1.00  0.00     0.051 A 
HETATM   16  C3  UNK     1      29.737  -9.003  35.331  1.00  0.00     0.102 A 
HETATM   17  C2  UNK     1      30.724  -9.153  36.305  1.00  0.00     0.102 A 
HETATM   18  C7  UNK     1      30.416  -8.942  37.648  1.00  0.00     0.040 A 
HETATM   19  C6  UNK     1      29.120  -8.582  38.019  1.00  0.00     0.014 A 
BRANCH  16  20
HETATM   20  O3  UNK     1      30.027  -9.207  34.016  1.00  0.00    -0.353 OA
HETATM   21  C23 UNK     1      29.028  -9.848  33.224  1.00  0.00     0.210 C 
ENDBRANCH  16  20
BRANCH  17  22
HETATM   22  O1  UNK     1      31.995  -9.505  35.956  1.00  0.00    -0.346 OA
BRANCH  22  23
HETATM   23  C5  UNK     1      33.030  -8.572  36.257  1.00  0.00     0.202 C 
BRANCH  23  24
HETATM   24  C8  UNK     1      33.113  -7.548  35.142  1.00  0.00     0.202 C 
BRANCH  24  25
HETATM   25  O2  UNK     1      33.293  -6.256  35.711  1.00  0.00    -0.349 OA
BRANCH  25  26
HETATM   26  C12 UNK     1      32.302  -5.805  36.543  1.00  0.00     0.069 A 
HETATM   27  C18 UNK     1      31.029  -5.548  36.035  1.00  0.00     0.039 A 
HETATM   28  C21 UNK     1      30.020  -5.088  36.882  1.00  0.00     0.039 A 
HETATM   29  C20 UNK     1      30.284  -4.887  38.236  1.00  0.00     0.103 A 
HETATM   30  C22 UNK     1      31.558  -5.146  38.744  1.00  0.00     0.039 A 
HETATM   31  C19 UNK     1      32.567  -5.606  37.898  1.00  0.00     0.039 A 
BRANCH  29  32
HETATM   32  N2  UNK     1      29.257  -4.421  39.099  1.00  0.00    -0.116 N 
HETATM   33  O6  UNK     1      29.564  -3.690  40.071  1.00  0.00    -0.532 OA
HETATM   34  O7  UNK     1      28.070  -4.753  38.866  1.00  0.00    -0.532 OA
ENDBRANCH  29  32
ENDBRANCH  25  26
ENDBRANCH  24  25
ENDBRANCH  23  24
ENDBRANCH  22  23
ENDBRANCH  17  22
ENDBRANCH   2  14
TORSDOF 10
ENDMDL
MODEL 6
REMARK VINA RESULT:      -8.4      4.870     13.380
REMARK  10 active torsions:
REMARK  status: ('A' for Active; 'I' for Inactive)
REMARK    1  A    between atoms: C2_12  and  O1_1 
REMARK    2  A    between atoms: C5_15  and  O1_1 
REMARK    3  A    between atoms: C12_22  and  O2_2 
REMARK    4  A    between atoms: C8_18  and  O2_2 
REMARK    5  A    between atoms: C3_13  and  O3_3 
REMARK    6  A    between atoms: C15_25  and  N1_8 
REMARK    7  A    between atoms: C20_30  and  N2_9 
REMARK    8  A    between atoms: C1_11  and  C9_19 
REMARK    9  A    between atoms: C5_15  and  C8_18 
REMARK   10  A    between atoms: C10_20  and  C11_21 
ROOT
HETATM    1  N3  UNK     1      18.439  10.324  33.842  1.00  0.00    -0.191 NA
HETATM    2  C9  UNK     1      15.670   8.416  33.083  1.00  0.00     0.035 C 
HETATM    3  C11 UNK     1      15.945   9.616  33.660  1.00  0.00     0.055 C 
HETATM    4  C24 UNK     1      17.329   9.999  33.757  1.00  0.00     0.100 C 
ENDROOT
BRANCH   3   5
HETATM    5  C10 UNK     1      14.926  10.520  34.171  1.00  0.00    -0.015 A 
HETATM    6  C13 UNK     1      15.096  11.134  35.412  1.00  0.00     0.015 A 
HETATM    7  C16 UNK     1      14.121  12.002  35.901  1.00  0.00     0.037 A 
HETATM    8  C15 UNK     1      12.973  12.255  35.150  1.00  0.00     0.102 A 
HETATM    9  C17 UNK     1      12.802  11.641  33.909  1.00  0.00     0.037 A 
HETATM   10  C14 UNK     1      13.778  10.773  33.420  1.00  0.00     0.015 A 
BRANCH   8  11
HETATM   11  N1  UNK     1      11.979  13.139  35.648  1.00  0.00    -0.116 N 
HETATM   12  O4  UNK     1      10.774  12.911  35.383  1.00  0.00    -0.532 OA
HETATM   13  O5  UNK     1      12.334  14.125  36.338  1.00  0.00    -0.532 OA
ENDBRANCH   8  11
ENDBRANCH   3   5
BRANCH   2  14
HETATM   14  C1  UNK     1      16.665   7.475  32.547  1.00  0.00    -0.032 A 
HETATM   15  C4  UNK     1      17.247   6.524  33.385  1.00  0.00     0.051 A 
HETATM   16  C3  UNK     1      18.190   5.632  32.877  1.00  0.00     0.102 A 
HETATM   17  C2  UNK     1      18.552   5.691  31.532  1.00  0.00     0.102 A 
HETATM   18  C7  UNK     1      17.971   6.642  30.694  1.00  0.00     0.040 A 
HETATM   19  C6  UNK     1      17.027   7.535  31.201  1.00  0.00     0.014 A 
BRANCH  16  20
HETATM   20  O3  UNK     1      18.752   4.707  33.705  1.00  0.00    -0.353 OA
HETATM   21  C23 UNK     1      18.104   3.439  33.794  1.00  0.00     0.210 C 
ENDBRANCH  16  20
BRANCH  17  22
HETATM   22  O1  UNK     1      19.473   4.824  31.023  1.00  0.00    -0.346 OA
BRANCH  22  23
HETATM   23  C5  UNK     1      19.130   4.149  29.815  1.00  0.00     0.202 C 
BRANCH  23  24
HETATM   24  C8  UNK     1      18.484   2.820  30.157  1.00  0.00     0.202 C 
BRANCH  24  25
HETATM   25  O2  UNK     1      19.009   1.815  29.298  1.00  0.00    -0.349 OA
BRANCH  25  26
HETATM   26  C12 UNK     1      19.469   0.671  29.897  1.00  0.00     0.069 A 
HETATM   27  C18 UNK     1      20.253  -0.228  29.174  1.00  0.00     0.039 A 
HETATM   28  C21 UNK     1      20.720  -1.392  29.783  1.00  0.00     0.039 A 
HETATM   29  C20 UNK     1      20.406  -1.657  31.115  1.00  0.00     0.103 A 
HETATM   30  C22 UNK     1      19.622  -0.757  31.839  1.00  0.00     0.039 A 
HETATM   31  C19 UNK     1      19.154   0.407  31.230  1.00  0.00     0.039 A 
BRANCH  29  32
HETATM   32  N2  UNK     1      20.883  -2.842  31.735  1.00  0.00    -0.116 N 
HETATM   33  O6  UNK     1      20.863  -2.923  32.987  1.00  0.00    -0.532 OA
HETATM   34  O7  UNK     1      21.312  -3.775  31.015  1.00  0.00    -0.532 OA
ENDBRANCH  29  32
ENDBRANCH  25  26
ENDBRANCH  24  25
ENDBRANCH  23  24
ENDBRANCH  22  23
ENDBRANCH  17  22
ENDBRANCH   2  14
TORSDOF 10
ENDMDL
MODEL 7
REMARK VINA RESULT:      -8.3      6.378      8.794
REMARK  10 active torsions:
REMARK  status: ('A' for Active; 'I' for Inactive)
REMARK    1  A    between atoms: C2_12  and  O1_1 
REMARK    2  A    between atoms: C5_15  and  O1_1 
REMARK    3  A    between atoms: C12_22  and  O2_2 
REMARK    4  A    between atoms: C8_18  and  O2_2 
REMARK    5  A    between atoms: C3_13  and  O3_3 
REMARK    6  A    between atoms: C15_25  and  N1_8 
REMARK    7  A    between atoms: C20_30  and  N2_9 
REMARK    8  A    between atoms: C1_11  and  C9_19 
REMARK    9  A    between atoms: C5_15  and  C8_18 
REMARK   10  A    between atoms: C10_20  and  C11_21 
ROOT
HETATM    1  N3  UNK     1      17.964   3.555  34.081  1.00  0.00    -0.191 NA
HETATM    2  C9  UNK     1      18.611   5.178  31.108  1.00  0.00     0.035 C 
HETATM    3  C11 UNK     1      18.532   3.901  31.568  1.00  0.00     0.055 C 
HETATM    4  C24 UNK     1      18.218   3.719  32.960  1.00  0.00     0.100 C 
ENDROOT
BRANCH   3   5
HETATM    5  C10 UNK     1      18.741   2.727  30.734  1.00  0.00    -0.015 A 
HETATM    6  C13 UNK     1      19.388   1.606  31.256  1.00  0.00     0.015 A 
HETATM    7  C16 UNK     1      19.586   0.481  30.458  1.00  0.00     0.037 A 
HETATM    8  C15 UNK     1      19.140   0.475  29.136  1.00  0.00     0.102 A 
HETATM    9  C17 UNK     1      18.493   1.595  28.614  1.00  0.00     0.037 A 
HETATM   10  C14 UNK     1      18.294   2.721  29.413  1.00  0.00     0.015 A 
BRANCH   8  11
HETATM   11  N1  UNK     1      19.342  -0.672  28.323  1.00  0.00    -0.116 N 
HETATM   12  O4  UNK     1      19.961  -1.654  28.798  1.00  0.00    -0.532 OA
HETATM   13  O5  UNK     1      18.895  -0.671  27.150  1.00  0.00    -0.532 OA
ENDBRANCH   8  11
ENDBRANCH   3   5
BRANCH   2  14
HETATM   14  C1  UNK     1      18.400   6.392  31.911  1.00  0.00    -0.032 A 
HETATM   15  C4  UNK     1      17.248   7.156  31.729  1.00  0.00     0.051 A 
HETATM   16  C3  UNK     1      17.047   8.306  32.490  1.00  0.00     0.102 A 
HETATM   17  C2  UNK     1      17.998   8.693  33.434  1.00  0.00     0.102 A 
HETATM   18  C7  UNK     1      19.150   7.928  33.617  1.00  0.00     0.040 A 
HETATM   19  C6  UNK     1      19.352   6.777  32.855  1.00  0.00     0.014 A 
BRANCH  16  20
HETATM   20  O3  UNK     1      15.918   9.046  32.304  1.00  0.00    -0.353 OA
HETATM   21  C23 UNK     1      14.699   8.504  32.809  1.00  0.00     0.210 C 
ENDBRANCH  16  20
BRANCH  17  22
HETATM   22  O1  UNK     1      17.814   9.815  34.186  1.00  0.00    -0.346 OA
BRANCH  22  23
HETATM   23  C5  UNK     1      18.684  10.915  33.931  1.00  0.00     0.202 C 
BRANCH  23  24
HETATM   24  C8  UNK     1      17.952  12.207  34.239  1.00  0.00     0.202 C 
BRANCH  24  25
HETATM   25  O2  UNK     1      16.555  12.003  34.060  1.00  0.00    -0.349 OA
BRANCH  25  26
HETATM   26  C12 UNK     1      15.769  12.104  35.178  1.00  0.00     0.069 A 
HETATM   27  C18 UNK     1      14.738  11.190  35.391  1.00  0.00     0.039 A 
HETATM   28  C21 UNK     1      13.937  11.293  36.528  1.00  0.00     0.039 A 
HETATM   29  C20 UNK     1      14.169  12.310  37.454  1.00  0.00     0.103 A 
HETATM   30  C22 UNK     1      15.202  13.224  37.242  1.00  0.00     0.039 A 
HETATM   31  C19 UNK     1      16.002  13.121  36.104  1.00  0.00     0.039 A 
BRANCH  29  32
HETATM   32  N2  UNK     1      13.355  12.414  38.613  1.00  0.00    -0.116 N 
HETATM   33  O6  UNK     1      13.124  13.549  39.093  1.00  0.00    -0.532 OA
HETATM   34  O7  UNK     1      12.890  11.368  39.126  1.00  0.00    -0.532 OA
ENDBRANCH  29  32
ENDBRANCH  25  26
ENDBRANCH  24  25
ENDBRANCH  23  24
ENDBRANCH  22  23
ENDBRANCH  17  22
ENDBRANCH   2  14
TORSDOF 10
ENDMDL
MODEL 8
REMARK VINA RESULT:      -8.2      6.352      8.567
REMARK  10 active torsions:
REMARK  status: ('A' for Active; 'I' for Inactive)
REMARK    1  A    between atoms: C2_12  and  O1_1 
REMARK    2  A    between atoms: C5_15  and  O1_1 
REMARK    3  A    between atoms: C12_22  and  O2_2 
REMARK    4  A    between atoms: C8_18  and  O2_2 
REMARK    5  A    between atoms: C3_13  and  O3_3 
REMARK    6  A    between atoms: C15_25  and  N1_8 
REMARK    7  A    between atoms: C20_30  and  N2_9 
REMARK    8  A    between atoms: C1_11  and  C9_19 
REMARK    9  A    between atoms: C5_15  and  C8_18 
REMARK   10  A    between atoms: C10_20  and  C11_21 
ROOT
HETATM    1  N3  UNK     1      19.437   6.315  29.795  1.00  0.00    -0.191 NA
HETATM    2  C9  UNK     1      17.806   4.367  32.127  1.00  0.00     0.035 C 
HETATM    3  C11 UNK     1      18.501   4.194  30.972  1.00  0.00     0.055 C 
HETATM    4  C24 UNK     1      19.015   5.374  30.327  1.00  0.00     0.100 C 
ENDROOT
BRANCH   3   5
HETATM    5  C10 UNK     1      18.753   2.895  30.367  1.00  0.00    -0.015 A 
HETATM    6  C13 UNK     1      18.305   2.629  29.072  1.00  0.00     0.015 A 
HETATM    7  C16 UNK     1      18.548   1.385  28.492  1.00  0.00     0.037 A 
HETATM    8  C15 UNK     1      19.237   0.405  29.206  1.00  0.00     0.102 A 
HETATM    9  C17 UNK     1      19.684   0.669  30.500  1.00  0.00     0.037 A 
HETATM   10  C14 UNK     1      19.442   1.915  31.081  1.00  0.00     0.015 A 
BRANCH   8  11
HETATM   11  N1  UNK     1      19.484  -0.863  28.615  1.00  0.00    -0.116 N 
HETATM   12  O4  UNK     1      20.027  -1.760  29.304  1.00  0.00    -0.532 OA
HETATM   13  O5  UNK     1      19.152  -1.051  27.420  1.00  0.00    -0.532 OA
ENDBRANCH   8  11
ENDBRANCH   3   5
BRANCH   2  14
HETATM   14  C1  UNK     1      17.535   5.658  32.778  1.00  0.00    -0.032 A 
HETATM   15  C4  UNK     1      18.474   6.209  33.650  1.00  0.00     0.051 A 
HETATM   16  C3  UNK     1      18.218   7.433  34.266  1.00  0.00     0.102 A 
HETATM   17  C2  UNK     1      17.024   8.106  34.011  1.00  0.00     0.102 A 
HETATM   18  C7  UNK     1      16.085   7.556  33.139  1.00  0.00     0.040 A 
HETATM   19  C6  UNK     1      16.340   6.331  32.522  1.00  0.00     0.014 A 
BRANCH  16  20
HETATM   20  O3  UNK     1      19.142   7.962  35.116  1.00  0.00    -0.353 OA
HETATM   21  C23 UNK     1      20.095   8.864  34.557  1.00  0.00     0.210 C 
ENDBRANCH  16  20
BRANCH  17  22
HETATM   22  O1  UNK     1      16.761   9.304  34.607  1.00  0.00    -0.346 OA
BRANCH  22  23
HETATM   23  C5  UNK     1      15.679  10.067  34.079  1.00  0.00     0.202 C 
BRANCH  23  24
HETATM   24  C8  UNK     1      15.367  11.206  35.031  1.00  0.00     0.202 C 
BRANCH  24  25
HETATM   25  O2  UNK     1      16.570  11.901  35.335  1.00  0.00    -0.349 OA
BRANCH  25  26
HETATM   26  C12 UNK     1      17.014  12.803  34.406  1.00  0.00     0.069 A 
HETATM   27  C18 UNK     1      18.310  12.705  33.901  1.00  0.00     0.039 A 
HETATM   28  C21 UNK     1      18.762  13.625  32.954  1.00  0.00     0.039 A 
HETATM   29  C20 UNK     1      17.917  14.642  32.512  1.00  0.00     0.103 A 
HETATM   30  C22 UNK     1      16.620  14.740  33.016  1.00  0.00     0.039 A 
HETATM   31  C19 UNK     1      16.168  13.820  33.962  1.00  0.00     0.039 A 
BRANCH  29  32
HETATM   32  N2  UNK     1      18.377  15.577  31.547  1.00  0.00    -0.116 N 
HETATM   33  O6  UNK     1      18.392  16.796  31.842  1.00  0.00    -0.532 OA
HETATM   34  O7  UNK     1      18.754  15.159  30.426  1.00  0.00    -0.532 OA
ENDBRANCH  29  32
ENDBRANCH  25  26
ENDBRANCH  24  25
ENDBRANCH  23  24
ENDBRANCH  22  23
ENDBRANCH  17  22
ENDBRANCH   2  14
TORSDOF 10
ENDMDL
MODEL 9
REMARK VINA RESULT:      -8.2     11.604     14.513
REMARK  10 active torsions:
REMARK  status: ('A' for Active; 'I' for Inactive)
REMARK    1  A    between atoms: C2_12  and  O1_1 
REMARK    2  A    between atoms: C5_15  and  O1_1 
REMARK    3  A    between atoms: C12_22  and  O2_2 
REMARK    4  A    between atoms: C8_18  and  O2_2 
REMARK    5  A    between atoms: C3_13  and  O3_3 
REMARK    6  A    between atoms: C15_25  and  N1_8 
REMARK    7  A    between atoms: C20_30  and  N2_9 
REMARK    8  A    between atoms: C1_11  and  C9_19 
REMARK    9  A    between atoms: C5_15  and  C8_18 
REMARK   10  A    between atoms: C10_20  and  C11_21 
ROOT
HETATM    1  N3  UNK     1      25.838 -11.351  36.196  1.00  0.00    -0.191 NA
HETATM    2  C9  UNK     1      26.614  -8.210  37.389  1.00  0.00     0.035 C 
HETATM    3  C11 UNK     1      25.518  -9.008  37.275  1.00  0.00     0.055 C 
HETATM    4  C24 UNK     1      25.705 -10.303  36.676  1.00  0.00     0.100 C 
ENDROOT
BRANCH   3   5
HETATM    5  C10 UNK     1      24.189  -8.626  37.726  1.00  0.00    -0.015 A 
HETATM    6  C13 UNK     1      24.034  -7.904  38.911  1.00  0.00     0.015 A 
HETATM    7  C16 UNK     1      22.761  -7.538  39.343  1.00  0.00     0.037 A 
HETATM    8  C15 UNK     1      21.641  -7.893  38.592  1.00  0.00     0.102 A 
HETATM    9  C17 UNK     1      21.794  -8.615  37.408  1.00  0.00     0.037 A 
HETATM   10  C14 UNK     1      23.068  -8.981  36.975  1.00  0.00     0.015 A 
BRANCH   8  11
HETATM   11  N1  UNK     1      20.342  -7.519  39.032  1.00  0.00    -0.116 N 
HETATM   12  O4  UNK     1      19.382  -8.299  38.825  1.00  0.00    -0.532 OA
HETATM   13  O5  UNK     1      20.193  -6.418  39.616  1.00  0.00    -0.532 OA
ENDBRANCH   8  11
ENDBRANCH   3   5
BRANCH   2  14
HETATM   14  C1  UNK     1      27.975  -8.558  36.954  1.00  0.00    -0.032 A 
HETATM   15  C4  UNK     1      28.857  -9.164  37.848  1.00  0.00     0.051 A 
HETATM   16  C3  UNK     1      30.148  -9.495  37.436  1.00  0.00     0.102 A 
HETATM   17  C2  UNK     1      30.556  -9.219  36.132  1.00  0.00     0.102 A 
HETATM   18  C7  UNK     1      29.673  -8.613  35.238  1.00  0.00     0.040 A 
HETATM   19  C6  UNK     1      28.382  -8.282  35.649  1.00  0.00     0.014 A 
BRANCH  16  20
HETATM   20  O3  UNK     1      31.002 -10.087  38.317  1.00  0.00    -0.353 OA
HETATM   21  C23 UNK     1      30.431 -10.628  39.508  1.00  0.00     0.210 C 
ENDBRANCH  16  20
BRANCH  17  22
HETATM   22  O1  UNK     1      31.815  -9.538  35.717  1.00  0.00    -0.346 OA
BRANCH  22  23
HETATM   23  C5  UNK     1      32.597  -8.486  35.156  1.00  0.00     0.202 C 
BRANCH  23  24
HETATM   24  C8  UNK     1      33.473  -7.888  36.240  1.00  0.00     0.202 C 
BRANCH  24  25
HETATM   25  O2  UNK     1      33.361  -6.471  36.198  1.00  0.00    -0.349 OA
BRANCH  25  26
HETATM   26  C12 UNK     1      32.343  -5.911  36.924  1.00  0.00     0.069 A 
HETATM   27  C18 UNK     1      31.887  -6.537  38.084  1.00  0.00     0.039 A 
HETATM   28  C21 UNK     1      30.849  -5.968  38.822  1.00  0.00     0.039 A 
HETATM   29  C20 UNK     1      30.269  -4.771  38.402  1.00  0.00     0.103 A 
HETATM   30  C22 UNK     1      30.726  -4.144  37.242  1.00  0.00     0.039 A 
HETATM   31  C19 UNK     1      31.764  -4.714  36.504  1.00  0.00     0.039 A 
BRANCH  29  32
HETATM   32  N2  UNK     1      29.214  -4.191  39.154  1.00  0.00    -0.116 N 
HETATM   33  O6  UNK     1      29.496  -3.466  40.138  1.00  0.00    -0.532 OA
HETATM   34  O7  UNK     1      28.028  -4.420  38.816  1.00  0.00    -0.532 OA
ENDBRANCH  29  32
ENDBRANCH  25  26
ENDBRANCH  24  25
ENDBRANCH  23  24
ENDBRANCH  22  23
ENDBRANCH  17  22
ENDBRANCH   2  14
TORSDOF 10
ENDMDL
MODEL 10
REMARK VINA RESULT:      -8.2      2.197     13.107
REMARK  10 active torsions:
REMARK  status: ('A' for Active; 'I' for Inactive)
REMARK    1  A    between atoms: C2_12  and  O1_1 
REMARK    2  A    between atoms: C5_15  and  O1_1 
REMARK    3  A    between atoms: C12_22  and  O2_2 
REMARK    4  A    between atoms: C8_18  and  O2_2 
REMARK    5  A    between atoms: C3_13  and  O3_3 
REMARK    6  A    between atoms: C15_25  and  N1_8 
REMARK    7  A    between atoms: C20_30  and  N2_9 
REMARK    8  A    between atoms: C1_11  and  C9_19 
REMARK    9  A    between atoms: C5_15  and  C8_18 
REMARK   10  A    between atoms: C10_20  and  C11_21 
ROOT
HETATM    1  N3  UNK     1      18.315   2.921  31.325  1.00  0.00    -0.191 NA
HETATM    2  C9  UNK     1      18.350   3.475  34.729  1.00  0.00     0.035 C 
HETATM    3  C11 UNK     1      18.246   4.204  33.586  1.00  0.00     0.055 C 
HETATM    4  C24 UNK     1      18.285   3.485  32.339  1.00  0.00     0.100 C 
ENDROOT
BRANCH   3   5
HETATM    5  C10 UNK     1      18.092   5.650  33.560  1.00  0.00    -0.015 A 
HETATM    6  C13 UNK     1      16.998   6.225  32.912  1.00  0.00     0.015 A 
HETATM    7  C16 UNK     1      16.851   7.611  32.888  1.00  0.00     0.037 A 
HETATM    8  C15 UNK     1      17.798   8.424  33.511  1.00  0.00     0.102 A 
HETATM    9  C17 UNK     1      18.892   7.850  34.158  1.00  0.00     0.037 A 
HETATM   10  C14 UNK     1      19.040   6.463  34.182  1.00  0.00     0.015 A 
BRANCH   8  11
HETATM   11  N1  UNK     1      17.648   9.836  33.487  1.00  0.00    -0.116 N 
HETATM   12  O4  UNK     1      16.492  10.325  33.449  1.00  0.00    -0.532 OA
HETATM   13  O5  UNK     1      18.675  10.557  33.505  1.00  0.00    -0.532 OA
ENDBRANCH   8  11
ENDBRANCH   3   5
BRANCH   2  14
HETATM   14  C1  UNK     1      18.498   2.014  34.802  1.00  0.00    -0.032 A 
HETATM   15  C4  UNK     1      18.242   1.231  33.676  1.00  0.00     0.051 A 
HETATM   16  C3  UNK     1      18.383  -0.155  33.744  1.00  0.00     0.102 A 
HETATM   17  C2  UNK     1      18.779  -0.758  34.938  1.00  0.00     0.102 A 
HETATM   18  C7  UNK     1      19.035   0.025  36.064  1.00  0.00     0.040 A 
HETATM   19  C6  UNK     1      18.894   1.412  35.996  1.00  0.00     0.014 A 
BRANCH  16  20
HETATM   20  O3  UNK     1      18.130  -0.910  32.639  1.00  0.00    -0.353 OA
HETATM   21  C23 UNK     1      19.258  -1.345  31.881  1.00  0.00     0.210 C 
ENDBRANCH  16  20
BRANCH  17  22
HETATM   22  O1  UNK     1      18.921  -2.111  35.018  1.00  0.00    -0.346 OA
BRANCH  22  23
HETATM   23  C5  UNK     1      20.114  -2.603  35.623  1.00  0.00     0.202 C 
BRANCH  23  24
HETATM   24  C8  UNK     1      19.796  -3.878  36.380  1.00  0.00     0.202 C 
BRANCH  24  25
HETATM   25  O2  UNK     1      20.263  -4.993  35.631  1.00  0.00    -0.349 OA
BRANCH  25  26
HETATM   26  C12 UNK     1      20.079  -6.231  36.187  1.00  0.00     0.069 A 
HETATM   27  C18 UNK     1      19.654  -6.344  37.511  1.00  0.00     0.039 A 
HETATM   28  C21 UNK     1      19.467  -7.605  38.078  1.00  0.00     0.039 A 
HETATM   29  C20 UNK     1      19.704  -8.752  37.321  1.00  0.00     0.103 A 
HETATM   30  C22 UNK     1      20.128  -8.638  35.996  1.00  0.00     0.039 A 
HETATM   31  C19 UNK     1      20.315  -7.378  35.429  1.00  0.00     0.039 A 
BRANCH  29  32
HETATM   32  N2  UNK     1      19.512 -10.035  37.898  1.00  0.00    -0.116 N 
HETATM   33  O6  UNK     1      19.340 -11.022  37.142  1.00  0.00    -0.532 OA
HETATM   34  O7  UNK     1      19.518 -10.148  39.147  1.00  0.00    -0.532 OA
ENDBRANCH  29  32
ENDBRANCH  25  26
ENDBRANCH  24  25
ENDBRANCH  23  24
ENDBRANCH  22  23
ENDBRANCH  17  22
ENDBRANCH   2  14
TORSDOF 10
ENDMDL
