MODEL 1
REMARK VINA RESULT:      -7.7      0.000      0.000
REMARK  1 active torsions:
REMARK  status: ('A' for Active; 'I' for Inactive)
REMARK    1  A    between atoms: C3_7  and  C4_8 
ROOT
HETATM    1 Br1  UNK     1      15.987  12.631  35.239  1.00  0.00    -0.051 Br
HETATM    2  O1  UNK     1      17.106   7.417  32.380  1.00  0.00    -0.309 OA
HETATM    3  O2  UNK     1      20.102   9.033  34.619  1.00  0.00    -0.287 OA
HETATM    4  C1  UNK     1      17.882   9.207  33.828  1.00  0.00     0.049 A 
HETATM    5  C2  UNK     1      16.901   8.598  33.047  1.00  0.00     0.090 A 
HETATM    6  C3  UNK     1      18.346   6.806  32.485  1.00  0.00     0.090 A 
HETATM    7  C5  UNK     1      19.197   8.558  33.948  1.00  0.00     0.187 A 
HETATM    8  C6  UNK     1      19.368   7.289  33.212  1.00  0.00     0.093 A 
HETATM    9  C7  UNK     1      17.617  10.410  34.485  1.00  0.00     0.037 A 
HETATM   10  C8  UNK     1      15.645   9.192  32.918  1.00  0.00     0.039 A 
HETATM   11  C11 UNK     1      16.359  11.002  34.354  1.00  0.00     0.012 A 
HETATM   12  C12 UNK     1      15.376  10.394  33.573  1.00  0.00     0.022 A 
ENDROOT
BRANCH   6  13
HETATM   13  C4  UNK     1      18.457   5.539  31.736  1.00  0.00    -0.002 A 
HETATM   14  C10 UNK     1      18.937   5.540  30.424  1.00  0.00     0.015 A 
HETATM   15  C14 UNK     1      19.044   4.342  29.716  1.00  0.00     0.020 A 
HETATM   16  C15 UNK     1      18.670   3.140  30.317  1.00  0.00     0.011 A 
HETATM   17 Br2  UNK     1      18.815   1.518  29.359  1.00  0.00    -0.051 Br
HETATM   18  C13 UNK     1      18.190   3.137  31.628  1.00  0.00     0.020 A 
HETATM   19  C9  UNK     1      18.084   4.333  32.335  1.00  0.00     0.015 A 
ENDBRANCH   6  13
TORSDOF 1
ENDMDL
MODEL 2
REMARK VINA RESULT:      -7.5     10.530     14.231
REMARK  1 active torsions:
REMARK  status: ('A' for Active; 'I' for Inactive)
REMARK    1  A    between atoms: C3_7  and  C4_8 
ROOT
HETATM    1 Br1  UNK     1      20.332 -10.686  37.191  1.00  0.00    -0.051 Br
HETATM    2  O1  UNK     1      18.847  -4.848  36.619  1.00  0.00    -0.309 OA
HETATM    3  O2  UNK     1      22.504  -5.730  38.182  1.00  0.00    -0.287 OA
HETATM    4  C1  UNK     1      20.464  -6.528  37.298  1.00  0.00     0.049 A 
HETATM    5  C2  UNK     1      19.229  -6.156  36.768  1.00  0.00     0.090 A 
HETATM    6  C3  UNK     1      19.727  -3.853  37.017  1.00  0.00     0.090 A 
HETATM    7  C5  UNK     1      21.403  -5.476  37.714  1.00  0.00     0.187 A 
HETATM    8  C6  UNK     1      20.945  -4.084  37.533  1.00  0.00     0.093 A 
HETATM    9  C7  UNK     1      20.800  -7.878  37.427  1.00  0.00     0.037 A 
HETATM   10  C8  UNK     1      18.321  -7.136  36.365  1.00  0.00     0.039 A 
HETATM   11  C11 UNK     1      19.889  -8.855  37.022  1.00  0.00     0.012 A 
HETATM   12  C12 UNK     1      18.653  -8.485  36.492  1.00  0.00     0.022 A 
ENDROOT
BRANCH   6  13
HETATM   13  C4  UNK     1      19.220  -2.483  36.805  1.00  0.00    -0.002 A 
HETATM   14  C10 UNK     1      19.501  -1.807  35.616  1.00  0.00     0.015 A 
HETATM   15  C14 UNK     1      19.021  -0.513  35.414  1.00  0.00     0.020 A 
HETATM   16  C15 UNK     1      18.259   0.111  36.402  1.00  0.00     0.011 A 
HETATM   17 Br2  UNK     1      17.608   1.864  36.130  1.00  0.00    -0.051 Br
HETATM   18  C13 UNK     1      17.977  -0.562  37.592  1.00  0.00     0.020 A 
HETATM   19  C9  UNK     1      18.456  -1.856  37.793  1.00  0.00     0.015 A 
ENDBRANCH   6  13
TORSDOF 1
ENDMDL
MODEL 3
REMARK VINA RESULT:      -7.3     17.185     18.547
REMARK  1 active torsions:
REMARK  status: ('A' for Active; 'I' for Inactive)
REMARK    1  A    between atoms: C3_7  and  C4_8 
ROOT
HETATM    1 Br1  UNK     1      31.860  -5.315  38.506  1.00  0.00    -0.051 Br
HETATM    2  O1  UNK     1      25.960  -6.657  38.503  1.00  0.00    -0.309 OA
HETATM    3  O2  UNK     1      28.607  -9.745  38.729  1.00  0.00    -0.287 OA
HETATM    4  C1  UNK     1      28.268  -7.412  38.580  1.00  0.00     0.049 A 
HETATM    5  C2  UNK     1      27.308  -6.403  38.507  1.00  0.00     0.090 A 
HETATM    6  C3  UNK     1      25.536  -7.975  38.570  1.00  0.00     0.090 A 
HETATM    7  C5  UNK     1      27.822  -8.811  38.658  1.00  0.00     0.187 A 
HETATM    8  C6  UNK     1      26.361  -9.031  38.651  1.00  0.00     0.093 A 
HETATM    9  C7  UNK     1      29.628  -7.095  38.580  1.00  0.00     0.037 A 
HETATM   10  C8  UNK     1      27.706  -5.068  38.432  1.00  0.00     0.039 A 
HETATM   11  C11 UNK     1      30.022  -5.758  38.506  1.00  0.00     0.012 A 
HETATM   12  C12 UNK     1      29.063  -4.747  38.432  1.00  0.00     0.022 A 
ENDROOT
BRANCH   6  13
HETATM   13  C4  UNK     1      24.068  -8.134  38.567  1.00  0.00    -0.002 A 
HETATM   14  C10 UNK     1      23.418  -8.627  37.433  1.00  0.00     0.015 A 
HETATM   15  C14 UNK     1      22.032  -8.780  37.430  1.00  0.00     0.020 A 
HETATM   16  C15 UNK     1      21.290  -8.438  38.561  1.00  0.00     0.011 A 
HETATM   17 Br2  UNK     1      19.411  -8.645  38.558  1.00  0.00    -0.051 Br
HETATM   18  C13 UNK     1      21.936  -7.944  39.695  1.00  0.00     0.020 A 
HETATM   19  C9  UNK     1      23.322  -7.793  39.698  1.00  0.00     0.015 A 
ENDBRANCH   6  13
TORSDOF 1
ENDMDL
MODEL 4
REMARK VINA RESULT:      -7.3      2.458      7.697
REMARK  1 active torsions:
REMARK  status: ('A' for Active; 'I' for Inactive)
REMARK    1  A    between atoms: C3_7  and  C4_8 
ROOT
HETATM    1 Br1  UNK     1      19.937  -1.235  29.387  1.00  0.00    -0.051 Br
HETATM    2  O1  UNK     1      18.142   4.189  31.379  1.00  0.00    -0.309 OA
HETATM    3  O2  UNK     1      18.740   1.257  34.143  1.00  0.00    -0.287 OA
HETATM    4  C1  UNK     1      18.770   1.894  31.868  1.00  0.00     0.049 A 
HETATM    5  C2  UNK     1      18.549   2.942  30.977  1.00  0.00     0.090 A 
HETATM    6  C3  UNK     1      17.937   4.412  32.732  1.00  0.00     0.090 A 
HETATM    7  C5  UNK     1      18.562   2.128  33.305  1.00  0.00     0.187 A 
HETATM    8  C6  UNK     1      18.124   3.486  33.687  1.00  0.00     0.093 A 
HETATM    9  C7  UNK     1      19.184   0.644  31.401  1.00  0.00     0.037 A 
HETATM   10  C8  UNK     1      18.740   2.746  29.608  1.00  0.00     0.039 A 
HETATM   11  C11 UNK     1      19.376   0.451  30.032  1.00  0.00     0.012 A 
HETATM   12  C12 UNK     1      19.154   1.499  29.138  1.00  0.00     0.022 A 
ENDROOT
BRANCH   6  13
HETATM   13  C4  UNK     1      17.509   5.787  33.056  1.00  0.00    -0.002 A 
HETATM   14  C10 UNK     1      16.487   6.394  32.322  1.00  0.00     0.015 A 
HETATM   15  C14 UNK     1      16.081   7.693  32.628  1.00  0.00     0.020 A 
HETATM   16  C15 UNK     1      16.695   8.389  33.669  1.00  0.00     0.011 A 
HETATM   17 Br2  UNK     1      16.144  10.148  34.086  1.00  0.00    -0.051 Br
HETATM   18  C13 UNK     1      17.716   7.785  34.404  1.00  0.00     0.020 A 
HETATM   19  C9  UNK     1      18.122   6.487  34.098  1.00  0.00     0.015 A 
ENDBRANCH   6  13
TORSDOF 1
ENDMDL
MODEL 5
REMARK VINA RESULT:      -7.2      1.430      7.062
REMARK  1 active torsions:
REMARK  status: ('A' for Active; 'I' for Inactive)
REMARK    1  A    between atoms: C3_7  and  C4_8 
ROOT
HETATM    1 Br1  UNK     1      18.846   1.300  29.356  1.00  0.00    -0.051 Br
HETATM    2  O1  UNK     1      18.534   6.846  31.756  1.00  0.00    -0.309 OA
HETATM    3  O2  UNK     1      18.148   3.666  34.273  1.00  0.00    -0.287 OA
HETATM    4  C1  UNK     1      18.471   4.437  32.064  1.00  0.00     0.049 A 
HETATM    5  C2  UNK     1      18.597   5.569  31.260  1.00  0.00     0.090 A 
HETATM    6  C3  UNK     1      18.330   7.015  33.117  1.00  0.00     0.090 A 
HETATM    7  C5  UNK     1      18.263   4.613  33.509  1.00  0.00     0.187 A 
HETATM    8  C6  UNK     1      18.202   6.006  33.994  1.00  0.00     0.093 A 
HETATM    9  C7  UNK     1      18.545   3.159  31.502  1.00  0.00     0.037 A 
HETATM   10  C8  UNK     1      18.797   5.429  29.885  1.00  0.00     0.039 A 
HETATM   11  C11 UNK     1      18.745   3.023  30.128  1.00  0.00     0.012 A 
HETATM   12  C12 UNK     1      18.871   4.155  29.322  1.00  0.00     0.022 A 
ENDROOT
BRANCH   6  13
HETATM   13  C4  UNK     1      18.286   8.427  33.546  1.00  0.00    -0.002 A 
HETATM   14  C10 UNK     1      17.077   9.128  33.527  1.00  0.00     0.015 A 
HETATM   15  C14 UNK     1      17.034  10.462  33.934  1.00  0.00     0.020 A 
HETATM   16  C15 UNK     1      18.200  11.100  34.359  1.00  0.00     0.011 A 
HETATM   17 Br2  UNK     1      18.141  12.906  34.911  1.00  0.00    -0.051 Br
HETATM   18  C13 UNK     1      19.408  10.402  34.378  1.00  0.00     0.020 A 
HETATM   19  C9  UNK     1      19.451   9.069  33.972  1.00  0.00     0.015 A 
ENDBRANCH   6  13
TORSDOF 1
ENDMDL
MODEL 6
REMARK VINA RESULT:      -7.2      8.583     11.773
REMARK  1 active torsions:
REMARK  status: ('A' for Active; 'I' for Inactive)
REMARK    1  A    between atoms: C3_7  and  C4_8 
ROOT
HETATM    1 Br1  UNK     1      19.221   0.866  30.335  1.00  0.00    -0.051 Br
HETATM    2  O1  UNK     1      20.389  -3.366  34.499  1.00  0.00    -0.309 OA
HETATM    3  O2  UNK     1      17.820  -0.370  35.510  1.00  0.00    -0.287 OA
HETATM    4  C1  UNK     1      19.224  -1.329  33.870  1.00  0.00     0.049 A 
HETATM    5  C2  UNK     1      20.092  -2.384  33.590  1.00  0.00     0.090 A 
HETATM    6  C3  UNK     1      19.802  -3.303  35.754  1.00  0.00     0.090 A 
HETATM    7  C5  UNK     1      18.594  -1.263  35.197  1.00  0.00     0.187 A 
HETATM    8  C6  UNK     1      18.945  -2.344  36.140  1.00  0.00     0.093 A 
HETATM    9  C7  UNK     1      18.959  -0.356  32.904  1.00  0.00     0.037 A 
HETATM   10  C8  UNK     1      20.703  -2.470  32.337  1.00  0.00     0.039 A 
HETATM   11  C11 UNK     1      19.571  -0.445  31.652  1.00  0.00     0.012 A 
HETATM   12  C12 UNK     1      20.440  -1.499  31.370  1.00  0.00     0.022 A 
ENDROOT
BRANCH   6  13
HETATM   13  C4  UNK     1      20.182  -4.412  36.651  1.00  0.00    -0.002 A 
HETATM   14  C10 UNK     1      19.387  -5.558  36.726  1.00  0.00     0.015 A 
HETATM   15  C14 UNK     1      19.746  -6.607  37.573  1.00  0.00     0.020 A 
HETATM   16  C15 UNK     1      20.902  -6.513  38.348  1.00  0.00     0.011 A 
HETATM   17 Br2  UNK     1      21.390  -7.934  39.494  1.00  0.00    -0.051 Br
HETATM   18  C13 UNK     1      21.699  -5.370  38.275  1.00  0.00     0.020 A 
HETATM   19  C9  UNK     1      21.340  -4.322  37.428  1.00  0.00     0.015 A 
ENDBRANCH   6  13
TORSDOF 1
ENDMDL
MODEL 7
REMARK VINA RESULT:      -7.2      9.145     12.759
REMARK  1 active torsions:
REMARK  status: ('A' for Active; 'I' for Inactive)
REMARK    1  A    between atoms: C3_7  and  C4_8 
ROOT
HETATM    1 Br1  UNK     1      20.380  -8.233  39.300  1.00  0.00    -0.051 Br
HETATM    2  O1  UNK     1      20.159  -4.468  34.568  1.00  0.00    -0.309 OA
HETATM    3  O2  UNK     1      20.160  -2.829  38.297  1.00  0.00    -0.287 OA
HETATM    4  C1  UNK     1      20.209  -4.786  36.976  1.00  0.00     0.049 A 
HETATM    5  C2  UNK     1      20.208  -5.280  35.672  1.00  0.00     0.090 A 
HETATM    6  C3  UNK     1      20.104  -3.097  34.759  1.00  0.00     0.090 A 
HETATM    7  C5  UNK     1      20.158  -3.331  37.183  1.00  0.00     0.187 A 
HETATM    8  C6  UNK     1      20.107  -2.500  35.963  1.00  0.00     0.093 A 
HETATM    9  C7  UNK     1      20.260  -5.662  38.063  1.00  0.00     0.037 A 
HETATM   10  C8  UNK     1      20.257  -6.657  35.449  1.00  0.00     0.039 A 
HETATM   11  C11 UNK     1      20.310  -7.038  37.836  1.00  0.00     0.012 A 
HETATM   12  C12 UNK     1      20.308  -7.534  36.532  1.00  0.00     0.022 A 
ENDROOT
BRANCH   6  13
HETATM   13  C4  UNK     1      20.062  -2.316  33.507  1.00  0.00    -0.002 A 
HETATM   14  C10 UNK     1      19.100  -1.318  33.334  1.00  0.00     0.015 A 
HETATM   15  C14 UNK     1      19.061  -0.580  32.151  1.00  0.00     0.020 A 
HETATM   16  C15 UNK     1      19.983  -0.838  31.136  1.00  0.00     0.011 A 
HETATM   17 Br2  UNK     1      19.931   0.163  29.534  1.00  0.00    -0.051 Br
HETATM   18  C13 UNK     1      20.945  -1.835  31.306  1.00  0.00     0.020 A 
HETATM   19  C9  UNK     1      20.984  -2.572  32.489  1.00  0.00     0.015 A 
ENDBRANCH   6  13
TORSDOF 1
ENDMDL
MODEL 8
REMARK VINA RESULT:      -7.1      2.983      7.493
REMARK  1 active torsions:
REMARK  status: ('A' for Active; 'I' for Inactive)
REMARK    1  A    between atoms: C3_7  and  C4_8 
ROOT
HETATM    1 Br1  UNK     1      18.557  -1.559  34.693  1.00  0.00    -0.051 Br
HETATM    2  O1  UNK     1      18.593   4.491  34.594  1.00  0.00    -0.309 OA
HETATM    3  O2  UNK     1      17.713   2.543  31.126  1.00  0.00    -0.287 OA
HETATM    4  C1  UNK     1      18.282   2.390  33.414  1.00  0.00     0.049 A 
HETATM    5  C2  UNK     1      18.573   3.120  34.565  1.00  0.00     0.090 A 
HETATM    6  C3  UNK     1      18.317   5.179  33.423  1.00  0.00     0.090 A 
HETATM    7  C5  UNK     1      17.981   3.117  32.171  1.00  0.00     0.187 A 
HETATM    8  C6  UNK     1      18.015   4.592  32.253  1.00  0.00     0.093 A 
HETATM    9  C7  UNK     1      18.275   0.994  33.444  1.00  0.00     0.037 A 
HETATM   10  C8  UNK     1      18.861   2.454  35.758  1.00  0.00     0.039 A 
HETATM   11  C11 UNK     1      18.563   0.331  34.638  1.00  0.00     0.012 A 
HETATM   12  C12 UNK     1      18.855   1.059  35.792  1.00  0.00     0.022 A 
ENDROOT
BRANCH   6  13
HETATM   13  C4  UNK     1      18.359   6.648  33.565  1.00  0.00    -0.002 A 
HETATM   14  C10 UNK     1      17.303   7.429  33.090  1.00  0.00     0.015 A 
HETATM   15  C14 UNK     1      17.341   8.817  33.226  1.00  0.00     0.020 A 
HETATM   16  C15 UNK     1      18.435   9.429  33.837  1.00  0.00     0.011 A 
HETATM   17 Br2  UNK     1      18.487  11.309  34.022  1.00  0.00    -0.051 Br
HETATM   18  C13 UNK     1      19.492   8.651  34.313  1.00  0.00     0.020 A 
HETATM   19  C9  UNK     1      19.454   7.264  34.177  1.00  0.00     0.015 A 
ENDBRANCH   6  13
TORSDOF 1
ENDMDL
MODEL 9
REMARK VINA RESULT:      -7.1      9.899     12.352
REMARK  1 active torsions:
REMARK  status: ('A' for Active; 'I' for Inactive)
REMARK    1  A    between atoms: C3_7  and  C4_8 
ROOT
HETATM    1 Br1  UNK     1      18.383   2.168  35.639  1.00  0.00    -0.051 Br
HETATM    2  O1  UNK     1      18.717  -3.669  37.199  1.00  0.00    -0.309 OA
HETATM    3  O2  UNK     1      20.782  -2.467  33.899  1.00  0.00    -0.287 OA
HETATM    4  C1  UNK     1      19.353  -1.878  35.685  1.00  0.00     0.049 A 
HETATM    5  C2  UNK     1      18.673  -2.356  36.805  1.00  0.00     0.090 A 
HETATM    6  C3  UNK     1      19.468  -4.559  36.446  1.00  0.00     0.090 A 
HETATM    7  C5  UNK     1      20.157  -2.817  34.889  1.00  0.00     0.187 A 
HETATM    8  C6  UNK     1      20.173  -4.219  35.354  1.00  0.00     0.093 A 
HETATM    9  C7  UNK     1      19.271  -0.529  35.331  1.00  0.00     0.037 A 
HETATM   10  C8  UNK     1      17.904  -1.484  37.578  1.00  0.00     0.039 A 
HETATM   11  C11 UNK     1      18.502   0.340  36.107  1.00  0.00     0.012 A 
HETATM   12  C12 UNK     1      17.820  -0.137  37.227  1.00  0.00     0.022 A 
ENDROOT
BRANCH   6  13
HETATM   13  C4  UNK     1      19.454  -5.942  36.962  1.00  0.00    -0.002 A 
HETATM   14  C10 UNK     1      19.896  -6.212  38.259  1.00  0.00     0.015 A 
HETATM   15  C14 UNK     1      19.882  -7.519  38.747  1.00  0.00     0.020 A 
HETATM   16  C15 UNK     1      19.425  -8.560  37.939  1.00  0.00     0.011 A 
HETATM   17 Br2  UNK     1      19.404 -10.331  38.600  1.00  0.00    -0.051 Br
HETATM   18  C13 UNK     1      18.982  -8.294  36.643  1.00  0.00     0.020 A 
HETATM   19  C9  UNK     1      18.997  -6.988  36.155  1.00  0.00     0.015 A 
ENDBRANCH   6  13
TORSDOF 1
ENDMDL
MODEL 10
REMARK VINA RESULT:      -7.1      2.488      7.688
REMARK  1 active torsions:
REMARK  status: ('A' for Active; 'I' for Inactive)
REMARK    1  A    between atoms: C3_7  and  C4_8 
ROOT
HETATM    1 Br1  UNK     1      19.552  -1.709  31.683  1.00  0.00    -0.051 Br
HETATM    2  O1  UNK     1      17.801   3.867  33.252  1.00  0.00    -0.309 OA
HETATM    3  O2  UNK     1      19.004   3.269  29.406  1.00  0.00    -0.287 OA
HETATM    4  C1  UNK     1      18.633   2.347  31.549  1.00  0.00     0.049 A 
HETATM    5  C2  UNK     1      18.207   2.620  32.848  1.00  0.00     0.090 A 
HETATM    6  C3  UNK     1      17.820   4.899  32.327  1.00  0.00     0.090 A 
HETATM    7  C5  UNK     1      18.647   3.438  30.563  1.00  0.00     0.187 A 
HETATM    8  C6  UNK     1      18.201   4.760  31.047  1.00  0.00     0.093 A 
HETATM    9  C7  UNK     1      19.035   1.057  31.194  1.00  0.00     0.037 A 
HETATM   10  C8  UNK     1      18.183   1.602  33.803  1.00  0.00     0.039 A 
HETATM   11  C11 UNK     1      19.009   0.041  32.151  1.00  0.00     0.012 A 
HETATM   12  C12 UNK     1      18.585   0.313  33.451  1.00  0.00     0.022 A 
ENDROOT
BRANCH   6  13
HETATM   13  C4  UNK     1      17.357   6.194  32.863  1.00  0.00    -0.002 A 
HETATM   14  C10 UNK     1      17.463   6.466  34.229  1.00  0.00     0.015 A 
HETATM   15  C14 UNK     1      17.026   7.691  34.736  1.00  0.00     0.020 A 
HETATM   16  C15 UNK     1      16.482   8.647  33.879  1.00  0.00     0.011 A 
HETATM   17 Br2  UNK     1      15.892  10.306  34.565  1.00  0.00    -0.051 Br
HETATM   18  C13 UNK     1      16.375   8.378  32.514  1.00  0.00     0.020 A 
HETATM   19  C9  UNK     1      16.811   7.154  32.007  1.00  0.00     0.015 A 
ENDBRANCH   6  13
TORSDOF 1
ENDMDL
