MODEL 1
REMARK VINA RESULT:      -9.0      0.000      0.000
REMARK  5 active torsions:
REMARK  status: ('A' for Active; 'I' for Inactive)
REMARK    1  A    between atoms: C9_18  and  O2_3 
REMARK    2  A    between atoms: C4_13  and  N1_8 
REMARK       I    between atoms: C8_17  and  N1_8 
REMARK       I    between atoms: C6_15  and  N2_9 
REMARK    3  A    between atoms: C2_11  and  C9_18 
REMARK    4  A    between atoms: C3_12  and  C6_15 
REMARK    5  A    between atoms: C7_16  and  C8_17 
ROOT
HETATM    1  S1  UNK     1      19.066  -1.922  12.329  1.00  0.00    -0.065 SA
HETATM    2  C1  UNK     1      19.995  -4.312  12.479  1.00  0.00    -0.020 A 
HETATM    3  C2  UNK     1      20.165  -3.740  13.773  1.00  0.00     0.080 A 
HETATM    4  C3  UNK     1      19.408  -3.432  11.598  1.00  0.00     0.081 A 
HETATM    5  C4  UNK     1      19.704  -2.463  13.808  1.00  0.00     0.094 A 
HETATM    6  C5  UNK     1      20.402  -5.695  12.124  1.00  0.00     0.051 C 
ENDROOT
BRANCH   5   7
HETATM    7  N1  UNK     1      19.672  -1.539  14.857  1.00  0.00    -0.316 N 
HETATM    8  C8  UNK     1      18.732  -1.492  15.877  1.00  0.00     0.262 C 
HETATM    9  O4  UNK     1      17.764  -2.227  16.062  1.00  0.00    -0.267 OA
HETATM   10  H4  UNK     1      20.410  -0.842  14.829  1.00  0.00     0.169 HD
BRANCH   8  11
HETATM   11  C7  UNK     1      18.996  -0.393  16.813  1.00  0.00     0.108 A 
HETATM   12  C11 UNK     1      18.985  -0.709  18.114  1.00  0.00     0.037 A 
HETATM   13  C10 UNK     1      19.235   0.312  19.119  1.00  0.00    -0.001 A 
HETATM   14  C12 UNK     1      19.485   1.617  18.706  1.00  0.00     0.089 A 
HETATM   15  C14 UNK     1      19.233   0.027  20.487  1.00  0.00     0.014 A 
HETATM   16  O1  UNK     1      19.495   1.943  17.336  1.00  0.00    -0.274 OA
HETATM   17  C17 UNK     1      19.731   2.641  19.617  1.00  0.00     0.038 A 
HETATM   18  C13 UNK     1      19.259   0.988  16.351  1.00  0.00     0.304 A 
HETATM   19  O6  UNK     1      19.269   1.281  15.160  1.00  0.00    -0.259 OA
HETATM   20  C19 UNK     1      19.728   2.349  20.979  1.00  0.00     0.003 A 
HETATM   21  C18 UNK     1      19.479   1.044  21.414  1.00  0.00     0.001 A 
ENDBRANCH   8  11
ENDBRANCH   5   7
BRANCH   3  22
HETATM   22  C9  UNK     1      20.749  -4.405  14.912  1.00  0.00     0.296 C 
HETATM   23  O5  UNK     1      20.210  -5.346  15.514  1.00  0.00    -0.259 OA
BRANCH  22  24
HETATM   24  O2  UNK     1      21.976  -3.901  15.285  1.00  0.00    -0.322 OA
HETATM   25  C20 UNK     1      22.183  -3.673  16.683  1.00  0.00     0.213 C 
ENDBRANCH  22  24
ENDBRANCH   3  22
BRANCH   4  26
HETATM   26  C6  UNK     1      19.071  -3.620  10.222  1.00  0.00     0.260 C 
HETATM   27  O3  UNK     1      17.939  -4.021   9.876  1.00  0.00    -0.267 OA
HETATM   28  N2  UNK     1      20.056  -3.342   9.231  1.00  0.00    -0.356 N 
HETATM   29  C15 UNK     1      19.759  -3.520   7.816  1.00  0.00     0.152 C 
HETATM   30  C16 UNK     1      21.398  -2.847   9.535  1.00  0.00     0.152 C 
ENDBRANCH   4  26
TORSDOF 5
ENDMDL
MODEL 2
REMARK VINA RESULT:      -8.6     17.995     22.582
REMARK  5 active torsions:
REMARK  status: ('A' for Active; 'I' for Inactive)
REMARK    1  A    between atoms: C9_18  and  O2_3 
REMARK    2  A    between atoms: C4_13  and  N1_8 
REMARK       I    between atoms: C8_17  and  N1_8 
REMARK       I    between atoms: C6_15  and  N2_9 
REMARK    3  A    between atoms: C2_11  and  C9_18 
REMARK    4  A    between atoms: C3_12  and  C6_15 
REMARK    5  A    between atoms: C7_16  and  C8_17 
ROOT
HETATM    1  S1  UNK     1      18.038  -1.704  37.393  1.00  0.00    -0.065 SA
HETATM    2  C1  UNK     1      18.669  -0.255  35.368  1.00  0.00    -0.020 A 
HETATM    3  C2  UNK     1      19.112  -1.574  35.064  1.00  0.00     0.080 A 
HETATM    4  C3  UNK     1      18.066  -0.184  36.604  1.00  0.00     0.081 A 
HETATM    5  C4  UNK     1      18.828  -2.433  36.077  1.00  0.00     0.094 A 
HETATM    6  C5  UNK     1      18.836   0.907  34.458  1.00  0.00     0.051 C 
ENDROOT
BRANCH   5   7
HETATM    7  N1  UNK     1      19.079  -3.802  36.203  1.00  0.00    -0.316 N 
HETATM    8  C8  UNK     1      20.231  -4.378  36.721  1.00  0.00     0.262 C 
HETATM    9  O4  UNK     1      21.235  -3.822  37.161  1.00  0.00    -0.267 OA
HETATM   10  H4  UNK     1      18.337  -4.401  35.856  1.00  0.00     0.169 HD
BRANCH   8  11
HETATM   11  C7  UNK     1      20.164  -5.844  36.705  1.00  0.00     0.108 A 
HETATM   12  C11 UNK     1      20.013  -6.442  37.893  1.00  0.00     0.037 A 
HETATM   13  C10 UNK     1      19.937  -7.892  37.979  1.00  0.00    -0.001 A 
HETATM   14  C12 UNK     1      20.023  -8.642  36.811  1.00  0.00     0.089 A 
HETATM   15  C14 UNK     1      19.779  -8.557  39.198  1.00  0.00     0.014 A 
HETATM   16  O1  UNK     1      20.183  -8.007  35.564  1.00  0.00    -0.274 OA
HETATM   17  C17 UNK     1      19.958 -10.033  36.825  1.00  0.00     0.038 A 
HETATM   18  C13 UNK     1      20.259  -6.622  35.449  1.00  0.00     0.304 A 
HETATM   19  O6  UNK     1      20.398  -6.077  34.359  1.00  0.00    -0.259 OA
HETATM   20  C19 UNK     1      19.801 -10.689  38.044  1.00  0.00     0.003 A 
HETATM   21  C18 UNK     1      19.711  -9.953  39.228  1.00  0.00     0.001 A 
ENDBRANCH   8  11
ENDBRANCH   5   7
BRANCH   3  22
HETATM   22  C9  UNK     1      19.779  -1.974  33.849  1.00  0.00     0.296 C 
HETATM   23  O5  UNK     1      20.896  -2.512  33.818  1.00  0.00    -0.259 OA
BRANCH  22  24
HETATM   24  O2  UNK     1      19.062  -1.706  32.703  1.00  0.00    -0.322 OA
HETATM   25  C20 UNK     1      19.814  -1.349  31.539  1.00  0.00     0.213 C 
ENDBRANCH  22  24
ENDBRANCH   3  22
BRANCH   4  26
HETATM   26  C6  UNK     1      17.496   0.944  37.269  1.00  0.00     0.260 C 
HETATM   27  O3  UNK     1      18.161   1.637  38.069  1.00  0.00    -0.267 OA
HETATM   28  N2  UNK     1      16.135   1.277  37.007  1.00  0.00    -0.356 N 
HETATM   29  C15 UNK     1      15.509   2.419  37.662  1.00  0.00     0.152 C 
HETATM   30  C16 UNK     1      15.284   0.544  36.072  1.00  0.00     0.152 C 
ENDBRANCH   4  26
TORSDOF 5
ENDMDL
MODEL 3
REMARK VINA RESULT:      -8.2     19.694     21.850
REMARK  5 active torsions:
REMARK  status: ('A' for Active; 'I' for Inactive)
REMARK    1  A    between atoms: C9_18  and  O2_3 
REMARK    2  A    between atoms: C4_13  and  N1_8 
REMARK       I    between atoms: C8_17  and  N1_8 
REMARK       I    between atoms: C6_15  and  N2_9 
REMARK    3  A    between atoms: C2_11  and  C9_18 
REMARK    4  A    between atoms: C3_12  and  C6_15 
REMARK    5  A    between atoms: C7_16  and  C8_17 
ROOT
HETATM    1  S1  UNK     1      21.138  -7.587  34.800  1.00  0.00    -0.065 SA
HETATM    2  C1  UNK     1      20.077  -8.964  36.692  1.00  0.00    -0.020 A 
HETATM    3  C2  UNK     1      19.500  -7.664  36.777  1.00  0.00     0.080 A 
HETATM    4  C3  UNK     1      20.984  -9.060  35.660  1.00  0.00     0.081 A 
HETATM    5  C4  UNK     1      19.995  -6.844  35.814  1.00  0.00     0.094 A 
HETATM    6  C5  UNK     1      19.739 -10.083  37.607  1.00  0.00     0.051 C 
ENDROOT
BRANCH   5   7
HETATM    7  N1  UNK     1      19.714  -5.504  35.531  1.00  0.00    -0.316 N 
HETATM    8  C8  UNK     1      20.302  -4.400  36.133  1.00  0.00     0.262 C 
HETATM    9  O4  UNK     1      21.164  -4.373  37.009  1.00  0.00    -0.267 OA
HETATM   10  H4  UNK     1      18.994  -5.363  34.830  1.00  0.00     0.169 HD
BRANCH   8  11
HETATM   11  C7  UNK     1      19.773  -3.140  35.599  1.00  0.00     0.108 A 
HETATM   12  C11 UNK     1      18.918  -2.476  36.387  1.00  0.00     0.037 A 
HETATM   13  C10 UNK     1      18.340  -1.217  35.945  1.00  0.00    -0.001 A 
HETATM   14  C12 UNK     1      18.689  -0.717  34.695  1.00  0.00     0.089 A 
HETATM   15  C14 UNK     1      17.445  -0.491  36.735  1.00  0.00     0.014 A 
HETATM   16  O1  UNK     1      19.589  -1.420  33.870  1.00  0.00    -0.274 OA
HETATM   17  C17 UNK     1      18.170   0.482  34.212  1.00  0.00     0.038 A 
HETATM   18  C13 UNK     1      20.159  -2.627  34.265  1.00  0.00     0.304 A 
HETATM   19  O6  UNK     1      20.941  -3.233  33.540  1.00  0.00    -0.259 OA
HETATM   20  C19 UNK     1      17.279   1.200  35.005  1.00  0.00     0.003 A 
HETATM   21  C18 UNK     1      16.916   0.714  36.265  1.00  0.00     0.001 A 
ENDBRANCH   8  11
ENDBRANCH   5   7
BRANCH   3  22
HETATM   22  C9  UNK     1      18.519  -7.245  37.748  1.00  0.00     0.296 C 
HETATM   23  O5  UNK     1      17.404  -6.789  37.453  1.00  0.00    -0.259 OA
BRANCH  22  24
HETATM   24  O2  UNK     1      18.928  -7.395  39.055  1.00  0.00    -0.322 OA
HETATM   25  C20 UNK     1      20.088  -6.660  39.459  1.00  0.00     0.213 C 
ENDBRANCH  22  24
ENDBRANCH   3  22
BRANCH   4  26
HETATM   26  C6  UNK     1      21.767 -10.181  35.247  1.00  0.00     0.260 C 
HETATM   27  O3  UNK     1      21.388 -10.940  34.328  1.00  0.00    -0.267 OA
HETATM   28  N2  UNK     1      23.006 -10.431  35.904  1.00  0.00    -0.356 N 
HETATM   29  C15 UNK     1      23.839 -11.562  35.518  1.00  0.00     0.152 C 
HETATM   30  C16 UNK     1      23.545  -9.588  36.971  1.00  0.00     0.152 C 
ENDBRANCH   4  26
TORSDOF 5
ENDMDL
MODEL 4
REMARK VINA RESULT:      -8.0      1.986      2.413
REMARK  5 active torsions:
REMARK  status: ('A' for Active; 'I' for Inactive)
REMARK    1  A    between atoms: C9_18  and  O2_3 
REMARK    2  A    between atoms: C4_13  and  N1_8 
REMARK       I    between atoms: C8_17  and  N1_8 
REMARK       I    between atoms: C6_15  and  N2_9 
REMARK    3  A    between atoms: C2_11  and  C9_18 
REMARK    4  A    between atoms: C3_12  and  C6_15 
REMARK    5  A    between atoms: C7_16  and  C8_17 
ROOT
HETATM    1  S1  UNK     1      18.897  -4.078  12.578  1.00  0.00    -0.065 SA
HETATM    2  C1  UNK     1      20.422  -6.049  13.201  1.00  0.00    -0.020 A 
HETATM    3  C2  UNK     1      20.613  -5.066  14.214  1.00  0.00     0.080 A 
HETATM    4  C3  UNK     1      19.514  -5.642  12.249  1.00  0.00     0.081 A 
HETATM    5  C4  UNK     1      19.848  -3.968  13.981  1.00  0.00     0.094 A 
HETATM    6  C5  UNK     1      21.119  -7.360  13.175  1.00  0.00     0.051 C 
ENDROOT
BRANCH   5   7
HETATM    7  N1  UNK     1      19.723  -2.780  14.708  1.00  0.00    -0.316 N 
HETATM    8  C8  UNK     1      18.671  -2.444  15.550  1.00  0.00     0.262 C 
HETATM    9  O4  UNK     1      17.667  -3.098  15.822  1.00  0.00    -0.267 OA
HETATM   10  H4  UNK     1      20.479  -2.118  14.568  1.00  0.00     0.169 HD
BRANCH   8  11
HETATM   11  C7  UNK     1      18.858  -1.120  16.155  1.00  0.00     0.108 A 
HETATM   12  C11 UNK     1      18.662  -1.040  17.477  1.00  0.00     0.037 A 
HETATM   13  C10 UNK     1      18.822   0.230  18.167  1.00  0.00    -0.001 A 
HETATM   14  C12 UNK     1      19.182   1.355  17.431  1.00  0.00     0.089 A 
HETATM   15  C14 UNK     1      18.629   0.358  19.544  1.00  0.00     0.014 A 
HETATM   16  O1  UNK     1      19.386   1.265  16.041  1.00  0.00    -0.274 OA
HETATM   17  C17 UNK     1      19.351   2.601  18.031  1.00  0.00     0.038 A 
HETATM   18  C13 UNK     1      19.240   0.064  15.352  1.00  0.00     0.304 A 
HETATM   19  O6  UNK     1      19.419  -0.005  14.141  1.00  0.00    -0.259 OA
HETATM   20  C19 UNK     1      19.155   2.721  19.405  1.00  0.00     0.003 A 
HETATM   21  C18 UNK     1      18.795   1.602  20.161  1.00  0.00     0.001 A 
ENDBRANCH   8  11
ENDBRANCH   5   7
BRANCH   3  22
HETATM   22  C9  UNK     1      21.498  -5.191  15.346  1.00  0.00     0.296 C 
HETATM   23  O5  UNK     1      21.533  -6.184  16.089  1.00  0.00    -0.259 OA
BRANCH  22  24
HETATM   24  O2  UNK     1      22.316  -4.100  15.540  1.00  0.00    -0.322 OA
HETATM   25  C20 UNK     1      23.353  -4.235  16.518  1.00  0.00     0.213 C 
ENDBRANCH  22  24
ENDBRANCH   3  22
BRANCH   4  26
HETATM   26  C6  UNK     1      19.052  -6.331  11.086  1.00  0.00     0.260 C 
HETATM   27  O3  UNK     1      19.591  -6.162   9.970  1.00  0.00    -0.267 OA
HETATM   28  N2  UNK     1      17.952  -7.226  11.212  1.00  0.00    -0.356 N 
HETATM   29  C15 UNK     1      17.446  -7.950  10.053  1.00  0.00     0.152 C 
HETATM   30  C16 UNK     1      17.273  -7.508  12.475  1.00  0.00     0.152 C 
ENDBRANCH   4  26
TORSDOF 5
ENDMDL
MODEL 5
REMARK VINA RESULT:      -8.0     16.239     20.314
REMARK  5 active torsions:
REMARK  status: ('A' for Active; 'I' for Inactive)
REMARK    1  A    between atoms: C9_18  and  O2_3 
REMARK    2  A    between atoms: C4_13  and  N1_8 
REMARK       I    between atoms: C8_17  and  N1_8 
REMARK       I    between atoms: C6_15  and  N2_9 
REMARK    3  A    between atoms: C2_11  and  C9_18 
REMARK    4  A    between atoms: C3_12  and  C6_15 
REMARK    5  A    between atoms: C7_16  and  C8_17 
ROOT
HETATM    1  S1  UNK     1      18.160   2.400  35.101  1.00  0.00    -0.065 SA
HETATM    2  C1  UNK     1      18.566   1.049  32.954  1.00  0.00    -0.020 A 
HETATM    3  C2  UNK     1      18.341   2.394  32.538  1.00  0.00     0.080 A 
HETATM    4  C3  UNK     1      18.497   0.913  34.322  1.00  0.00     0.081 A 
HETATM    5  C4  UNK     1      18.111   3.204  33.604  1.00  0.00     0.094 A 
HETATM    6  C5  UNK     1      18.845  -0.071  32.020  1.00  0.00     0.051 C 
ENDROOT
BRANCH   5   7
HETATM    7  N1  UNK     1      17.847   4.575  33.660  1.00  0.00    -0.316 N 
HETATM    8  C8  UNK     1      18.779   5.580  33.878  1.00  0.00     0.262 C 
HETATM    9  O4  UNK     1      19.991   5.475  34.060  1.00  0.00    -0.267 OA
HETATM   10  H4  UNK     1      16.869   4.822  33.546  1.00  0.00     0.169 HD
BRANCH   8  11
HETATM   11  C7  UNK     1      18.161   6.910  33.876  1.00  0.00     0.108 A 
HETATM   12  C11 UNK     1      16.822   6.940  33.888  1.00  0.00     0.037 A 
HETATM   13  C10 UNK     1      16.117   8.213  33.887  1.00  0.00    -0.001 A 
HETATM   14  C12 UNK     1      16.855   9.392  33.873  1.00  0.00     0.089 A 
HETATM   15  C14 UNK     1      14.722   8.291  33.900  1.00  0.00     0.014 A 
HETATM   16  O1  UNK     1      18.263   9.354  33.859  1.00  0.00    -0.274 OA
HETATM   17  C17 UNK     1      16.241  10.642  33.870  1.00  0.00     0.038 A 
HETATM   18  C13 UNK     1      18.966   8.153  33.861  1.00  0.00     0.304 A 
HETATM   19  O6  UNK     1      20.193   8.129  33.848  1.00  0.00    -0.259 OA
HETATM   20  C19 UNK     1      14.850  10.711  33.883  1.00  0.00     0.003 A 
HETATM   21  C18 UNK     1      14.091   9.538  33.898  1.00  0.00     0.001 A 
ENDBRANCH   8  11
ENDBRANCH   5   7
BRANCH   3  22
HETATM   22  C9  UNK     1      18.347   2.861  31.174  1.00  0.00     0.296 C 
HETATM   23  O5  UNK     1      19.063   3.787  30.763  1.00  0.00    -0.259 OA
BRANCH  22  24
HETATM   24  O2  UNK     1      17.478   2.183  30.347  1.00  0.00    -0.322 OA
HETATM   25  C20 UNK     1      17.888   2.003  28.987  1.00  0.00     0.213 C 
ENDBRANCH  22  24
ENDBRANCH   3  22
BRANCH   4  26
HETATM   26  C6  UNK     1      18.664  -0.258  35.123  1.00  0.00     0.260 C 
HETATM   27  O3  UNK     1      19.797  -0.657  35.470  1.00  0.00    -0.267 OA
HETATM   28  N2  UNK     1      17.505  -0.982  35.528  1.00  0.00    -0.356 N 
HETATM   29  C15 UNK     1      17.625  -2.182  36.345  1.00  0.00     0.152 C 
HETATM   30  C16 UNK     1      16.139  -0.583  35.194  1.00  0.00     0.152 C 
ENDBRANCH   4  26
TORSDOF 5
ENDMDL
MODEL 6
REMARK VINA RESULT:      -7.9     17.753     22.266
REMARK  5 active torsions:
REMARK  status: ('A' for Active; 'I' for Inactive)
REMARK    1  A    between atoms: C9_18  and  O2_3 
REMARK    2  A    between atoms: C4_13  and  N1_8 
REMARK       I    between atoms: C8_17  and  N1_8 
REMARK       I    between atoms: C6_15  and  N2_9 
REMARK    3  A    between atoms: C2_11  and  C9_18 
REMARK    4  A    between atoms: C3_12  and  C6_15 
REMARK    5  A    between atoms: C7_16  and  C8_17 
ROOT
HETATM    1  S1  UNK     1      18.756  -1.917  37.263  1.00  0.00    -0.065 SA
HETATM    2  C1  UNK     1      18.847  -0.577  35.074  1.00  0.00    -0.020 A 
HETATM    3  C2  UNK     1      19.604  -1.762  34.843  1.00  0.00     0.080 A 
HETATM    4  C3  UNK     1      18.329  -0.534  36.349  1.00  0.00     0.081 A 
HETATM    5  C4  UNK     1      19.624  -2.552  35.947  1.00  0.00     0.094 A 
HETATM    6  C5  UNK     1      18.639   0.486  34.057  1.00  0.00     0.051 C 
ENDROOT
BRANCH   5   7
HETATM    7  N1  UNK     1      20.238  -3.789  36.165  1.00  0.00    -0.316 N 
HETATM    8  C8  UNK     1      19.590  -4.994  36.399  1.00  0.00     0.262 C 
HETATM    9  O4  UNK     1      18.382  -5.216  36.462  1.00  0.00    -0.267 OA
HETATM   10  H4  UNK     1      21.253  -3.763  36.164  1.00  0.00     0.169 HD
BRANCH   8  11
HETATM   11  C7  UNK     1      20.538  -6.098  36.588  1.00  0.00     0.108 A 
HETATM   12  C11 UNK     1      20.416  -7.133  35.747  1.00  0.00     0.037 A 
HETATM   13  C10 UNK     1      21.310  -8.275  35.855  1.00  0.00    -0.001 A 
HETATM   14  C12 UNK     1      22.290  -8.272  36.843  1.00  0.00     0.089 A 
HETATM   15  C14 UNK     1      21.219  -9.375  35.000  1.00  0.00     0.014 A 
HETATM   16  O1  UNK     1      22.413  -7.180  37.724  1.00  0.00    -0.274 OA
HETATM   17  C17 UNK     1      23.177  -9.334  37.000  1.00  0.00     0.038 A 
HETATM   18  C13 UNK     1      21.573  -6.073  37.646  1.00  0.00     0.304 A 
HETATM   19  O6  UNK     1      21.687  -5.127  38.418  1.00  0.00    -0.259 OA
HETATM   20  C19 UNK     1      23.079 -10.428  36.143  1.00  0.00     0.003 A 
HETATM   21  C18 UNK     1      22.102 -10.449  35.145  1.00  0.00     0.001 A 
ENDBRANCH   8  11
ENDBRANCH   5   7
BRANCH   3  22
HETATM   22  C9  UNK     1      20.272  -2.102  33.611  1.00  0.00     0.296 C 
HETATM   23  O5  UNK     1      21.451  -2.484  33.547  1.00  0.00    -0.259 OA
BRANCH  22  24
HETATM   24  O2  UNK     1      19.483  -1.966  32.491  1.00  0.00    -0.322 OA
HETATM   25  C20 UNK     1      20.122  -2.147  31.223  1.00  0.00     0.213 C 
ENDBRANCH  22  24
ENDBRANCH   3  22
BRANCH   4  26
HETATM   26  C6  UNK     1      17.523   0.473  36.964  1.00  0.00     0.260 C 
HETATM   27  O3  UNK     1      17.983   1.229  37.846  1.00  0.00    -0.267 OA
HETATM   28  N2  UNK     1      16.165   0.607  36.556  1.00  0.00    -0.356 N 
HETATM   29  C15 UNK     1      15.304   1.618  37.156  1.00  0.00     0.152 C 
HETATM   30  C16 UNK     1      15.543  -0.213  35.518  1.00  0.00     0.152 C 
ENDBRANCH   4  26
TORSDOF 5
ENDMDL
MODEL 7
REMARK VINA RESULT:      -7.9     15.955     19.920
REMARK  5 active torsions:
REMARK  status: ('A' for Active; 'I' for Inactive)
REMARK    1  A    between atoms: C9_18  and  O2_3 
REMARK    2  A    between atoms: C4_13  and  N1_8 
REMARK       I    between atoms: C8_17  and  N1_8 
REMARK       I    between atoms: C6_15  and  N2_9 
REMARK    3  A    between atoms: C2_11  and  C9_18 
REMARK    4  A    between atoms: C3_12  and  C6_15 
REMARK    5  A    between atoms: C7_16  and  C8_17 
ROOT
HETATM    1  S1  UNK     1      16.342   6.155  32.058  1.00  0.00    -0.065 SA
HETATM    2  C1  UNK     1      17.875   7.864  33.212  1.00  0.00    -0.020 A 
HETATM    3  C2  UNK     1      18.587   6.629  33.214  1.00  0.00     0.080 A 
HETATM    4  C3  UNK     1      16.640   7.748  32.613  1.00  0.00     0.081 A 
HETATM    5  C4  UNK     1      17.861   5.645  32.623  1.00  0.00     0.094 A 
HETATM    6  C5  UNK     1      18.403   9.127  33.786  1.00  0.00     0.051 C 
ENDROOT
BRANCH   5   7
HETATM    7  N1  UNK     1      18.167   4.298  32.410  1.00  0.00    -0.316 N 
HETATM    8  C8  UNK     1      18.479   3.712  31.191  1.00  0.00     0.262 C 
HETATM    9  O4  UNK     1      18.549   4.241  30.082  1.00  0.00    -0.267 OA
HETATM   10  H4  UNK     1      18.129   3.719  33.243  1.00  0.00     0.169 HD
BRANCH   8  11
HETATM   11  C7  UNK     1      18.747   2.276  31.326  1.00  0.00     0.108 A 
HETATM   12  C11 UNK     1      19.426   1.704  30.324  1.00  0.00     0.037 A 
HETATM   13  C10 UNK     1      19.738   0.284  30.367  1.00  0.00    -0.001 A 
HETATM   14  C12 UNK     1      19.321  -0.465  31.463  1.00  0.00     0.089 A 
HETATM   15  C14 UNK     1      20.445  -0.354  29.344  1.00  0.00     0.014 A 
HETATM   16  O1  UNK     1      18.607   0.143  32.514  1.00  0.00    -0.274 OA
HETATM   17  C17 UNK     1      19.588  -1.828  31.565  1.00  0.00     0.038 A 
HETATM   18  C13 UNK     1      18.293   1.499  32.501  1.00  0.00     0.304 A 
HETATM   19  O6  UNK     1      17.670   2.020  33.420  1.00  0.00    -0.259 OA
HETATM   20  C19 UNK     1      20.292  -2.457  30.541  1.00  0.00     0.003 A 
HETATM   21  C18 UNK     1      20.720  -1.722  29.432  1.00  0.00     0.001 A 
ENDBRANCH   8  11
ENDBRANCH   5   7
BRANCH   3  22
HETATM   22  C9  UNK     1      19.903   6.423  33.766  1.00  0.00     0.296 C 
HETATM   23  O5  UNK     1      20.125   5.781  34.804  1.00  0.00    -0.259 OA
BRANCH  22  24
HETATM   24  O2  UNK     1      20.914   7.007  33.034  1.00  0.00    -0.322 OA
HETATM   25  C20 UNK     1      21.682   6.144  32.189  1.00  0.00     0.213 C 
ENDBRANCH  22  24
ENDBRANCH   3  22
BRANCH   4  26
HETATM   26  C6  UNK     1      15.636   8.743  32.412  1.00  0.00     0.260 C 
HETATM   27  O3  UNK     1      15.374   9.187  31.273  1.00  0.00    -0.267 OA
HETATM   28  N2  UNK     1      14.923   9.235  33.543  1.00  0.00    -0.356 N 
HETATM   29  C15 UNK     1      13.890  10.251  33.388  1.00  0.00     0.152 C 
HETATM   30  C16 UNK     1      15.140   8.763  34.909  1.00  0.00     0.152 C 
ENDBRANCH   4  26
TORSDOF 5
ENDMDL
MODEL 8
REMARK VINA RESULT:      -7.8      2.092      3.240
REMARK  5 active torsions:
REMARK  status: ('A' for Active; 'I' for Inactive)
REMARK    1  A    between atoms: C9_18  and  O2_3 
REMARK    2  A    between atoms: C4_13  and  N1_8 
REMARK       I    between atoms: C8_17  and  N1_8 
REMARK       I    between atoms: C6_15  and  N2_9 
REMARK    3  A    between atoms: C2_11  and  C9_18 
REMARK    4  A    between atoms: C3_12  and  C6_15 
REMARK    5  A    between atoms: C7_16  and  C8_17 
ROOT
HETATM    1  S1  UNK     1      18.396  -4.528  14.239  1.00  0.00    -0.065 SA
HETATM    2  C1  UNK     1      18.937  -4.154  11.755  1.00  0.00    -0.020 A 
HETATM    3  C2  UNK     1      19.088  -2.886  12.388  1.00  0.00     0.080 A 
HETATM    4  C3  UNK     1      18.564  -5.136  12.646  1.00  0.00     0.081 A 
HETATM    5  C4  UNK     1      18.823  -2.968  13.718  1.00  0.00     0.094 A 
HETATM    6  C5  UNK     1      19.158  -4.389  10.306  1.00  0.00     0.051 C 
ENDROOT
BRANCH   5   7
HETATM    7  N1  UNK     1      18.847  -1.982  14.709  1.00  0.00    -0.316 N 
HETATM    8  C8  UNK     1      19.648  -1.982  15.842  1.00  0.00     0.262 C 
HETATM    9  O4  UNK     1      20.475  -2.820  16.197  1.00  0.00    -0.267 OA
HETATM   10  H4  UNK     1      18.192  -1.221  14.563  1.00  0.00     0.169 HD
BRANCH   8  11
HETATM   11  C7  UNK     1      19.419  -0.794  16.673  1.00  0.00     0.108 A 
HETATM   12  C11 UNK     1      19.404  -0.992  17.997  1.00  0.00     0.037 A 
HETATM   13  C10 UNK     1      19.184   0.124  18.903  1.00  0.00    -0.001 A 
HETATM   14  C12 UNK     1      18.990   1.395  18.371  1.00  0.00     0.089 A 
HETATM   15  C14 UNK     1      19.160  -0.037  20.290  1.00  0.00     0.014 A 
HETATM   16  O1  UNK     1      19.007   1.597  16.977  1.00  0.00    -0.274 OA
HETATM   17  C17 UNK     1      18.773   2.506  19.184  1.00  0.00     0.038 A 
HETATM   18  C13 UNK     1      19.216   0.549  16.085  1.00  0.00     0.304 A 
HETATM   19  O6  UNK     1      19.228   0.734  14.873  1.00  0.00    -0.259 OA
HETATM   20  C19 UNK     1      18.751   2.337  20.566  1.00  0.00     0.003 A 
HETATM   21  C18 UNK     1      18.944   1.068  21.119  1.00  0.00     0.001 A 
ENDBRANCH   8  11
ENDBRANCH   5   7
BRANCH   3  22
HETATM   22  C9  UNK     1      19.470  -1.662  11.729  1.00  0.00     0.296 C 
HETATM   23  O5  UNK     1      18.663  -0.876  11.209  1.00  0.00    -0.259 OA
BRANCH  22  24
HETATM   24  O2  UNK     1      20.828  -1.430  11.722  1.00  0.00    -0.322 OA
HETATM   25  C20 UNK     1      21.499  -1.552  10.464  1.00  0.00     0.213 C 
ENDBRANCH  22  24
ENDBRANCH   3  22
BRANCH   4  26
HETATM   26  C6  UNK     1      18.314  -6.522  12.411  1.00  0.00     0.260 C 
HETATM   27  O3  UNK     1      17.197  -6.928  12.024  1.00  0.00    -0.267 OA
HETATM   28  N2  UNK     1      19.369  -7.455  12.629  1.00  0.00    -0.356 N 
HETATM   29  C15 UNK     1      19.161  -8.879  12.404  1.00  0.00     0.152 C 
HETATM   30  C16 UNK     1      20.715  -7.076  13.057  1.00  0.00     0.152 C 
ENDBRANCH   4  26
TORSDOF 5
ENDMDL
MODEL 9
REMARK VINA RESULT:      -7.8     16.168     20.078
REMARK  5 active torsions:
REMARK  status: ('A' for Active; 'I' for Inactive)
REMARK    1  A    between atoms: C9_18  and  O2_3 
REMARK    2  A    between atoms: C4_13  and  N1_8 
REMARK       I    between atoms: C8_17  and  N1_8 
REMARK       I    between atoms: C6_15  and  N2_9 
REMARK    3  A    between atoms: C2_11  and  C9_18 
REMARK    4  A    between atoms: C3_12  and  C6_15 
REMARK    5  A    between atoms: C7_16  and  C8_17 
ROOT
HETATM    1  S1  UNK     1      18.412   2.166  35.162  1.00  0.00    -0.065 SA
HETATM    2  C1  UNK     1      18.586   0.639  33.104  1.00  0.00    -0.020 A 
HETATM    3  C2  UNK     1      18.306   1.944  32.606  1.00  0.00     0.080 A 
HETATM    4  C3  UNK     1      18.671   0.617  34.478  1.00  0.00     0.081 A 
HETATM    5  C4  UNK     1      18.191   2.841  33.619  1.00  0.00     0.094 A 
HETATM    6  C5  UNK     1      18.767  -0.557  32.243  1.00  0.00     0.051 C 
ENDROOT
BRANCH   5   7
HETATM    7  N1  UNK     1      17.925   4.213  33.589  1.00  0.00    -0.316 N 
HETATM    8  C8  UNK     1      18.635   5.169  32.875  1.00  0.00     0.262 C 
HETATM    9  O4  UNK     1      19.613   5.012  32.147  1.00  0.00    -0.267 OA
HETATM   10  H4  UNK     1      17.144   4.505  34.169  1.00  0.00     0.169 HD
BRANCH   8  11
HETATM   11  C7  UNK     1      18.086   6.516  33.069  1.00  0.00     0.108 A 
HETATM   12  C11 UNK     1      18.937   7.441  33.529  1.00  0.00     0.037 A 
HETATM   13  C10 UNK     1      18.485   8.805  33.754  1.00  0.00    -0.001 A 
HETATM   14  C12 UNK     1      17.160   9.129  33.483  1.00  0.00     0.089 A 
HETATM   15  C14 UNK     1      19.339   9.802  34.232  1.00  0.00     0.014 A 
HETATM   16  O1  UNK     1      16.269   8.151  32.998  1.00  0.00    -0.274 OA
HETATM   17  C17 UNK     1      16.664  10.417  33.677  1.00  0.00     0.038 A 
HETATM   18  C13 UNK     1      16.671   6.838  32.773  1.00  0.00     0.304 A 
HETATM   19  O6  UNK     1      15.889   5.992  32.352  1.00  0.00    -0.259 OA
HETATM   20  C19 UNK     1      17.521  11.405  34.155  1.00  0.00     0.003 A 
HETATM   21  C18 UNK     1      18.856  11.099  34.432  1.00  0.00     0.001 A 
ENDBRANCH   8  11
ENDBRANCH   5   7
BRANCH   3  22
HETATM   22  C9  UNK     1      18.156   2.294  31.215  1.00  0.00     0.296 C 
HETATM   23  O5  UNK     1      17.127   2.792  30.733  1.00  0.00    -0.259 OA
BRANCH  22  24
HETATM   24  O2  UNK     1      19.270   2.028  30.448  1.00  0.00    -0.322 OA
HETATM   25  C20 UNK     1      19.045   1.428  29.168  1.00  0.00     0.213 C 
ENDBRANCH  22  24
ENDBRANCH   3  22
BRANCH   4  26
HETATM   26  C6  UNK     1      18.934  -0.482  35.351  1.00  0.00     0.260 C 
HETATM   27  O3  UNK     1      20.101  -0.797  35.672  1.00  0.00    -0.267 OA
HETATM   28  N2  UNK     1      17.834  -1.232  35.860  1.00  0.00    -0.356 N 
HETATM   29  C15 UNK     1      18.054  -2.363  36.752  1.00  0.00     0.152 C 
HETATM   30  C16 UNK     1      16.436  -0.928  35.562  1.00  0.00     0.152 C 
ENDBRANCH   4  26
TORSDOF 5
ENDMDL
MODEL 10
REMARK VINA RESULT:      -7.7     23.758     25.218
REMARK  5 active torsions:
REMARK  status: ('A' for Active; 'I' for Inactive)
REMARK    1  A    between atoms: C9_18  and  O2_3 
REMARK    2  A    between atoms: C4_13  and  N1_8 
REMARK       I    between atoms: C8_17  and  N1_8 
REMARK       I    between atoms: C6_15  and  N2_9 
REMARK    3  A    between atoms: C2_11  and  C9_18 
REMARK    4  A    between atoms: C3_12  and  C6_15 
REMARK    5  A    between atoms: C7_16  and  C8_17 
ROOT
HETATM    1  S1  UNK     1      28.447  -9.027  36.624  1.00  0.00    -0.065 SA
HETATM    2  C1  UNK     1      30.437  -7.711  37.575  1.00  0.00    -0.020 A 
HETATM    3  C2  UNK     1      29.266  -7.092  38.101  1.00  0.00     0.080 A 
HETATM    4  C3  UNK     1      30.136  -8.777  36.757  1.00  0.00     0.081 A 
HETATM    5  C4  UNK     1      28.143  -7.713  37.657  1.00  0.00     0.094 A 
HETATM    6  C5  UNK     1      31.819  -7.260  37.876  1.00  0.00     0.051 C 
ENDROOT
BRANCH   5   7
HETATM    7  N1  UNK     1      26.795  -7.444  37.916  1.00  0.00    -0.316 N 
HETATM    8  C8  UNK     1      26.002  -8.077  38.863  1.00  0.00     0.262 C 
HETATM    9  O4  UNK     1      26.309  -8.976  39.643  1.00  0.00    -0.267 OA
HETATM   10  H4  UNK     1      26.387  -6.726  37.326  1.00  0.00     0.169 HD
BRANCH   8  11
HETATM   11  C7  UNK     1      24.633  -7.549  38.870  1.00  0.00     0.108 A 
HETATM   12  C11 UNK     1      23.650  -8.455  38.933  1.00  0.00     0.037 A 
HETATM   13  C10 UNK     1      22.259  -8.028  38.944  1.00  0.00    -0.001 A 
HETATM   14  C12 UNK     1      21.971  -6.668  38.890  1.00  0.00     0.089 A 
HETATM   15  C14 UNK     1      21.202  -8.939  39.009  1.00  0.00     0.014 A 
HETATM   16  O1  UNK     1      23.010  -5.720  38.824  1.00  0.00    -0.274 OA
HETATM   17  C17 UNK     1      20.661  -6.194  38.897  1.00  0.00     0.038 A 
HETATM   18  C13 UNK     1      24.350  -6.097  38.812  1.00  0.00     0.304 A 
HETATM   19  O6  UNK     1      25.248  -5.264  38.754  1.00  0.00    -0.259 OA
HETATM   20  C19 UNK     1      19.613  -7.109  38.962  1.00  0.00     0.003 A 
HETATM   21  C18 UNK     1      19.881  -8.479  39.017  1.00  0.00     0.001 A 
ENDBRANCH   8  11
ENDBRANCH   5   7
BRANCH   3  22
HETATM   22  C9  UNK     1      29.246  -5.954  38.986  1.00  0.00     0.296 C 
HETATM   23  O5  UNK     1      28.400  -5.786  39.878  1.00  0.00    -0.259 OA
BRANCH  22  24
HETATM   24  O2  UNK     1      30.262  -5.051  38.759  1.00  0.00    -0.322 OA
HETATM   25  C20 UNK     1      29.986  -3.983  37.847  1.00  0.00     0.213 C 
ENDBRANCH  22  24
ENDBRANCH   3  22
BRANCH   4  26
HETATM   26  C6  UNK     1      31.016  -9.649  36.047  1.00  0.00     0.260 C 
HETATM   27  O3  UNK     1      31.490 -10.675  36.580  1.00  0.00    -0.267 OA
HETATM   28  N2  UNK     1      31.357  -9.329  34.701  1.00  0.00    -0.356 N 
HETATM   29  C15 UNK     1      32.253 -10.188  33.937  1.00  0.00     0.152 C 
HETATM   30  C16 UNK     1      30.837  -8.166  33.984  1.00  0.00     0.152 C 
ENDBRANCH   4  26
TORSDOF 5
ENDMDL
