MODEL 1
REMARK VINA RESULT:      -8.6      0.000      0.000
REMARK  3 active torsions:
REMARK  status: ('A' for Active; 'I' for Inactive)
REMARK       I    between atoms: C10_20  and  N1_6 
REMARK    1  A    between atoms: N1_6  and  N2_7 
REMARK    2  A    between atoms: C6_16  and  N3_8 
REMARK    3  A    between atoms: C10_20  and  C3_13 
ROOT
HETATM    1  O1  UNK     1      19.075   1.360  28.726  1.00  0.00    -0.274 OA
HETATM    2  O2  UNK     1      18.217   3.477  28.655  1.00  0.00    -0.259 OA
HETATM    3  C1  UNK     1      19.609   0.354  30.873  1.00  0.00     0.001 A 
HETATM    4  C2  UNK     1      19.557   0.276  29.485  1.00  0.00     0.089 A 
HETATM    5  C3  UNK     1      18.700   2.598  30.801  1.00  0.00     0.110 A 
HETATM    6  C4  UNK     1      19.158   1.572  31.528  1.00  0.00     0.037 A 
HETATM    7  C5  UNK     1      20.094  -0.742  31.592  1.00  0.00     0.050 A 
HETATM    8  C6  UNK     1      20.516  -1.891  30.915  1.00  0.00     0.103 A 
HETATM    9  C7  UNK     1      19.975  -0.861  28.797  1.00  0.00     0.041 A 
HETATM   10  C8  UNK     1      18.636   2.539  29.324  1.00  0.00     0.304 A 
HETATM   11  C9  UNK     1      20.457  -1.949  29.521  1.00  0.00     0.039 A 
ENDROOT
BRANCH   5  12
HETATM   12  C10 UNK     1      18.268   3.782  31.553  1.00  0.00     0.276 C 
HETATM   13  O3  UNK     1      17.587   3.672  32.570  1.00  0.00    -0.266 OA
HETATM   14  N1  UNK     1      18.711   4.962  30.982  1.00  0.00    -0.257 N 
HETATM   15  H5  UNK     1      19.295   5.015  30.153  1.00  0.00     0.191 HD
BRANCH  14  16
HETATM   16  N2  UNK     1      18.396   6.161  31.559  1.00  0.00    -0.237 N 
HETATM   17  C11 UNK     1      17.375   6.964  31.213  1.00  0.00     0.258 A 
HETATM   18  N4  UNK     1      17.386   8.021  31.992  1.00  0.00    -0.142 NA
HETATM   19  N5  UNK     1      18.450   7.884  32.862  1.00  0.00    -0.142 NA
HETATM   20  C12 UNK     1      19.046   6.748  32.580  1.00  0.00     0.258 A 
ENDBRANCH  14  16
ENDBRANCH   5  12
BRANCH   8  21
HETATM   21  N3  UNK     1      21.007  -3.003  31.649  1.00  0.00    -0.116 N 
HETATM   22  O4  UNK     1      21.399  -4.018  31.024  1.00  0.00    -0.532 OA
HETATM   23  O5  UNK     1      21.039  -2.939  32.902  1.00  0.00    -0.532 OA
ENDBRANCH   8  21
TORSDOF 3
ENDMDL
MODEL 2
REMARK VINA RESULT:      -8.5      3.499      8.765
REMARK  3 active torsions:
REMARK  status: ('A' for Active; 'I' for Inactive)
REMARK       I    between atoms: C10_20  and  N1_6 
REMARK    1  A    between atoms: N1_6  and  N2_7 
REMARK    2  A    between atoms: C6_16  and  N3_8 
REMARK    3  A    between atoms: C10_20  and  C3_13 
ROOT
HETATM    1  O1  UNK     1      19.602   7.227  32.637  1.00  0.00    -0.274 OA
HETATM    2  O2  UNK     1      20.651   5.449  31.659  1.00  0.00    -0.259 OA
HETATM    3  C1  UNK     1      17.224   7.099  33.125  1.00  0.00     0.001 A 
HETATM    4  C2  UNK     1      18.422   7.805  33.146  1.00  0.00     0.089 A 
HETATM    5  C3  UNK     1      18.333   5.211  32.088  1.00  0.00     0.110 A 
HETATM    6  C4  UNK     1      17.208   5.755  32.569  1.00  0.00     0.037 A 
HETATM    7  C5  UNK     1      16.075   7.705  33.639  1.00  0.00     0.050 A 
HETATM    8  C6  UNK     1      16.142   9.000  34.163  1.00  0.00     0.103 A 
HETATM    9  C7  UNK     1      18.505   9.097  33.664  1.00  0.00     0.041 A 
HETATM   10  C8  UNK     1      19.619   5.943  32.099  1.00  0.00     0.304 A 
HETATM   11  C9  UNK     1      17.355   9.694  34.174  1.00  0.00     0.039 A 
ENDROOT
BRANCH   5  12
HETATM   12  C10 UNK     1      18.216   3.851  31.549  1.00  0.00     0.276 C 
HETATM   13  O3  UNK     1      17.620   2.973  32.170  1.00  0.00    -0.266 OA
HETATM   14  N1  UNK     1      18.836   3.713  30.320  1.00  0.00    -0.257 N 
HETATM   15  H5  UNK     1      19.298   4.468  29.823  1.00  0.00     0.191 HD
BRANCH  14  16
HETATM   16  N2  UNK     1      18.820   2.506  29.678  1.00  0.00    -0.237 N 
HETATM   17  C11 UNK     1      19.614   1.455  29.944  1.00  0.00     0.258 A 
HETATM   18  N4  UNK     1      19.305   0.474  29.127  1.00  0.00    -0.142 NA
HETATM   19  N5  UNK     1      18.279   0.918  28.317  1.00  0.00    -0.142 NA
HETATM   20  C12 UNK     1      18.003   2.152  28.671  1.00  0.00     0.258 A 
ENDBRANCH  14  16
ENDBRANCH   5  12
BRANCH   8  21
HETATM   21  N3  UNK     1      14.973   9.613  34.684  1.00  0.00    -0.116 N 
HETATM   22  O4  UNK     1      15.040  10.210  35.786  1.00  0.00    -0.532 OA
HETATM   23  O5  UNK     1      13.905   9.542  34.030  1.00  0.00    -0.532 OA
ENDBRANCH   8  21
TORSDOF 3
ENDMDL
MODEL 3
REMARK VINA RESULT:      -8.5     13.710     16.719
REMARK  3 active torsions:
REMARK  status: ('A' for Active; 'I' for Inactive)
REMARK       I    between atoms: C10_20  and  N1_6 
REMARK    1  A    between atoms: N1_6  and  N2_7 
REMARK    2  A    between atoms: C6_16  and  N3_8 
REMARK    3  A    between atoms: C10_20  and  C3_13 
ROOT
HETATM    1  O1  UNK     1      19.284   0.872  15.001  1.00  0.00    -0.274 OA
HETATM    2  O2  UNK     1      19.417  -0.668  13.318  1.00  0.00    -0.259 OA
HETATM    3  C1  UNK     1      19.023   0.120  17.298  1.00  0.00     0.001 A 
HETATM    4  C2  UNK     1      19.149   1.153  16.374  1.00  0.00     0.089 A 
HETATM    5  C3  UNK     1      19.163  -1.515  15.516  1.00  0.00     0.110 A 
HETATM    6  C4  UNK     1      19.033  -1.254  16.822  1.00  0.00     0.037 A 
HETATM    7  C5  UNK     1      18.891   0.439  18.652  1.00  0.00     0.050 A 
HETATM    8  C6  UNK     1      18.887   1.777  19.058  1.00  0.00     0.103 A 
HETATM    9  C7  UNK     1      19.146   2.492  16.764  1.00  0.00     0.041 A 
HETATM   10  C8  UNK     1      19.298  -0.433  14.516  1.00  0.00     0.304 A 
HETATM   11  C9  UNK     1      19.013   2.800  18.116  1.00  0.00     0.039 A 
ENDROOT
BRANCH   5  12
HETATM   12  C10 UNK     1      19.162  -2.932  15.135  1.00  0.00     0.276 C 
HETATM   13  O3  UNK     1      18.154  -3.623  15.270  1.00  0.00    -0.266 OA
HETATM   14  N1  UNK     1      20.384  -3.347  14.637  1.00  0.00    -0.257 N 
HETATM   15  H5  UNK     1      21.190  -2.742  14.517  1.00  0.00     0.191 HD
BRANCH  14  16
HETATM   16  N2  UNK     1      20.553  -4.643  14.235  1.00  0.00    -0.237 N 
HETATM   17  C11 UNK     1      20.344  -5.124  12.998  1.00  0.00     0.258 A 
HETATM   18  N4  UNK     1      20.615  -6.409  12.992  1.00  0.00    -0.142 NA
HETATM   19  N5  UNK     1      21.010  -6.755  14.270  1.00  0.00    -0.142 NA
HETATM   20  C12 UNK     1      20.964  -5.667  15.004  1.00  0.00     0.258 A 
ENDBRANCH  14  16
ENDBRANCH   5  12
BRANCH   8  21
HETATM   21  N3  UNK     1      18.753   2.097  20.435  1.00  0.00    -0.116 N 
HETATM   22  O4  UNK     1      17.622   2.007  20.972  1.00  0.00    -0.532 OA
HETATM   23  O5  UNK     1      19.768   2.458  21.077  1.00  0.00    -0.532 OA
ENDBRANCH   8  21
TORSDOF 3
ENDMDL
MODEL 4
REMARK VINA RESULT:      -8.4      3.518      4.417
REMARK  3 active torsions:
REMARK  status: ('A' for Active; 'I' for Inactive)
REMARK       I    between atoms: C10_20  and  N1_6 
REMARK    1  A    between atoms: N1_6  and  N2_7 
REMARK    2  A    between atoms: C6_16  and  N3_8 
REMARK    3  A    between atoms: C10_20  and  C3_13 
ROOT
HETATM    1  O1  UNK     1      18.388   1.251  32.288  1.00  0.00    -0.274 OA
HETATM    2  O2  UNK     1      18.437   2.813  30.621  1.00  0.00    -0.259 OA
HETATM    3  C1  UNK     1      18.198   1.971  34.602  1.00  0.00     0.001 A 
HETATM    4  C2  UNK     1      18.305   0.951  33.662  1.00  0.00     0.089 A 
HETATM    5  C3  UNK     1      18.250   3.630  32.837  1.00  0.00     0.110 A 
HETATM    6  C4  UNK     1      18.172   3.351  34.144  1.00  0.00     0.037 A 
HETATM    7  C5  UNK     1      18.118   1.634  35.955  1.00  0.00     0.050 A 
HETATM    8  C6  UNK     1      18.148   0.291  36.345  1.00  0.00     0.103 A 
HETATM    9  C7  UNK     1      18.337  -0.391  34.034  1.00  0.00     0.041 A 
HETATM   10  C8  UNK     1      18.365   2.562  31.819  1.00  0.00     0.304 A 
HETATM   11  C9  UNK     1      18.257  -0.718  35.386  1.00  0.00     0.039 A 
ENDROOT
BRANCH   5  12
HETATM   12  C10 UNK     1      18.215   5.051  32.474  1.00  0.00     0.276 C 
HETATM   13  O3  UNK     1      19.182   5.591  31.939  1.00  0.00    -0.266 OA
HETATM   14  N1  UNK     1      17.014   5.653  32.804  1.00  0.00    -0.257 N 
HETATM   15  H5  UNK     1      16.227   5.170  33.224  1.00  0.00     0.191 HD
BRANCH  14  16
HETATM   16  N2  UNK     1      16.817   6.979  32.533  1.00  0.00    -0.237 N 
HETATM   17  C11 UNK     1      16.104   7.482  31.512  1.00  0.00     0.258 A 
HETATM   18  N4  UNK     1      16.137   8.794  31.579  1.00  0.00    -0.142 NA
HETATM   19  N5  UNK     1      16.896   9.133  32.682  1.00  0.00    -0.142 NA
HETATM   20  C12 UNK     1      17.297   8.015  33.243  1.00  0.00     0.258 A 
ENDBRANCH  14  16
ENDBRANCH   5  12
BRANCH   8  21
HETATM   21  N3  UNK     1      18.066  -0.047  37.721  1.00  0.00    -0.116 N 
HETATM   22  O4  UNK     1      18.117  -1.256  38.054  1.00  0.00    -0.532 OA
HETATM   23  O5  UNK     1      17.948   0.871  38.568  1.00  0.00    -0.532 OA
ENDBRANCH   8  21
TORSDOF 3
ENDMDL
MODEL 5
REMARK VINA RESULT:      -8.3     13.473     16.464
REMARK  3 active torsions:
REMARK  status: ('A' for Active; 'I' for Inactive)
REMARK       I    between atoms: C10_20  and  N1_6 
REMARK    1  A    between atoms: N1_6  and  N2_7 
REMARK    2  A    between atoms: C6_16  and  N3_8 
REMARK    3  A    between atoms: C10_20  and  C3_13 
ROOT
HETATM    1  O1  UNK     1      19.278   0.593  15.042  1.00  0.00    -0.274 OA
HETATM    2  O2  UNK     1      19.350  -1.043  13.450  1.00  0.00    -0.259 OA
HETATM    3  C1  UNK     1      19.017  -0.018  17.380  1.00  0.00     0.001 A 
HETATM    4  C2  UNK     1      19.164   0.956  16.399  1.00  0.00     0.089 A 
HETATM    5  C3  UNK     1      19.093  -1.756  15.695  1.00  0.00     0.110 A 
HETATM    6  C4  UNK     1      18.984  -1.417  16.985  1.00  0.00     0.037 A 
HETATM    7  C5  UNK     1      18.908   0.381  18.715  1.00  0.00     0.050 A 
HETATM    8  C6  UNK     1      18.945   1.740  19.044  1.00  0.00     0.103 A 
HETATM    9  C7  UNK     1      19.202   2.314  16.711  1.00  0.00     0.041 A 
HETATM   10  C8  UNK     1      19.249  -0.737  14.633  1.00  0.00     0.304 A 
HETATM   11  C9  UNK     1      19.092   2.703  18.043  1.00  0.00     0.039 A 
ENDROOT
BRANCH   5  12
HETATM   12  C10 UNK     1      19.048  -3.192  15.396  1.00  0.00     0.276 C 
HETATM   13  O3  UNK     1      20.073  -3.813  15.120  1.00  0.00    -0.266 OA
HETATM   14  N1  UNK     1      17.767  -3.707  15.464  1.00  0.00    -0.257 N 
HETATM   15  H5  UNK     1      16.945  -3.169  15.719  1.00  0.00     0.191 HD
BRANCH  14  16
HETATM   16  N2  UNK     1      17.549  -5.034  15.212  1.00  0.00    -0.237 N 
HETATM   17  C11 UNK     1      17.195  -5.965  16.114  1.00  0.00     0.258 A 
HETATM   18  N4  UNK     1      17.074  -7.121  15.502  1.00  0.00    -0.142 NA
HETATM   19  N5  UNK     1      17.361  -6.915  14.166  1.00  0.00    -0.142 NA
HETATM   20  C12 UNK     1      17.645  -5.642  14.016  1.00  0.00     0.258 A 
ENDBRANCH  14  16
ENDBRANCH   5  12
BRANCH   8  21
HETATM   21  N3  UNK     1      18.834   2.141  20.401  1.00  0.00    -0.116 N 
HETATM   22  O4  UNK     1      17.714   2.075  20.964  1.00  0.00    -0.532 OA
HETATM   23  O5  UNK     1      19.857   2.549  21.001  1.00  0.00    -0.532 OA
ENDBRANCH   8  21
TORSDOF 3
ENDMDL
MODEL 6
REMARK VINA RESULT:      -8.2     14.106     15.800
REMARK  3 active torsions:
REMARK  status: ('A' for Active; 'I' for Inactive)
REMARK       I    between atoms: C10_20  and  N1_6 
REMARK    1  A    between atoms: N1_6  and  N2_7 
REMARK    2  A    between atoms: C6_16  and  N3_8 
REMARK    3  A    between atoms: C10_20  and  C3_13 
ROOT
HETATM    1  O1  UNK     1      19.639  -0.474  13.863  1.00  0.00    -0.274 OA
HETATM    2  O2  UNK     1      19.659   1.303  15.298  1.00  0.00    -0.259 OA
HETATM    3  C1  UNK     1      18.860  -2.640  14.645  1.00  0.00     0.001 A 
HETATM    4  C2  UNK     1      19.365  -1.836  13.628  1.00  0.00     0.089 A 
HETATM    5  C3  UNK     1      18.880  -0.757  16.169  1.00  0.00     0.110 A 
HETATM    6  C4  UNK     1      18.618  -2.052  15.953  1.00  0.00     0.037 A 
HETATM    7  C5  UNK     1      18.601  -3.986  14.374  1.00  0.00     0.050 A 
HETATM    8  C6  UNK     1      18.851  -4.503  13.099  1.00  0.00     0.103 A 
HETATM    9  C7  UNK     1      19.620  -2.337  12.353  1.00  0.00     0.041 A 
HETATM   10  C8  UNK     1      19.418   0.117  15.104  1.00  0.00     0.304 A 
HETATM   11  C9  UNK     1      19.359  -3.680  12.092  1.00  0.00     0.039 A 
ENDROOT
BRANCH   5  12
HETATM   12  C10 UNK     1      18.603  -0.258  17.521  1.00  0.00     0.276 C 
HETATM   13  O3  UNK     1      17.543  -0.519  18.088  1.00  0.00    -0.266 OA
HETATM   14  N1  UNK     1      19.641   0.503  18.028  1.00  0.00    -0.257 N 
HETATM   15  H5  UNK     1      20.514   0.678  17.541  1.00  0.00     0.191 HD
BRANCH  14  16
HETATM   16  N2  UNK     1      19.544   1.045  19.279  1.00  0.00    -0.237 N 
HETATM   17  C11 UNK     1      19.837   0.428  20.437  1.00  0.00     0.258 A 
HETATM   18  N4  UNK     1      19.625   1.265  21.427  1.00  0.00    -0.142 NA
HETATM   19  N5  UNK     1      19.184   2.453  20.878  1.00  0.00    -0.142 NA
HETATM   20  C12 UNK     1      19.144   2.294  19.575  1.00  0.00     0.258 A 
ENDBRANCH  14  16
ENDBRANCH   5  12
BRANCH   8  21
HETATM   21  N3  UNK     1      18.586  -5.872  12.828  1.00  0.00    -0.116 N 
HETATM   22  O4  UNK     1      19.141  -6.749  13.532  1.00  0.00    -0.532 OA
HETATM   23  O5  UNK     1      17.803  -6.166  11.893  1.00  0.00    -0.532 OA
ENDBRANCH   8  21
TORSDOF 3
ENDMDL
MODEL 7
REMARK VINA RESULT:      -8.1      3.774      7.805
REMARK  3 active torsions:
REMARK  status: ('A' for Active; 'I' for Inactive)
REMARK       I    between atoms: C10_20  and  N1_6 
REMARK    1  A    between atoms: N1_6  and  N2_7 
REMARK    2  A    between atoms: C6_16  and  N3_8 
REMARK    3  A    between atoms: C10_20  and  C3_13 
ROOT
HETATM    1  O1  UNK     1      18.786   2.898  31.119  1.00  0.00    -0.274 OA
HETATM    2  O2  UNK     1      18.675   0.639  31.438  1.00  0.00    -0.259 OA
HETATM    3  C1  UNK     1      18.256   4.397  32.958  1.00  0.00     0.001 A 
HETATM    4  C2  UNK     1      18.644   4.201  31.636  1.00  0.00     0.089 A 
HETATM    5  C3  UNK     1      18.137   2.002  33.300  1.00  0.00     0.110 A 
HETATM    6  C4  UNK     1      18.000   3.237  33.797  1.00  0.00     0.037 A 
HETATM    7  C5  UNK     1      18.127   5.704  33.435  1.00  0.00     0.050 A 
HETATM    8  C6  UNK     1      18.384   6.787  32.588  1.00  0.00     0.103 A 
HETATM    9  C7  UNK     1      18.903   5.269  30.780  1.00  0.00     0.041 A 
HETATM   10  C8  UNK     1      18.548   1.769  31.897  1.00  0.00     0.304 A 
HETATM   11  C9  UNK     1      18.771   6.569  31.263  1.00  0.00     0.039 A 
ENDROOT
BRANCH   5  12
HETATM   12  C10 UNK     1      17.857   0.897  34.223  1.00  0.00     0.276 C 
HETATM   13  O3  UNK     1      16.807   0.261  34.149  1.00  0.00    -0.266 OA
HETATM   14  N1  UNK     1      18.880   0.693  35.132  1.00  0.00    -0.257 N 
HETATM   15  H5  UNK     1      19.745   1.223  35.149  1.00  0.00     0.191 HD
BRANCH  14  16
HETATM   16  N2  UNK     1      18.777  -0.301  36.065  1.00  0.00    -0.237 N 
HETATM   17  C11 UNK     1      18.075  -0.245  37.210  1.00  0.00     0.258 A 
HETATM   18  N4  UNK     1      18.210  -1.387  37.844  1.00  0.00    -0.142 NA
HETATM   19  N5  UNK     1      19.025  -2.195  37.075  1.00  0.00    -0.142 NA
HETATM   20  C12 UNK     1      19.355  -1.513  36.002  1.00  0.00     0.258 A 
ENDBRANCH  14  16
ENDBRANCH   5  12
BRANCH   8  21
HETATM   21  N3  UNK     1      18.251   8.114  33.076  1.00  0.00    -0.116 N 
HETATM   22  O4  UNK     1      19.088   8.541  33.908  1.00  0.00    -0.532 OA
HETATM   23  O5  UNK     1      17.303   8.822  32.662  1.00  0.00    -0.532 OA
ENDBRANCH   8  21
TORSDOF 3
ENDMDL
MODEL 8
REMARK VINA RESULT:      -7.9      7.796     10.677
REMARK  3 active torsions:
REMARK  status: ('A' for Active; 'I' for Inactive)
REMARK       I    between atoms: C10_20  and  N1_6 
REMARK    1  A    between atoms: N1_6  and  N2_7 
REMARK    2  A    between atoms: C6_16  and  N3_8 
REMARK    3  A    between atoms: C10_20  and  C3_13 
ROOT
HETATM    1  O1  UNK     1      18.843  -8.373  37.083  1.00  0.00    -0.274 OA
HETATM    2  O2  UNK     1      17.681  -6.440  37.445  1.00  0.00    -0.259 OA
HETATM    3  C1  UNK     1      21.227  -8.270  36.616  1.00  0.00     0.001 A 
HETATM    4  C2  UNK     1      20.065  -9.014  36.797  1.00  0.00     0.089 A 
HETATM    5  C3  UNK     1      19.997  -6.219  36.999  1.00  0.00     0.110 A 
HETATM    6  C4  UNK     1      21.160  -6.822  36.726  1.00  0.00     0.037 A 
HETATM    7  C5  UNK     1      22.419  -8.942  36.334  1.00  0.00     0.050 A 
HETATM    8  C6  UNK     1      22.430 -10.337  36.237  1.00  0.00     0.103 A 
HETATM    9  C7  UNK     1      20.060 -10.404  36.703  1.00  0.00     0.041 A 
HETATM   10  C8  UNK     1      18.748  -6.989  37.195  1.00  0.00     0.304 A 
HETATM   11  C9  UNK     1      21.253 -11.066  36.421  1.00  0.00     0.039 A 
ENDROOT
BRANCH   5  12
HETATM   12  C10 UNK     1      20.032  -4.755  37.091  1.00  0.00     0.276 C 
HETATM   13  O3  UNK     1      20.785  -4.188  37.880  1.00  0.00    -0.266 OA
HETATM   14  N1  UNK     1      19.148  -4.148  36.217  1.00  0.00    -0.257 N 
HETATM   15  H5  UNK     1      18.557  -4.648  35.560  1.00  0.00     0.191 HD
BRANCH  14  16
HETATM   16  N2  UNK     1      19.055  -2.785  36.175  1.00  0.00    -0.237 N 
HETATM   17  C11 UNK     1      19.795  -1.962  35.413  1.00  0.00     0.258 A 
HETATM   18  N4  UNK     1      19.420  -0.724  35.639  1.00  0.00    -0.142 NA
HETATM   19  N5  UNK     1      18.406  -0.763  36.577  1.00  0.00    -0.142 NA
HETATM   20  C12 UNK     1      18.204  -2.024  36.885  1.00  0.00     0.258 A 
ENDBRANCH  14  16
ENDBRANCH   5  12
BRANCH   8  21
HETATM   21  N3  UNK     1      23.644 -11.016  35.951  1.00  0.00    -0.116 N 
HETATM   22  O4  UNK     1      23.599 -12.104  35.327  1.00  0.00    -0.532 OA
HETATM   23  O5  UNK     1      24.728 -10.509  36.327  1.00  0.00    -0.532 OA
ENDBRANCH   8  21
TORSDOF 3
ENDMDL
MODEL 9
REMARK VINA RESULT:      -7.8     13.972     15.719
REMARK  3 active torsions:
REMARK  status: ('A' for Active; 'I' for Inactive)
REMARK       I    between atoms: C10_20  and  N1_6 
REMARK    1  A    between atoms: N1_6  and  N2_7 
REMARK    2  A    between atoms: C6_16  and  N3_8 
REMARK    3  A    between atoms: C10_20  and  C3_13 
ROOT
HETATM    1  O1  UNK     1      16.970  -3.693  15.779  1.00  0.00    -0.274 OA
HETATM    2  O2  UNK     1      16.279  -1.861  16.956  1.00  0.00    -0.259 OA
HETATM    3  C1  UNK     1      19.295  -3.870  15.091  1.00  0.00     0.001 A 
HETATM    4  C2  UNK     1      18.007  -4.394  15.132  1.00  0.00     0.089 A 
HETATM    5  C3  UNK     1      18.565  -1.926  16.339  1.00  0.00     0.110 A 
HETATM    6  C4  UNK     1      19.554  -2.587  15.725  1.00  0.00     0.037 A 
HETATM    7  C5  UNK     1      20.297  -4.595  14.441  1.00  0.00     0.050 A 
HETATM    8  C6  UNK     1      19.997  -5.824  13.845  1.00  0.00     0.103 A 
HETATM    9  C7  UNK     1      17.692  -5.617  14.543  1.00  0.00     0.041 A 
HETATM   10  C8  UNK     1      17.187  -2.464  16.395  1.00  0.00     0.304 A 
HETATM   11  C9  UNK     1      18.697  -6.333  13.897  1.00  0.00     0.039 A 
ENDROOT
BRANCH   5  12
HETATM   12  C10 UNK     1      18.925  -0.641  16.949  1.00  0.00     0.276 C 
HETATM   13  O3  UNK     1      19.232   0.326  16.253  1.00  0.00    -0.266 OA
HETATM   14  N1  UNK     1      18.874  -0.678  18.331  1.00  0.00    -0.257 N 
HETATM   15  H5  UNK     1      18.592  -1.489  18.873  1.00  0.00     0.191 HD
BRANCH  14  16
HETATM   16  N2  UNK     1      19.181   0.439  19.056  1.00  0.00    -0.237 N 
HETATM   17  C11 UNK     1      20.102   0.524  20.031  1.00  0.00     0.258 A 
HETATM   18  N4  UNK     1      20.118   1.754  20.492  1.00  0.00    -0.142 NA
HETATM   19  N5  UNK     1      19.176   2.474  19.784  1.00  0.00    -0.142 NA
HETATM   20  C12 UNK     1      18.622   1.655  18.919  1.00  0.00     0.258 A 
ENDBRANCH  14  16
ENDBRANCH   5  12
BRANCH   8  21
HETATM   21  N3  UNK     1      21.018  -6.558  13.186  1.00  0.00    -0.116 N 
HETATM   22  O4  UNK     1      21.225  -6.348  11.966  1.00  0.00    -0.532 OA
HETATM   23  O5  UNK     1      21.686  -7.394  13.840  1.00  0.00    -0.532 OA
ENDBRANCH   8  21
TORSDOF 3
ENDMDL
MODEL 10
REMARK VINA RESULT:      -7.8      2.327      3.494
REMARK  3 active torsions:
REMARK  status: ('A' for Active; 'I' for Inactive)
REMARK       I    between atoms: C10_20  and  N1_6 
REMARK    1  A    between atoms: N1_6  and  N2_7 
REMARK    2  A    between atoms: C6_16  and  N3_8 
REMARK    3  A    between atoms: C10_20  and  C3_13 
ROOT
HETATM    1  O1  UNK     1      18.452   2.272  33.191  1.00  0.00    -0.274 OA
HETATM    2  O2  UNK     1      17.875   4.200  34.272  1.00  0.00    -0.259 OA
HETATM    3  C1  UNK     1      18.883   2.320  30.800  1.00  0.00     0.001 A 
HETATM    4  C2  UNK     1      18.802   1.614  31.996  1.00  0.00     0.089 A 
HETATM    5  C3  UNK     1      18.271   4.366  31.942  1.00  0.00     0.110 A 
HETATM    6  C4  UNK     1      18.602   3.747  30.803  1.00  0.00     0.037 A 
HETATM    7  C5  UNK     1      19.233   1.633  29.635  1.00  0.00     0.050 A 
HETATM    8  C6  UNK     1      19.493   0.259  29.684  1.00  0.00     0.103 A 
HETATM    9  C7  UNK     1      19.057   0.246  32.061  1.00  0.00     0.041 A 
HETATM   10  C8  UNK     1      18.178   3.636  33.227  1.00  0.00     0.304 A 
HETATM   11  C9  UNK     1      19.405  -0.432  30.895  1.00  0.00     0.039 A 
ENDROOT
BRANCH   5  12
HETATM   12  C10 UNK     1      18.006   5.806  31.844  1.00  0.00     0.276 C 
HETATM   13  O3  UNK     1      18.733   6.539  31.175  1.00  0.00    -0.266 OA
HETATM   14  N1  UNK     1      16.893   6.191  32.569  1.00  0.00    -0.257 N 
HETATM   15  H5  UNK     1      16.300   5.553  33.091  1.00  0.00     0.191 HD
BRANCH  14  16
HETATM   16  N2  UNK     1      16.507   7.502  32.584  1.00  0.00    -0.237 N 
HETATM   17  C11 UNK     1      16.980   8.460  33.400  1.00  0.00     0.258 A 
HETATM   18  N4  UNK     1      16.376   9.592  33.118  1.00  0.00    -0.142 NA
HETATM   19  N5  UNK     1      15.491   9.343  32.087  1.00  0.00    -0.142 NA
HETATM   20  C12 UNK     1      15.590   8.070  31.781  1.00  0.00     0.258 A 
ENDBRANCH  14  16
ENDBRANCH   5  12
BRANCH   8  21
HETATM   21  N3  UNK     1      19.849  -0.435  28.497  1.00  0.00    -0.116 N 
HETATM   22  O4  UNK     1      21.014  -0.886  28.384  1.00  0.00    -0.532 OA
HETATM   23  O5  UNK     1      18.988  -0.582  27.597  1.00  0.00    -0.532 OA
ENDBRANCH   8  21
TORSDOF 3
ENDMDL
