MODEL 1
REMARK VINA RESULT:      -7.5      0.000      0.000
REMARK  4 active torsions:
REMARK  status: ('A' for Active; 'I' for Inactive)
REMARK    1  A    between atoms: C12_19  and  O3_4 
REMARK    2  A    between atoms: C7_14  and  N1_7 
REMARK    3  A    between atoms: C1_8  and  C5_12 
REMARK    4  A    between atoms: C12_19  and  C3_10 
ROOT
HETATM    1  O1  UNK     1      30.480  -5.423  34.421  1.00  0.00    -0.292 OA
HETATM    2  O2  UNK     1      28.495  -8.881  33.148  1.00  0.00    -0.274 OA
HETATM    3  O4  UNK     1      28.993  -9.900  35.126  1.00  0.00    -0.259 OA
HETATM    4  C1  UNK     1      30.300  -7.606  36.278  1.00  0.00     0.104 C 
HETATM    5  C2  UNK     1      29.718  -7.649  34.877  1.00  0.00     0.066 A 
HETATM    6  C3  UNK     1      31.180  -6.385  36.484  1.00  0.00     0.081 C 
HETATM    7  C4  UNK     1      29.826  -6.589  34.061  1.00  0.00     0.104 A 
HETATM    8  C6  UNK     1      29.243  -6.604  32.722  1.00  0.00     0.033 A 
HETATM    9  C7  UNK     1      31.233  -5.371  35.595  1.00  0.00     0.155 C 
HETATM   10  C8  UNK     1      29.054  -8.898  34.421  1.00  0.00     0.298 A 
HETATM   11  C9  UNK     1      28.584  -7.757  32.303  1.00  0.00     0.092 A 
HETATM   12  C13 UNK     1      29.304  -5.521  31.836  1.00  0.00     0.017 A 
HETATM   13  C14 UNK     1      27.992  -7.857  31.045  1.00  0.00     0.038 A 
HETATM   14  C17 UNK     1      28.716  -5.607  30.570  1.00  0.00     0.001 A 
HETATM   15  C19 UNK     1      28.060  -6.773  30.175  1.00  0.00     0.003 A 
ENDROOT
BRANCH   4  16
HETATM   16  C5  UNK     1      29.202  -7.633  37.301  1.00  0.00    -0.043 A 
HETATM   17  C10 UNK     1      29.090  -8.718  38.162  1.00  0.00     0.027 A 
HETATM   18  C15 UNK     1      28.070  -8.742  39.114  1.00  0.00     0.011 A 
HETATM   19 Br1  UNK     1      27.910 -10.211  40.292  1.00  0.00    -0.051 Br
HETATM   20  C18 UNK     1      27.170  -7.680  39.198  1.00  0.00     0.019 A 
HETATM   21  C16 UNK     1      27.288  -6.595  38.330  1.00  0.00     0.002 A 
HETATM   22  C11 UNK     1      28.308  -6.571  37.378  1.00  0.00     0.008 A 
ENDBRANCH   4  16
BRANCH   6  23
HETATM   23  C12 UNK     1      32.006  -6.372  37.705  1.00  0.00     0.294 C 
HETATM   24  O5  UNK     1      31.949  -5.490  38.540  1.00  0.00    -0.259 OA
BRANCH  23  25
HETATM   25  O3  UNK     1      32.791  -7.476  37.700  1.00  0.00    -0.323 OA
HETATM   26  C20 UNK     1      34.088  -7.295  37.124  1.00  0.00     0.213 C 
ENDBRANCH  23  25
ENDBRANCH   6  23
BRANCH   9  27
HETATM   27  N1  UNK     1      31.981  -4.233  35.706  1.00  0.00    -0.379 N 
HETATM   28  H7  UNK     1      32.414  -4.016  36.594  1.00  0.00     0.158 HD
HETATM   29  H8  UNK     1      32.100  -3.614  34.914  1.00  0.00     0.158 HD
ENDBRANCH   9  27
TORSDOF 4
ENDMDL
MODEL 2
REMARK VINA RESULT:      -7.4      1.532      2.175
REMARK  4 active torsions:
REMARK  status: ('A' for Active; 'I' for Inactive)
REMARK    1  A    between atoms: C12_19  and  O3_4 
REMARK    2  A    between atoms: C7_14  and  N1_7 
REMARK    3  A    between atoms: C1_8  and  C5_12 
REMARK    4  A    between atoms: C12_19  and  C3_10 
ROOT
HETATM    1  O1  UNK     1      30.339  -5.845  33.662  1.00  0.00    -0.292 OA
HETATM    2  O2  UNK     1      29.165  -9.656  32.392  1.00  0.00    -0.274 OA
HETATM    3  O4  UNK     1      30.581 -10.602  33.908  1.00  0.00    -0.259 OA
HETATM    4  C1  UNK     1      31.455  -8.104  35.041  1.00  0.00     0.104 C 
HETATM    5  C2  UNK     1      30.475  -8.227  33.890  1.00  0.00     0.066 A 
HETATM    6  C3  UNK     1      31.948  -6.676  35.210  1.00  0.00     0.081 C 
HETATM    7  C4  UNK     1      29.980  -7.131  33.295  1.00  0.00     0.104 A 
HETATM    8  C6  UNK     1      29.011  -7.234  32.207  1.00  0.00     0.033 A 
HETATM    9  C7  UNK     1      31.393  -5.635  34.553  1.00  0.00     0.155 C 
HETATM   10  C8  UNK     1      30.099  -9.586  33.419  1.00  0.00     0.298 A 
HETATM   11  C9  UNK     1      28.624  -8.504  31.788  1.00  0.00     0.092 A 
HETATM   12  C13 UNK     1      28.445  -6.127  31.564  1.00  0.00     0.017 A 
HETATM   13  C14 UNK     1      27.700  -8.697  30.762  1.00  0.00     0.038 A 
HETATM   14  C17 UNK     1      27.517  -6.304  30.532  1.00  0.00     0.001 A 
HETATM   15  C19 UNK     1      27.144  -7.587  30.132  1.00  0.00     0.003 A 
ENDROOT
BRANCH   4  16
HETATM   16  C5  UNK     1      30.829  -8.590  36.316  1.00  0.00    -0.043 A 
HETATM   17  C10 UNK     1      29.608  -8.068  36.726  1.00  0.00     0.027 A 
HETATM   18  C15 UNK     1      29.026  -8.521  37.910  1.00  0.00     0.011 A 
HETATM   19 Br1  UNK     1      27.365  -7.820  38.477  1.00  0.00    -0.051 Br
HETATM   20  C18 UNK     1      29.669  -9.494  38.675  1.00  0.00     0.019 A 
HETATM   21  C16 UNK     1      30.894 -10.013  38.257  1.00  0.00     0.002 A 
HETATM   22  C11 UNK     1      31.476  -9.560  37.073  1.00  0.00     0.008 A 
ENDBRANCH   4  16
BRANCH   6  23
HETATM   23  C12 UNK     1      33.095  -6.481  36.116  1.00  0.00     0.294 C 
HETATM   24  O5  UNK     1      34.119  -7.133  36.044  1.00  0.00    -0.259 OA
BRANCH  23  25
HETATM   25  O3  UNK     1      32.787  -5.490  36.985  1.00  0.00    -0.323 OA
HETATM   26  C20 UNK     1      32.301  -5.929  38.257  1.00  0.00     0.213 C 
ENDBRANCH  23  25
ENDBRANCH   6  23
BRANCH   9  27
HETATM   27  N1  UNK     1      31.760  -4.323  34.655  1.00  0.00    -0.379 N 
HETATM   28  H7  UNK     1      31.871  -3.915  35.574  1.00  0.00     0.158 HD
HETATM   29  H8  UNK     1      31.918  -3.766  33.825  1.00  0.00     0.158 HD
ENDBRANCH   9  27
TORSDOF 4
ENDMDL
MODEL 3
REMARK VINA RESULT:      -7.4      2.967      6.061
REMARK  4 active torsions:
REMARK  status: ('A' for Active; 'I' for Inactive)
REMARK    1  A    between atoms: C12_19  and  O3_4 
REMARK    2  A    between atoms: C7_14  and  N1_7 
REMARK    3  A    between atoms: C1_8  and  C5_12 
REMARK    4  A    between atoms: C12_19  and  C3_10 
ROOT
HETATM    1  O1  UNK     1      28.004  -7.033  35.497  1.00  0.00    -0.292 OA
HETATM    2  O2  UNK     1      30.092  -9.683  37.974  1.00  0.00    -0.274 OA
HETATM    3  O4  UNK     1      31.891  -9.576  36.578  1.00  0.00    -0.259 OA
HETATM    4  C1  UNK     1      30.718  -7.651  34.788  1.00  0.00     0.104 C 
HETATM    5  C2  UNK     1      30.017  -8.233  36.001  1.00  0.00     0.066 A 
HETATM    6  C3  UNK     1      29.750  -6.908  33.882  1.00  0.00     0.081 C 
HETATM    7  C4  UNK     1      28.749  -7.895  36.284  1.00  0.00     0.104 A 
HETATM    8  C6  UNK     1      28.073  -8.423  37.466  1.00  0.00     0.033 A 
HETATM    9  C7  UNK     1      28.483  -6.625  34.251  1.00  0.00     0.155 C 
HETATM   10  C8  UNK     1      30.753  -9.207  36.848  1.00  0.00     0.298 A 
HETATM   11  C9  UNK     1      28.771  -9.304  38.287  1.00  0.00     0.092 A 
HETATM   12  C13 UNK     1      26.761  -8.088  37.824  1.00  0.00     0.017 A 
HETATM   13  C14 UNK     1      28.207  -9.852  39.438  1.00  0.00     0.038 A 
HETATM   14  C17 UNK     1      26.180  -8.630  38.976  1.00  0.00     0.001 A 
HETATM   15  C19 UNK     1      26.903  -9.509  39.782  1.00  0.00     0.003 A 
ENDROOT
BRANCH   4  16
HETATM   16  C5  UNK     1      31.831  -6.739  35.215  1.00  0.00    -0.043 A 
HETATM   17  C10 UNK     1      33.144  -7.057  34.889  1.00  0.00     0.027 A 
HETATM   18  C15 UNK     1      34.179  -6.209  35.285  1.00  0.00     0.011 A 
HETATM   19 Br1  UNK     1      35.968  -6.630  34.845  1.00  0.00    -0.051 Br
HETATM   20  C18 UNK     1      33.892  -5.049  36.004  1.00  0.00     0.019 A 
HETATM   21  C16 UNK     1      32.573  -4.737  36.328  1.00  0.00     0.002 A 
HETATM   22  C11 UNK     1      31.538  -5.585  35.932  1.00  0.00     0.008 A 
ENDBRANCH   4  16
BRANCH   6  23
HETATM   23  C12 UNK     1      30.258  -6.530  32.551  1.00  0.00     0.294 C 
HETATM   24  O5  UNK     1      30.686  -7.335  31.747  1.00  0.00    -0.259 OA
BRANCH  23  25
HETATM   25  O3  UNK     1      30.154  -5.186  32.421  1.00  0.00    -0.323 OA
HETATM   26  C20 UNK     1      29.869  -4.725  31.097  1.00  0.00     0.213 C 
ENDBRANCH  23  25
ENDBRANCH   6  23
BRANCH   9  27
HETATM   27  N1  UNK     1      27.553  -5.951  33.510  1.00  0.00    -0.379 N 
HETATM   28  H7  UNK     1      27.643  -4.949  33.405  1.00  0.00     0.158 HD
HETATM   29  H8  UNK     1      26.785  -6.445  33.075  1.00  0.00     0.158 HD
ENDBRANCH   9  27
TORSDOF 4
ENDMDL
MODEL 4
REMARK VINA RESULT:      -7.3      3.044      5.762
REMARK  4 active torsions:
REMARK  status: ('A' for Active; 'I' for Inactive)
REMARK    1  A    between atoms: C12_19  and  O3_4 
REMARK    2  A    between atoms: C7_14  and  N1_7 
REMARK    3  A    between atoms: C1_8  and  C5_12 
REMARK    4  A    between atoms: C12_19  and  C3_10 
ROOT
HETATM    1  O1  UNK     1      30.880  -7.300  38.176  1.00  0.00    -0.292 OA
HETATM    2  O2  UNK     1      27.172  -8.018  36.372  1.00  0.00    -0.274 OA
HETATM    3  O4  UNK     1      27.619  -6.421  34.807  1.00  0.00    -0.259 OA
HETATM    4  C1  UNK     1      30.263  -5.833  35.785  1.00  0.00     0.104 C 
HETATM    5  C2  UNK     1      29.320  -6.840  36.415  1.00  0.00     0.066 A 
HETATM    6  C3  UNK     1      31.445  -5.526  36.690  1.00  0.00     0.081 C 
HETATM    7  C4  UNK     1      29.673  -7.503  37.527  1.00  0.00     0.104 A 
HETATM    8  C6  UNK     1      28.789  -8.499  38.126  1.00  0.00     0.033 A 
HETATM    9  C7  UNK     1      31.712  -6.243  37.802  1.00  0.00     0.155 C 
HETATM   10  C8  UNK     1      27.989  -7.055  35.790  1.00  0.00     0.298 A 
HETATM   11  C9  UNK     1      27.556  -8.734  37.523  1.00  0.00     0.092 A 
HETATM   12  C13 UNK     1      29.113  -9.236  39.272  1.00  0.00     0.017 A 
HETATM   13  C14 UNK     1      26.653  -9.671  38.022  1.00  0.00     0.038 A 
HETATM   14  C17 UNK     1      28.217 -10.179  39.785  1.00  0.00     0.001 A 
HETATM   15  C19 UNK     1      26.988 -10.397  39.161  1.00  0.00     0.003 A 
ENDROOT
BRANCH   4  16
HETATM   16  C5  UNK     1      30.746  -6.330  34.453  1.00  0.00    -0.043 A 
HETATM   17  C10 UNK     1      30.311  -5.710  33.288  1.00  0.00     0.027 A 
HETATM   18  C15 UNK     1      30.761  -6.171  32.051  1.00  0.00     0.011 A 
HETATM   19 Br1  UNK     1      30.176  -5.334  30.460  1.00  0.00    -0.051 Br
HETATM   20  C18 UNK     1      31.644  -7.249  31.988  1.00  0.00     0.019 A 
HETATM   21  C16 UNK     1      32.076  -7.866  33.161  1.00  0.00     0.002 A 
HETATM   22  C11 UNK     1      31.626  -7.405  34.398  1.00  0.00     0.008 A 
ENDBRANCH   4  16
BRANCH   6  23
HETATM   23  C12 UNK     1      32.281  -4.374  36.307  1.00  0.00     0.294 C 
HETATM   24  O5  UNK     1      31.865  -3.232  36.263  1.00  0.00    -0.259 OA
BRANCH  23  25
HETATM   25  O3  UNK     1      33.528  -4.825  36.033  1.00  0.00    -0.323 OA
HETATM   26  C20 UNK     1      34.026  -4.483  34.736  1.00  0.00     0.213 C 
ENDBRANCH  23  25
ENDBRANCH   6  23
BRANCH   9  27
HETATM   27  N1  UNK     1      32.756  -6.048  38.662  1.00  0.00    -0.379 N 
HETATM   28  H7  UNK     1      32.666  -5.354  39.392  1.00  0.00     0.158 HD
HETATM   29  H8  UNK     1      33.607  -6.587  38.570  1.00  0.00     0.158 HD
ENDBRANCH   9  27
TORSDOF 4
ENDMDL
MODEL 5
REMARK VINA RESULT:      -7.3      3.249      5.660
REMARK  4 active torsions:
REMARK  status: ('A' for Active; 'I' for Inactive)
REMARK    1  A    between atoms: C12_19  and  O3_4 
REMARK    2  A    between atoms: C7_14  and  N1_7 
REMARK    3  A    between atoms: C1_8  and  C5_12 
REMARK    4  A    between atoms: C12_19  and  C3_10 
ROOT
HETATM    1  O1  UNK     1      31.221  -6.509  38.059  1.00  0.00    -0.292 OA
HETATM    2  O2  UNK     1      28.066  -7.372  35.448  1.00  0.00    -0.274 OA
HETATM    3  O4  UNK     1      29.326  -6.663  33.685  1.00  0.00    -0.259 OA
HETATM    4  C1  UNK     1      31.677  -6.109  35.252  1.00  0.00     0.104 C 
HETATM    5  C2  UNK     1      30.364  -6.611  35.823  1.00  0.00     0.066 A 
HETATM    6  C3  UNK     1      32.617  -5.626  36.343  1.00  0.00     0.081 C 
HETATM    7  C4  UNK     1      30.219  -6.788  37.145  1.00  0.00     0.104 A 
HETATM    8  C6  UNK     1      28.971  -7.300  37.706  1.00  0.00     0.033 A 
HETATM    9  C7  UNK     1      32.378  -5.839  37.655  1.00  0.00     0.155 C 
HETATM   10  C8  UNK     1      29.237  -6.872  34.890  1.00  0.00     0.298 A 
HETATM   11  C9  UNK     1      27.924  -7.585  36.833  1.00  0.00     0.092 A 
HETATM   12  C13 UNK     1      28.770  -7.526  39.073  1.00  0.00     0.017 A 
HETATM   13  C14 UNK     1      26.701  -8.084  37.279  1.00  0.00     0.038 A 
HETATM   14  C17 UNK     1      27.548  -8.025  39.537  1.00  0.00     0.001 A 
HETATM   15  C19 UNK     1      26.515  -8.305  38.641  1.00  0.00     0.003 A 
ENDROOT
BRANCH   4  16
HETATM   16  C5  UNK     1      32.338  -7.184  34.438  1.00  0.00    -0.043 A 
HETATM   17  C10 UNK     1      32.618  -6.957  33.096  1.00  0.00     0.027 A 
HETATM   18  C15 UNK     1      33.233  -7.955  32.340  1.00  0.00     0.011 A 
HETATM   19 Br1  UNK     1      33.620  -7.656  30.514  1.00  0.00    -0.051 Br
HETATM   20  C18 UNK     1      33.564  -9.174  32.933  1.00  0.00     0.019 A 
HETATM   21  C16 UNK     1      33.280  -9.395  34.279  1.00  0.00     0.002 A 
HETATM   22  C11 UNK     1      32.664  -8.396  35.035  1.00  0.00     0.008 A 
ENDBRANCH   4  16
BRANCH   6  23
HETATM   23  C12 UNK     1      33.807  -4.876  35.899  1.00  0.00     0.294 C 
HETATM   24  O5  UNK     1      33.749  -3.903  35.173  1.00  0.00    -0.259 OA
BRANCH  23  25
HETATM   25  O3  UNK     1      34.904  -5.461  36.435  1.00  0.00    -0.323 OA
HETATM   26  C20 UNK     1      35.682  -6.240  35.521  1.00  0.00     0.213 C 
ENDBRANCH  23  25
ENDBRANCH   6  23
BRANCH   9  27
HETATM   27  N1  UNK     1      33.171  -5.455  38.698  1.00  0.00    -0.379 N 
HETATM   28  H7  UNK     1      33.754  -6.147  39.151  1.00  0.00     0.158 HD
HETATM   29  H8  UNK     1      33.176  -4.495  39.015  1.00  0.00     0.158 HD
ENDBRANCH   9  27
TORSDOF 4
ENDMDL
MODEL 6
REMARK VINA RESULT:      -7.3      2.850      3.865
REMARK  4 active torsions:
REMARK  status: ('A' for Active; 'I' for Inactive)
REMARK    1  A    between atoms: C12_19  and  O3_4 
REMARK    2  A    between atoms: C7_14  and  N1_7 
REMARK    3  A    between atoms: C1_8  and  C5_12 
REMARK    4  A    between atoms: C12_19  and  C3_10 
ROOT
HETATM    1  O1  UNK     1      33.272  -7.844  33.143  1.00  0.00    -0.292 OA
HETATM    2  O2  UNK     1      29.470  -6.563  31.952  1.00  0.00    -0.274 OA
HETATM    3  O4  UNK     1      28.811  -6.476  34.133  1.00  0.00    -0.259 OA
HETATM    4  C1  UNK     1      31.377  -7.221  35.209  1.00  0.00     0.104 C 
HETATM    5  C2  UNK     1      31.067  -7.109  33.728  1.00  0.00     0.066 A 
HETATM    6  C3  UNK     1      32.703  -7.919  35.455  1.00  0.00     0.081 C 
HETATM    7  C4  UNK     1      32.002  -7.405  32.811  1.00  0.00     0.104 A 
HETATM    8  C6  UNK     1      31.728  -7.271  31.383  1.00  0.00     0.033 A 
HETATM    9  C7  UNK     1      33.577  -8.189  34.461  1.00  0.00     0.155 C 
HETATM   10  C8  UNK     1      29.700  -6.695  33.316  1.00  0.00     0.298 A 
HETATM   11  C9  UNK     1      30.461  -6.845  30.991  1.00  0.00     0.092 A 
HETATM   12  C13 UNK     1      32.670  -7.543  30.383  1.00  0.00     0.017 A 
HETATM   13  C14 UNK     1      30.114  -6.683  29.651  1.00  0.00     0.038 A 
HETATM   14  C17 UNK     1      32.337  -7.386  29.033  1.00  0.00     0.001 A 
HETATM   15  C19 UNK     1      31.061  -6.956  28.668  1.00  0.00     0.003 A 
ENDROOT
BRANCH   4  16
HETATM   16  C5  UNK     1      31.380  -5.861  35.846  1.00  0.00    -0.043 A 
HETATM   17  C10 UNK     1      30.573  -5.617  36.950  1.00  0.00     0.027 A 
HETATM   18  C15 UNK     1      30.577  -4.354  37.543  1.00  0.00     0.011 A 
HETATM   19 Br1  UNK     1      29.484  -4.010  39.046  1.00  0.00    -0.051 Br
HETATM   20  C18 UNK     1      31.391  -3.345  37.027  1.00  0.00     0.019 A 
HETATM   21  C16 UNK     1      32.198  -3.598  35.919  1.00  0.00     0.002 A 
HETATM   22  C11 UNK     1      32.193  -4.861  35.326  1.00  0.00     0.008 A 
ENDBRANCH   4  16
BRANCH   6  23
HETATM   23  C12 UNK     1      32.984  -8.321  36.845  1.00  0.00     0.294 C 
HETATM   24  O5  UNK     1      33.816  -7.773  37.542  1.00  0.00    -0.259 OA
BRANCH  23  25
HETATM   25  O3  UNK     1      32.174  -9.359  37.161  1.00  0.00    -0.323 OA
HETATM   26  C20 UNK     1      31.358  -9.159  38.319  1.00  0.00     0.213 C 
ENDBRANCH  23  25
ENDBRANCH   6  23
BRANCH   9  27
HETATM   27  N1  UNK     1      34.793  -8.796  34.593  1.00  0.00    -0.379 N 
HETATM   28  H7  UNK     1      35.528  -8.318  35.097  1.00  0.00     0.158 HD
HETATM   29  H8  UNK     1      34.959  -9.710  34.190  1.00  0.00     0.158 HD
ENDBRANCH   9  27
TORSDOF 4
ENDMDL
MODEL 7
REMARK VINA RESULT:      -7.2      2.777      5.389
REMARK  4 active torsions:
REMARK  status: ('A' for Active; 'I' for Inactive)
REMARK    1  A    between atoms: C12_19  and  O3_4 
REMARK    2  A    between atoms: C7_14  and  N1_7 
REMARK    3  A    between atoms: C1_8  and  C5_12 
REMARK    4  A    between atoms: C12_19  and  C3_10 
ROOT
HETATM    1  O1  UNK     1      30.782  -6.845  38.109  1.00  0.00    -0.292 OA
HETATM    2  O2  UNK     1      27.268  -7.417  35.909  1.00  0.00    -0.274 OA
HETATM    3  O4  UNK     1      28.195  -6.325  34.135  1.00  0.00    -0.259 OA
HETATM    4  C1  UNK     1      30.754  -5.918  35.390  1.00  0.00     0.104 C 
HETATM    5  C2  UNK     1      29.571  -6.595  36.056  1.00  0.00     0.066 A 
HETATM    6  C3  UNK     1      31.846  -5.582  36.392  1.00  0.00     0.081 C 
HETATM    7  C4  UNK     1      29.652  -7.016  37.327  1.00  0.00     0.104 A 
HETATM    8  C6  UNK     1      28.531  -7.698  37.970  1.00  0.00     0.033 A 
HETATM    9  C7  UNK     1      31.834  -6.043  37.661  1.00  0.00     0.155 C 
HETATM   10  C8  UNK     1      28.314  -6.753  35.279  1.00  0.00     0.298 A 
HETATM   11  C9  UNK     1      27.364  -7.886  37.234  1.00  0.00     0.092 A 
HETATM   12  C13 UNK     1      28.566  -8.179  39.285  1.00  0.00     0.017 A 
HETATM   13  C14 UNK     1      26.248  -8.531  37.765  1.00  0.00     0.038 A 
HETATM   14  C17 UNK     1      27.455  -8.828  39.832  1.00  0.00     0.001 A 
HETATM   15  C19 UNK     1      26.298  -9.005  39.073  1.00  0.00     0.003 A 
ENDROOT
BRANCH   4  16
HETATM   16  C5  UNK     1      31.305  -6.785  34.295  1.00  0.00    -0.043 A 
HETATM   17  C10 UNK     1      31.638  -8.107  34.566  1.00  0.00     0.027 A 
HETATM   18  C15 UNK     1      32.149  -8.913  33.547  1.00  0.00     0.011 A 
HETATM   19 Br1  UNK     1      32.604 -10.712  33.904  1.00  0.00    -0.051 Br
HETATM   20  C18 UNK     1      32.321  -8.390  32.266  1.00  0.00     0.019 A 
HETATM   21  C16 UNK     1      31.985  -7.063  32.002  1.00  0.00     0.002 A 
HETATM   22  C11 UNK     1      31.475  -6.257  33.020  1.00  0.00     0.008 A 
ENDBRANCH   4  16
BRANCH   6  23
HETATM   23  C12 UNK     1      32.921  -4.692  35.916  1.00  0.00     0.294 C 
HETATM   24  O5  UNK     1      32.727  -3.549  35.548  1.00  0.00    -0.259 OA
BRANCH  23  25
HETATM   25  O3  UNK     1      34.091  -5.370  35.972  1.00  0.00    -0.323 OA
HETATM   26  C20 UNK     1      34.764  -5.521  34.718  1.00  0.00     0.213 C 
ENDBRANCH  23  25
ENDBRANCH   6  23
BRANCH   9  27
HETATM   27  N1  UNK     1      32.776  -5.805  38.621  1.00  0.00    -0.379 N 
HETATM   28  H7  UNK     1      33.728  -6.107  38.459  1.00  0.00     0.158 HD
HETATM   29  H8  UNK     1      32.528  -5.335  39.482  1.00  0.00     0.158 HD
ENDBRANCH   9  27
TORSDOF 4
ENDMDL
MODEL 8
REMARK VINA RESULT:      -7.2      3.199      5.024
REMARK  4 active torsions:
REMARK  status: ('A' for Active; 'I' for Inactive)
REMARK    1  A    between atoms: C12_19  and  O3_4 
REMARK    2  A    between atoms: C7_14  and  N1_7 
REMARK    3  A    between atoms: C1_8  and  C5_12 
REMARK    4  A    between atoms: C12_19  and  C3_10 
ROOT
HETATM    1  O1  UNK     1      30.091  -8.712  33.819  1.00  0.00    -0.292 OA
HETATM    2  O2  UNK     1      30.020  -5.939  30.685  1.00  0.00    -0.274 OA
HETATM    3  O4  UNK     1      30.425  -4.251  32.164  1.00  0.00    -0.259 OA
HETATM    4  C1  UNK     1      30.647  -5.969  34.464  1.00  0.00     0.104 C 
HETATM    5  C2  UNK     1      30.333  -6.451  33.060  1.00  0.00     0.066 A 
HETATM    6  C3  UNK     1      30.398  -7.052  35.500  1.00  0.00     0.081 C 
HETATM    7  C4  UNK     1      30.093  -7.750  32.823  1.00  0.00     0.104 A 
HETATM    8  C6  UNK     1      29.820  -8.234  31.472  1.00  0.00     0.033 A 
HETATM    9  C7  UNK     1      30.149  -8.336  35.162  1.00  0.00     0.155 C 
HETATM   10  C8  UNK     1      30.267  -5.451  31.963  1.00  0.00     0.298 A 
HETATM   11  C9  UNK     1      29.798  -7.307  30.432  1.00  0.00     0.092 A 
HETATM   12  C13 UNK     1      29.586  -9.578  31.161  1.00  0.00     0.017 A 
HETATM   13  C14 UNK     1      29.552  -7.680  29.112  1.00  0.00     0.038 A 
HETATM   14  C17 UNK     1      29.338  -9.968  29.840  1.00  0.00     0.001 A 
HETATM   15  C19 UNK     1      29.322  -9.020  28.817  1.00  0.00     0.003 A 
ENDROOT
BRANCH   4  16
HETATM   16  C5  UNK     1      32.068  -5.490  34.546  1.00  0.00    -0.043 A 
HETATM   17  C10 UNK     1      33.092  -6.282  34.041  1.00  0.00     0.027 A 
HETATM   18  C15 UNK     1      34.411  -5.836  34.117  1.00  0.00     0.011 A 
HETATM   19 Br1  UNK     1      35.812  -6.904  33.431  1.00  0.00    -0.051 Br
HETATM   20  C18 UNK     1      34.697  -4.600  34.696  1.00  0.00     0.019 A 
HETATM   21  C16 UNK     1      33.664  -3.811  35.201  1.00  0.00     0.002 A 
HETATM   22  C11 UNK     1      32.344  -4.257  35.126  1.00  0.00     0.008 A 
ENDBRANCH   4  16
BRANCH   6  23
HETATM   23  C12 UNK     1      30.413  -6.626  36.911  1.00  0.00     0.294 C 
HETATM   24  O5  UNK     1      31.175  -7.085  37.739  1.00  0.00    -0.259 OA
BRANCH  23  25
HETATM   25  O3  UNK     1      29.461  -5.677  37.079  1.00  0.00    -0.323 OA
HETATM   26  C20 UNK     1      29.850  -4.566  37.893  1.00  0.00     0.213 C 
ENDBRANCH  23  25
ENDBRANCH   6  23
BRANCH   9  27
HETATM   27  N1  UNK     1      29.930  -9.374  36.023  1.00  0.00    -0.379 N 
HETATM   28  H7  UNK     1      30.018 -10.321  35.681  1.00  0.00     0.158 HD
HETATM   29  H8  UNK     1      29.680  -9.199  36.988  1.00  0.00     0.158 HD
ENDBRANCH   9  27
TORSDOF 4
ENDMDL
MODEL 9
REMARK VINA RESULT:      -7.1     32.536     34.607
REMARK  4 active torsions:
REMARK  status: ('A' for Active; 'I' for Inactive)
REMARK    1  A    between atoms: C12_19  and  O3_4 
REMARK    2  A    between atoms: C7_14  and  N1_7 
REMARK    3  A    between atoms: C1_8  and  C5_12 
REMARK    4  A    between atoms: C12_19  and  C3_10 
ROOT
HETATM    1  O1  UNK     1      14.456  11.768   9.205  1.00  0.00    -0.292 OA
HETATM    2  O2  UNK     1      18.322  10.316   8.526  1.00  0.00    -0.274 OA
HETATM    3  O4  UNK     1      17.964   8.645  10.035  1.00  0.00    -0.259 OA
HETATM    4  C1  UNK     1      15.231   9.369  10.581  1.00  0.00     0.104 C 
HETATM    5  C2  UNK     1      16.146  10.123   9.634  1.00  0.00     0.066 A 
HETATM    6  C3  UNK     1      13.969  10.157  10.891  1.00  0.00     0.081 C 
HETATM    7  C4  UNK     1      15.719  11.233   9.012  1.00  0.00     0.104 A 
HETATM    8  C6  UNK     1      16.577  11.950   8.073  1.00  0.00     0.033 A 
HETATM    9  C7  UNK     1      13.629  11.276  10.217  1.00  0.00     0.155 C 
HETATM   10  C8  UNK     1      17.531   9.623   9.435  1.00  0.00     0.298 A 
HETATM   11  C9  UNK     1      17.863  11.463   7.851  1.00  0.00     0.092 A 
HETATM   12  C13 UNK     1      16.178  13.099   7.379  1.00  0.00     0.017 A 
HETATM   13  C14 UNK     1      18.747  12.080   6.967  1.00  0.00     0.038 A 
HETATM   14  C17 UNK     1      17.054  13.730   6.489  1.00  0.00     0.001 A 
HETATM   15  C19 UNK     1      18.337  13.221   6.283  1.00  0.00     0.003 A 
ENDROOT
BRANCH   4  16
HETATM   16  C5  UNK     1      14.878   8.027  10.009  1.00  0.00    -0.043 A 
HETATM   17  C10 UNK     1      14.021   7.948   8.918  1.00  0.00     0.027 A 
HETATM   18  C15 UNK     1      13.693   6.700   8.386  1.00  0.00     0.011 A 
HETATM   19 Br1  UNK     1      12.530   6.581   6.901  1.00  0.00    -0.051 Br
HETATM   20  C18 UNK     1      14.227   5.541   8.949  1.00  0.00     0.019 A 
HETATM   21  C16 UNK     1      15.085   5.628  10.044  1.00  0.00     0.002 A 
HETATM   22  C11 UNK     1      15.413   6.876  10.576  1.00  0.00     0.008 A 
ENDBRANCH   4  16
BRANCH   6  23
HETATM   23  C12 UNK     1      13.136   9.651  11.996  1.00  0.00     0.294 C 
HETATM   24  O5  UNK     1      12.007   9.226  11.840  1.00  0.00    -0.259 OA
BRANCH  23  25
HETATM   25  O3  UNK     1      13.845   9.752  13.146  1.00  0.00    -0.323 OA
HETATM   26  C20 UNK     1      13.527  10.888  13.955  1.00  0.00     0.213 C 
ENDBRANCH  23  25
ENDBRANCH   6  23
BRANCH   9  27
HETATM   27  N1  UNK     1      12.511  12.035  10.416  1.00  0.00    -0.379 N 
HETATM   28  H7  UNK     1      11.900  11.814  11.191  1.00  0.00     0.158 HD
HETATM   29  H8  UNK     1      12.295  12.807   9.798  1.00  0.00     0.158 HD
ENDBRANCH   9  27
TORSDOF 4
ENDMDL
MODEL 10
REMARK VINA RESULT:      -7.0      3.514      6.415
REMARK  4 active torsions:
REMARK  status: ('A' for Active; 'I' for Inactive)
REMARK    1  A    between atoms: C12_19  and  O3_4 
REMARK    2  A    between atoms: C7_14  and  N1_7 
REMARK    3  A    between atoms: C1_8  and  C5_12 
REMARK    4  A    between atoms: C12_19  and  C3_10 
ROOT
HETATM    1  O1  UNK     1      30.964  -8.570  36.450  1.00  0.00    -0.292 OA
HETATM    2  O2  UNK     1      31.466  -4.437  36.023  1.00  0.00    -0.274 OA
HETATM    3  O4  UNK     1      32.822  -4.784  34.222  1.00  0.00    -0.259 OA
HETATM    4  C1  UNK     1      32.533  -7.649  34.228  1.00  0.00     0.104 C 
HETATM    5  C2  UNK     1      31.888  -6.719  35.239  1.00  0.00     0.066 A 
HETATM    6  C3  UNK     1      32.449  -9.101  34.666  1.00  0.00     0.081 C 
HETATM    7  C4  UNK     1      31.156  -7.213  36.250  1.00  0.00     0.104 A 
HETATM    8  C6  UNK     1      30.503  -6.329  37.212  1.00  0.00     0.033 A 
HETATM    9  C7  UNK     1      31.693  -9.502  35.710  1.00  0.00     0.155 C 
HETATM   10  C8  UNK     1      32.110  -5.256  35.102  1.00  0.00     0.298 A 
HETATM   11  C9  UNK     1      30.674  -4.955  37.065  1.00  0.00     0.092 A 
HETATM   12  C13 UNK     1      29.710  -6.786  38.271  1.00  0.00     0.017 A 
HETATM   13  C14 UNK     1      30.082  -4.037  37.933  1.00  0.00     0.038 A 
HETATM   14  C17 UNK     1      29.110  -5.878  39.151  1.00  0.00     0.001 A 
HETATM   15  C19 UNK     1      29.296  -4.505  38.981  1.00  0.00     0.003 A 
ENDROOT
BRANCH   4  16
HETATM   16  C5  UNK     1      31.897  -7.476  32.879  1.00  0.00    -0.043 A 
HETATM   17  C10 UNK     1      30.512  -7.464  32.768  1.00  0.00     0.027 A 
HETATM   18  C15 UNK     1      29.921  -7.302  31.515  1.00  0.00     0.011 A 
HETATM   19 Br1  UNK     1      28.038  -7.282  31.352  1.00  0.00    -0.051 Br
HETATM   20  C18 UNK     1      30.720  -7.153  30.381  1.00  0.00     0.019 A 
HETATM   21  C16 UNK     1      32.109  -7.167  30.501  1.00  0.00     0.002 A 
HETATM   22  C11 UNK     1      32.700  -7.329  31.754  1.00  0.00     0.008 A 
ENDBRANCH   4  16
BRANCH   6  23
HETATM   23  C12 UNK     1      33.267 -10.063  33.904  1.00  0.00     0.294 C 
HETATM   24  O5  UNK     1      32.821 -11.094  33.437  1.00  0.00    -0.259 OA
BRANCH  23  25
HETATM   25  O3  UNK     1      34.533  -9.589  33.839  1.00  0.00    -0.323 OA
HETATM   26  C20 UNK     1      35.443 -10.393  33.082  1.00  0.00     0.213 C 
ENDBRANCH  23  25
ENDBRANCH   6  23
BRANCH   9  27
HETATM   27  N1  UNK     1      31.547 -10.783  36.162  1.00  0.00    -0.379 N 
HETATM   28  H7  UNK     1      31.773 -11.550  35.543  1.00  0.00     0.158 HD
HETATM   29  H8  UNK     1      31.217 -10.963  37.101  1.00  0.00     0.158 HD
ENDBRANCH   9  27
TORSDOF 4
ENDMDL
