MODEL 1
REMARK VINA RESULT:      -9.0      0.000      0.000
REMARK  4 active torsions:
REMARK  status: ('A' for Active; 'I' for Inactive)
REMARK    1  A    between atoms: C4_9  and  O2_3 
REMARK    2  A    between atoms: C9_14  and  O2_3 
REMARK    3  A    between atoms: C12_17  and  C9_14 
REMARK    4  A    between atoms: C11_16  and  C12_17 
ROOT
HETATM    1  I1  UNK     1      18.035   1.662  34.633  1.00  0.00    -0.039 I 
HETATM    2  O1  UNK     1      19.390  -0.574  32.851  1.00  0.00    -0.273 OA
HETATM    3  O4  UNK     1      20.237  -2.681  33.116  1.00  0.00    -0.260 OA
HETATM    4  C1  UNK     1      19.436   0.464  30.640  1.00  0.00     0.005 A 
HETATM    5  C2  UNK     1      19.113   0.512  31.997  1.00  0.00     0.109 A 
HETATM    6  C3  UNK     1      20.074  -0.750  30.112  1.00  0.00    -0.043 A 
HETATM    7  C4  UNK     1      18.208   2.729  31.787  1.00  0.00     0.088 A 
HETATM    8  C5  UNK     1      19.128   1.584  29.858  1.00  0.00     0.017 A 
HETATM    9  C6  UNK     1      18.505   1.626  32.580  1.00  0.00     0.074 A 
HETATM   10  C7  UNK     1      18.518   2.708  30.427  1.00  0.00     0.039 A 
HETATM   11  C8  UNK     1      20.326  -1.768  30.948  1.00  0.00     0.090 A 
HETATM   12  C10 UNK     1      20.433  -0.835  28.658  1.00  0.00     0.049 C 
HETATM   13  C13 UNK     1      19.991  -1.731  32.382  1.00  0.00     0.288 A 
ENDROOT
BRANCH   7  14
HETATM   14  O2  UNK     1      17.616   3.849  32.290  1.00  0.00    -0.342 OA
BRANCH  14  15
HETATM   15  C9  UNK     1      18.253   5.095  32.017  1.00  0.00     0.259 C 
BRANCH  15  16
HETATM   16  C12 UNK     1      18.787   5.698  33.302  1.00  0.00     0.183 C 
HETATM   17  O3  UNK     1      19.330   5.009  34.161  1.00  0.00    -0.290 OA
BRANCH  16  18
HETATM   18  C11 UNK     1      18.640   7.167  33.518  1.00  0.00     0.012 A 
HETATM   19  C15 UNK     1      17.446   7.768  33.191  1.00  0.00     0.016 A 
HETATM   20  C17 UNK     1      17.310   9.141  33.395  1.00  0.00     0.007 A 
HETATM   21  C14 UNK     1      18.372   9.877  33.920  1.00  0.00    -0.062 A 
HETATM   22  C18 UNK     1      19.570   9.240  34.241  1.00  0.00     0.007 A 
HETATM   23  C19 UNK     1      18.227  11.345  34.136  1.00  0.00     0.048 C 
HETATM   24  C16 UNK     1      19.706   7.866  34.038  1.00  0.00     0.016 A 
ENDBRANCH  16  18
ENDBRANCH  15  16
ENDBRANCH  14  15
ENDBRANCH   7  14
TORSDOF 4
ENDMDL
MODEL 2
REMARK VINA RESULT:      -8.8      2.907      4.847
REMARK  4 active torsions:
REMARK  status: ('A' for Active; 'I' for Inactive)
REMARK    1  A    between atoms: C4_9  and  O2_3 
REMARK    2  A    between atoms: C9_14  and  O2_3 
REMARK    3  A    between atoms: C12_17  and  C9_14 
REMARK    4  A    between atoms: C11_16  and  C12_17 
ROOT
HETATM    1  I1  UNK     1      20.545  -2.480  31.742  1.00  0.00    -0.039 I 
HETATM    2  O1  UNK     1      20.205  -2.950  34.853  1.00  0.00    -0.273 OA
HETATM    3  O4  UNK     1      20.956  -4.406  36.447  1.00  0.00    -0.260 OA
HETATM    4  C1  UNK     1      18.687  -1.148  35.500  1.00  0.00     0.005 A 
HETATM    5  C2  UNK     1      19.422  -1.825  34.525  1.00  0.00     0.109 A 
HETATM    6  C3  UNK     1      18.745  -1.632  36.886  1.00  0.00    -0.043 A 
HETATM    7  C4  UNK     1      18.669  -0.329  32.801  1.00  0.00     0.088 A 
HETATM    8  C5  UNK     1      17.934  -0.039  35.093  1.00  0.00     0.017 A 
HETATM    9  C6  UNK     1      19.423  -1.432  33.185  1.00  0.00     0.074 A 
HETATM   10  C7  UNK     1      17.925   0.367  33.753  1.00  0.00     0.039 A 
HETATM   11  C8  UNK     1      19.498  -2.704  37.169  1.00  0.00     0.090 A 
HETATM   12  C10 UNK     1      17.967  -0.926  37.958  1.00  0.00     0.049 C 
HETATM   13  C13 UNK     1      20.279  -3.428  36.152  1.00  0.00     0.288 A 
ENDROOT
BRANCH   7  14
HETATM   14  O2  UNK     1      18.623   0.108  31.511  1.00  0.00    -0.342 OA
BRANCH  14  15
HETATM   15  C9  UNK     1      19.346   1.299  31.205  1.00  0.00     0.259 C 
BRANCH  15  16
HETATM   16  C12 UNK     1      18.387   2.393  30.778  1.00  0.00     0.183 C 
HETATM   17  O3  UNK     1      17.507   2.192  29.946  1.00  0.00    -0.290 OA
BRANCH  16  18
HETATM   18  C11 UNK     1      18.527   3.747  31.390  1.00  0.00     0.012 A 
HETATM   19  C15 UNK     1      19.035   4.770  30.623  1.00  0.00     0.016 A 
HETATM   20  C17 UNK     1      19.165   6.035  31.197  1.00  0.00     0.007 A 
HETATM   21  C14 UNK     1      18.783   6.243  32.522  1.00  0.00    -0.062 A 
HETATM   22  C18 UNK     1      18.272   5.185  33.274  1.00  0.00     0.007 A 
HETATM   23  C19 UNK     1      18.924   7.595  33.135  1.00  0.00     0.048 C 
HETATM   24  C16 UNK     1      18.141   3.920  32.700  1.00  0.00     0.016 A 
ENDBRANCH  16  18
ENDBRANCH  15  16
ENDBRANCH  14  15
ENDBRANCH   7  14
TORSDOF 4
ENDMDL
MODEL 3
REMARK VINA RESULT:      -8.8      1.323      2.070
REMARK  4 active torsions:
REMARK  status: ('A' for Active; 'I' for Inactive)
REMARK    1  A    between atoms: C4_9  and  O2_3 
REMARK    2  A    between atoms: C9_14  and  O2_3 
REMARK    3  A    between atoms: C12_17  and  C9_14 
REMARK    4  A    between atoms: C11_16  and  C12_17 
ROOT
HETATM    1  I1  UNK     1      18.110   1.825  34.622  1.00  0.00    -0.039 I 
HETATM    2  O1  UNK     1      19.377  -0.465  32.843  1.00  0.00    -0.273 OA
HETATM    3  O4  UNK     1      20.199  -2.580  33.122  1.00  0.00    -0.260 OA
HETATM    4  C1  UNK     1      19.371   0.531  30.612  1.00  0.00     0.005 A 
HETATM    5  C2  UNK     1      19.090   0.609  31.977  1.00  0.00     0.109 A 
HETATM    6  C3  UNK     1      19.974  -0.703  30.088  1.00  0.00    -0.043 A 
HETATM    7  C4  UNK     1      18.213   2.836  31.751  1.00  0.00     0.088 A 
HETATM    8  C5  UNK     1      19.056   1.641  29.818  1.00  0.00     0.017 A 
HETATM    9  C6  UNK     1      18.517   1.743  32.557  1.00  0.00     0.074 A 
HETATM   10  C7  UNK     1      18.481   2.785  30.384  1.00  0.00     0.039 A 
HETATM   11  C8  UNK     1      20.235  -1.709  30.935  1.00  0.00     0.090 A 
HETATM   12  C10 UNK     1      20.287  -0.820  28.625  1.00  0.00     0.049 C 
HETATM   13  C13 UNK     1      19.945  -1.640  32.377  1.00  0.00     0.288 A 
ENDROOT
BRANCH   7  14
HETATM   14  O2  UNK     1      17.654   3.974  32.251  1.00  0.00    -0.342 OA
BRANCH  14  15
HETATM   15  C9  UNK     1      18.512   5.103  32.404  1.00  0.00     0.259 C 
BRANCH  15  16
HETATM   16  C12 UNK     1      17.954   6.287  31.640  1.00  0.00     0.183 C 
HETATM   17  O3  UNK     1      18.270   6.511  30.475  1.00  0.00    -0.290 OA
BRANCH  16  18
HETATM   18  C11 UNK     1      16.997   7.200  32.332  1.00  0.00     0.012 A 
HETATM   19  C15 UNK     1      17.497   8.280  33.025  1.00  0.00     0.016 A 
HETATM   20  C17 UNK     1      16.602   9.132  33.671  1.00  0.00     0.007 A 
HETATM   21  C14 UNK     1      15.231   8.882  33.609  1.00  0.00    -0.062 A 
HETATM   22  C18 UNK     1      14.756   7.779  32.900  1.00  0.00     0.007 A 
HETATM   23  C19 UNK     1      14.275   9.793  34.301  1.00  0.00     0.048 C 
HETATM   24  C16 UNK     1      15.651   6.927  32.252  1.00  0.00     0.016 A 
ENDBRANCH  16  18
ENDBRANCH  15  16
ENDBRANCH  14  15
ENDBRANCH   7  14
TORSDOF 4
ENDMDL
MODEL 4
REMARK VINA RESULT:      -8.8      2.548      8.989
REMARK  4 active torsions:
REMARK  status: ('A' for Active; 'I' for Inactive)
REMARK    1  A    between atoms: C4_9  and  O2_3 
REMARK    2  A    between atoms: C9_14  and  O2_3 
REMARK    3  A    between atoms: C12_17  and  C9_14 
REMARK    4  A    between atoms: C11_16  and  C12_17 
ROOT
HETATM    1  I1  UNK     1      15.036   6.960  32.055  1.00  0.00    -0.039 I 
HETATM    2  O1  UNK     1      16.749   9.304  33.312  1.00  0.00    -0.273 OA
HETATM    3  O4  UNK     1      16.449  11.477  33.955  1.00  0.00    -0.260 OA
HETATM    4  C1  UNK     1      18.949   8.273  33.575  1.00  0.00     0.005 A 
HETATM    5  C2  UNK     1      17.612   8.197  33.181  1.00  0.00     0.109 A 
HETATM    6  C3  UNK     1      19.446   9.537  34.135  1.00  0.00    -0.043 A 
HETATM    7  C4  UNK     1      17.861   5.910  32.485  1.00  0.00     0.088 A 
HETATM    8  C5  UNK     1      19.741   7.129  33.411  1.00  0.00     0.017 A 
HETATM    9  C6  UNK     1      17.058   7.035  32.639  1.00  0.00     0.074 A 
HETATM   10  C7  UNK     1      19.200   5.956  32.870  1.00  0.00     0.039 A 
HETATM   11  C8  UNK     1      18.603  10.573  34.249  1.00  0.00     0.090 A 
HETATM   12  C10 UNK     1      20.878   9.651  34.569  1.00  0.00     0.049 C 
HETATM   13  C13 UNK     1      17.190  10.508  33.837  1.00  0.00     0.288 A 
ENDROOT
BRANCH   7  14
HETATM   14  O2  UNK     1      17.387   4.744  31.962  1.00  0.00    -0.342 OA
BRANCH  14  15
HETATM   15  C9  UNK     1      18.231   3.599  32.061  1.00  0.00     0.259 C 
BRANCH  15  16
HETATM   16  C12 UNK     1      18.548   3.067  30.677  1.00  0.00     0.183 C 
HETATM   17  O3  UNK     1      18.409   3.759  29.672  1.00  0.00    -0.290 OA
BRANCH  16  18
HETATM   18  C11 UNK     1      19.039   1.664  30.545  1.00  0.00     0.012 A 
HETATM   19  C15 UNK     1      19.476   1.230  29.314  1.00  0.00     0.016 A 
HETATM   20  C17 UNK     1      19.935  -0.081  29.192  1.00  0.00     0.007 A 
HETATM   21  C14 UNK     1      19.945  -0.924  30.303  1.00  0.00    -0.062 A 
HETATM   22  C18 UNK     1      19.495  -0.455  31.537  1.00  0.00     0.007 A 
HETATM   23  C19 UNK     1      20.435  -2.326  30.172  1.00  0.00     0.048 C 
HETATM   24  C16 UNK     1      19.037   0.857  31.660  1.00  0.00     0.016 A 
ENDBRANCH  16  18
ENDBRANCH  15  16
ENDBRANCH  14  15
ENDBRANCH   7  14
TORSDOF 4
ENDMDL
MODEL 5
REMARK VINA RESULT:      -8.6      6.093     11.916
REMARK  4 active torsions:
REMARK  status: ('A' for Active; 'I' for Inactive)
REMARK    1  A    between atoms: C4_9  and  O2_3 
REMARK    2  A    between atoms: C9_14  and  O2_3 
REMARK    3  A    between atoms: C12_17  and  C9_14 
REMARK    4  A    between atoms: C11_16  and  C12_17 
ROOT
HETATM    1  I1  UNK     1      20.496  -2.371  32.885  1.00  0.00    -0.039 I 
HETATM    2  O1  UNK     1      18.784   0.110  33.847  1.00  0.00    -0.273 OA
HETATM    3  O4  UNK     1      17.957   2.052  32.968  1.00  0.00    -0.260 OA
HETATM    4  C1  UNK     1      18.352  -0.420  36.192  1.00  0.00     0.005 A 
HETATM    5  C2  UNK     1      18.921  -0.744  34.960  1.00  0.00     0.109 A 
HETATM    6  C3  UNK     1      17.600   0.838  36.311  1.00  0.00    -0.043 A 
HETATM    7  C4  UNK     1      19.819  -2.800  35.822  1.00  0.00     0.088 A 
HETATM    8  C5  UNK     1      18.533  -1.321  37.250  1.00  0.00     0.017 A 
HETATM    9  C6  UNK     1      19.650  -1.918  34.760  1.00  0.00     0.074 A 
HETATM   10  C7  UNK     1      19.261  -2.502  37.065  1.00  0.00     0.039 A 
HETATM   11  C8  UNK     1      17.486   1.630  35.236  1.00  0.00     0.090 A 
HETATM   12  C10 UNK     1      16.975   1.215  37.622  1.00  0.00     0.049 C 
HETATM   13  C13 UNK     1      18.081   1.301  33.929  1.00  0.00     0.288 A 
ENDROOT
BRANCH   7  14
HETATM   14  O2  UNK     1      20.520  -3.962  35.699  1.00  0.00    -0.342 OA
BRANCH  14  15
HETATM   15  C9  UNK     1      19.891  -5.151  36.171  1.00  0.00     0.259 C 
BRANCH  15  16
HETATM   16  C12 UNK     1      20.810  -5.878  37.134  1.00  0.00     0.183 C 
HETATM   17  O3  UNK     1      21.860  -5.376  37.527  1.00  0.00    -0.290 OA
BRANCH  16  18
HETATM   18  C11 UNK     1      20.421  -7.238  37.606  1.00  0.00     0.012 A 
HETATM   19  C15 UNK     1      20.365  -7.477  38.960  1.00  0.00     0.016 A 
HETATM   20  C17 UNK     1      20.001  -8.750  39.400  1.00  0.00     0.007 A 
HETATM   21  C14 UNK     1      19.702  -9.750  38.475  1.00  0.00    -0.062 A 
HETATM   22  C18 UNK     1      19.769  -9.477  37.109  1.00  0.00     0.007 A 
HETATM   23  C19 UNK     1      19.314 -11.110  38.946  1.00  0.00     0.048 C 
HETATM   24  C16 UNK     1      20.133  -8.204  36.668  1.00  0.00     0.016 A 
ENDBRANCH  16  18
ENDBRANCH  15  16
ENDBRANCH  14  15
ENDBRANCH   7  14
TORSDOF 4
ENDMDL
MODEL 6
REMARK VINA RESULT:      -8.6      4.733      9.974
REMARK  4 active torsions:
REMARK  status: ('A' for Active; 'I' for Inactive)
REMARK    1  A    between atoms: C4_9  and  O2_3 
REMARK    2  A    between atoms: C9_14  and  O2_3 
REMARK    3  A    between atoms: C12_17  and  C9_14 
REMARK    4  A    between atoms: C11_16  and  C12_17 
ROOT
HETATM    1  I1  UNK     1      17.726   0.574  34.822  1.00  0.00    -0.039 I 
HETATM    2  O1  UNK     1      18.441   1.188  31.802  1.00  0.00    -0.273 OA
HETATM    3  O4  UNK     1      17.980   2.788  30.234  1.00  0.00    -0.260 OA
HETATM    4  C1  UNK     1      19.882  -0.692  31.204  1.00  0.00     0.005 A 
HETATM    5  C2  UNK     1      19.098  -0.013  32.137  1.00  0.00     0.109 A 
HETATM    6  C3  UNK     1      20.014  -0.128  29.853  1.00  0.00    -0.043 A 
HETATM    7  C4  UNK     1      19.542  -1.660  33.831  1.00  0.00     0.088 A 
HETATM    8  C5  UNK     1      20.501  -1.879  31.615  1.00  0.00     0.017 A 
HETATM    9  C6  UNK     1      18.919  -0.479  33.442  1.00  0.00     0.074 A 
HETATM   10  C7  UNK     1      20.332  -2.359  32.919  1.00  0.00     0.039 A 
HETATM   11  C8  UNK     1      19.379   1.017  29.562  1.00  0.00     0.090 A 
HETATM   12  C10 UNK     1      20.850  -0.833  28.826  1.00  0.00     0.049 C 
HETATM   13  C13 UNK     1      18.548   1.744  30.537  1.00  0.00     0.288 A 
ENDROOT
BRANCH   7  14
HETATM   14  O2  UNK     1      19.410  -2.172  35.087  1.00  0.00    -0.342 OA
BRANCH  14  15
HETATM   15  C9  UNK     1      20.139  -3.362  35.380  1.00  0.00     0.259 C 
BRANCH  15  16
HETATM   16  C12 UNK     1      20.030  -3.687  36.858  1.00  0.00     0.183 C 
HETATM   17  O3  UNK     1      20.139  -2.818  37.719  1.00  0.00    -0.290 OA
BRANCH  16  18
HETATM   18  C11 UNK     1      19.786  -5.101  37.264  1.00  0.00     0.012 A 
HETATM   19  C15 UNK     1      20.547  -5.639  38.277  1.00  0.00     0.016 A 
HETATM   20  C17 UNK     1      20.317  -6.962  38.656  1.00  0.00     0.007 A 
HETATM   21  C14 UNK     1      19.334  -7.712  38.012  1.00  0.00    -0.062 A 
HETATM   22  C18 UNK     1      18.579  -7.139  36.988  1.00  0.00     0.007 A 
HETATM   23  C19 UNK     1      19.089  -9.126  38.416  1.00  0.00     0.048 C 
HETATM   24  C16 UNK     1      18.808  -5.815  36.609  1.00  0.00     0.016 A 
ENDBRANCH  16  18
ENDBRANCH  15  16
ENDBRANCH  14  15
ENDBRANCH   7  14
TORSDOF 4
ENDMDL
MODEL 7
REMARK VINA RESULT:      -8.4      4.052      9.744
REMARK  4 active torsions:
REMARK  status: ('A' for Active; 'I' for Inactive)
REMARK    1  A    between atoms: C4_9  and  O2_3 
REMARK    2  A    between atoms: C9_14  and  O2_3 
REMARK    3  A    between atoms: C12_17  and  C9_14 
REMARK    4  A    between atoms: C11_16  and  C12_17 
ROOT
HETATM    1  I1  UNK     1      17.871   1.263  36.181  1.00  0.00    -0.039 I 
HETATM    2  O1  UNK     1      18.013   2.632  33.331  1.00  0.00    -0.273 OA
HETATM    3  O4  UNK     1      17.608   4.683  32.406  1.00  0.00    -0.260 OA
HETATM    4  C1  UNK     1      18.786   0.807  31.903  1.00  0.00     0.005 A 
HETATM    5  C2  UNK     1      18.420   1.294  33.158  1.00  0.00     0.109 A 
HETATM    6  C3  UNK     1      18.742   1.722  30.754  1.00  0.00    -0.043 A 
HETATM    7  C4  UNK     1      18.826  -0.837  34.194  1.00  0.00     0.088 A 
HETATM    8  C5  UNK     1      19.179  -0.535  31.814  1.00  0.00     0.017 A 
HETATM    9  C6  UNK     1      18.433   0.492  34.302  1.00  0.00     0.074 A 
HETATM   10  C7  UNK     1      19.198  -1.351  32.952  1.00  0.00     0.039 A 
HETATM   11  C8  UNK     1      18.351   2.990  30.948  1.00  0.00     0.090 A 
HETATM   12  C10 UNK     1      19.131   1.231  29.391  1.00  0.00     0.049 C 
HETATM   13  C13 UNK     1      17.961   3.517  32.267  1.00  0.00     0.288 A 
ENDROOT
BRANCH   7  14
HETATM   14  O2  UNK     1      18.861  -1.676  35.268  1.00  0.00    -0.342 OA
BRANCH  14  15
HETATM   15  C9  UNK     1      20.080  -2.377  35.502  1.00  0.00     0.259 C 
BRANCH  15  16
HETATM   16  C12 UNK     1      20.007  -3.120  36.822  1.00  0.00     0.183 C 
HETATM   17  O3  UNK     1      19.644  -2.564  37.855  1.00  0.00    -0.290 OA
BRANCH  16  18
HETATM   18  C11 UNK     1      20.392  -4.561  36.855  1.00  0.00     0.012 A 
HETATM   19  C15 UNK     1      21.230  -4.999  37.855  1.00  0.00     0.016 A 
HETATM   20  C17 UNK     1      21.588  -6.346  37.885  1.00  0.00     0.007 A 
HETATM   21  C14 UNK     1      21.099  -7.221  36.915  1.00  0.00    -0.062 A 
HETATM   22  C18 UNK     1      20.251  -6.747  35.914  1.00  0.00     0.007 A 
HETATM   23  C19 UNK     1      21.482  -8.661  36.947  1.00  0.00     0.048 C 
HETATM   24  C16 UNK     1      19.892  -5.399  35.884  1.00  0.00     0.016 A 
ENDBRANCH  16  18
ENDBRANCH  15  16
ENDBRANCH  14  15
ENDBRANCH   7  14
TORSDOF 4
ENDMDL
MODEL 8
REMARK VINA RESULT:      -8.3      2.898      4.306
REMARK  4 active torsions:
REMARK  status: ('A' for Active; 'I' for Inactive)
REMARK    1  A    between atoms: C4_9  and  O2_3 
REMARK    2  A    between atoms: C9_14  and  O2_3 
REMARK    3  A    between atoms: C12_17  and  C9_14 
REMARK    4  A    between atoms: C11_16  and  C12_17 
ROOT
HETATM    1  I1  UNK     1      19.133  -1.088  32.048  1.00  0.00    -0.039 I 
HETATM    2  O1  UNK     1      18.672  -1.470  35.155  1.00  0.00    -0.273 OA
HETATM    3  O4  UNK     1      18.729  -3.164  36.689  1.00  0.00    -0.260 OA
HETATM    4  C1  UNK     1      18.118   0.792  35.892  1.00  0.00     0.005 A 
HETATM    5  C2  UNK     1      18.462  -0.104  34.880  1.00  0.00     0.109 A 
HETATM    6  C3  UNK     1      17.979   0.283  37.264  1.00  0.00    -0.043 A 
HETATM    7  C4  UNK     1      18.419   1.631  33.217  1.00  0.00     0.088 A 
HETATM    8  C5  UNK     1      17.925   2.134  35.537  1.00  0.00     0.017 A 
HETATM    9  C6  UNK     1      18.614   0.295  33.550  1.00  0.00     0.074 A 
HETATM   10  C7  UNK     1      18.075   2.549  34.209  1.00  0.00     0.039 A 
HETATM   11  C8  UNK     1      18.186  -1.021  37.497  1.00  0.00     0.090 A 
HETATM   12  C10 UNK     1      17.611   1.221  38.376  1.00  0.00     0.049 C 
HETATM   13  C13 UNK     1      18.549  -1.978  36.439  1.00  0.00     0.288 A 
ENDROOT
BRANCH   7  14
HETATM   14  O2  UNK     1      18.550   2.090  31.940  1.00  0.00    -0.342 OA
BRANCH  14  15
HETATM   15  C9  UNK     1      17.770   3.227  31.577  1.00  0.00     0.259 C 
BRANCH  15  16
HETATM   16  C12 UNK     1      18.677   4.356  31.128  1.00  0.00     0.183 C 
HETATM   17  O3  UNK     1      19.418   4.241  30.155  1.00  0.00    -0.290 OA
BRANCH  16  18
HETATM   18  C11 UNK     1      18.662   5.635  31.896  1.00  0.00     0.012 A 
HETATM   19  C15 UNK     1      19.751   5.950  32.677  1.00  0.00     0.016 A 
HETATM   20  C17 UNK     1      19.736   7.146  33.395  1.00  0.00     0.007 A 
HETATM   21  C14 UNK     1      18.633   7.995  33.313  1.00  0.00    -0.062 A 
HETATM   22  C18 UNK     1      17.544   7.648  32.512  1.00  0.00     0.007 A 
HETATM   23  C19 UNK     1      18.617   9.273  34.081  1.00  0.00     0.048 C 
HETATM   24  C16 UNK     1      17.559   6.452  31.794  1.00  0.00     0.016 A 
ENDBRANCH  16  18
ENDBRANCH  15  16
ENDBRANCH  14  15
ENDBRANCH   7  14
TORSDOF 4
ENDMDL
MODEL 9
REMARK VINA RESULT:      -8.2      6.528     10.441
REMARK  4 active torsions:
REMARK  status: ('A' for Active; 'I' for Inactive)
REMARK    1  A    between atoms: C4_9  and  O2_3 
REMARK    2  A    between atoms: C9_14  and  O2_3 
REMARK    3  A    between atoms: C12_17  and  C9_14 
REMARK    4  A    between atoms: C11_16  and  C12_17 
ROOT
HETATM    1  I1  UNK     1      17.407  -6.680  36.073  1.00  0.00    -0.039 I 
HETATM    2  O1  UNK     1      19.113  -8.587  37.934  1.00  0.00    -0.273 OA
HETATM    3  O4  UNK     1      19.029 -10.740  38.699  1.00  0.00    -0.260 OA
HETATM    4  C1  UNK     1      20.964  -7.146  38.617  1.00  0.00     0.005 A 
HETATM    5  C2  UNK     1      19.780  -7.346  37.905  1.00  0.00     0.109 A 
HETATM    6  C3  UNK     1      21.508  -8.262  39.404  1.00  0.00    -0.043 A 
HETATM    7  C4  UNK     1      19.809  -5.094  37.066  1.00  0.00     0.088 A 
HETATM    8  C5  UNK     1      21.566  -5.884  38.536  1.00  0.00     0.017 A 
HETATM    9  C6  UNK     1      19.195  -6.340  37.132  1.00  0.00     0.074 A 
HETATM   10  C7  UNK     1      20.992  -4.866  37.766  1.00  0.00     0.039 A 
HETATM   11  C8  UNK     1      20.852  -9.431  39.413  1.00  0.00     0.090 A 
HETATM   12  C10 UNK     1      22.779  -8.081  40.180  1.00  0.00     0.049 C 
HETATM   13  C13 UNK     1      19.602  -9.657  38.666  1.00  0.00     0.288 A 
ENDROOT
BRANCH   7  14
HETATM   14  O2  UNK     1      19.292  -4.067  36.333  1.00  0.00    -0.342 OA
BRANCH  14  15
HETATM   15  C9  UNK     1      19.912  -2.792  36.478  1.00  0.00     0.259 C 
BRANCH  15  16
HETATM   16  C12 UNK     1      19.213  -1.771  35.602  1.00  0.00     0.183 C 
HETATM   17  O3  UNK     1      18.400  -0.974  36.062  1.00  0.00    -0.290 OA
BRANCH  16  18
HETATM   18  C11 UNK     1      19.527  -1.745  34.143  1.00  0.00     0.012 A 
HETATM   19  C15 UNK     1      20.595  -2.481  33.683  1.00  0.00     0.016 A 
HETATM   20  C17 UNK     1      20.887  -2.456  32.320  1.00  0.00     0.007 A 
HETATM   21  C14 UNK     1      20.105  -1.695  31.452  1.00  0.00    -0.062 A 
HETATM   22  C18 UNK     1      19.029  -0.958  31.949  1.00  0.00     0.007 A 
HETATM   23  C19 UNK     1      20.418  -1.667  29.995  1.00  0.00     0.048 C 
HETATM   24  C16 UNK     1      18.736  -0.984  33.313  1.00  0.00     0.016 A 
ENDBRANCH  16  18
ENDBRANCH  15  16
ENDBRANCH  14  15
ENDBRANCH   7  14
TORSDOF 4
ENDMDL
MODEL 10
REMARK VINA RESULT:      -8.1      6.862     10.035
REMARK  4 active torsions:
REMARK  status: ('A' for Active; 'I' for Inactive)
REMARK    1  A    between atoms: C4_9  and  O2_3 
REMARK    2  A    between atoms: C9_14  and  O2_3 
REMARK    3  A    between atoms: C12_17  and  C9_14 
REMARK    4  A    between atoms: C11_16  and  C12_17 
ROOT
HETATM    1  I1  UNK     1      17.490  -6.622  36.176  1.00  0.00    -0.039 I 
HETATM    2  O1  UNK     1      19.214  -8.539  38.010  1.00  0.00    -0.273 OA
HETATM    3  O4  UNK     1      19.101 -10.674  38.822  1.00  0.00    -0.260 OA
HETATM    4  C1  UNK     1      21.128  -7.137  38.594  1.00  0.00     0.005 A 
HETATM    5  C2  UNK     1      19.913  -7.318  37.931  1.00  0.00     0.109 A 
HETATM    6  C3  UNK     1      21.671  -8.252  39.383  1.00  0.00    -0.043 A 
HETATM    7  C4  UNK     1      19.970  -5.084  37.046  1.00  0.00     0.088 A 
HETATM    8  C5  UNK     1      21.760  -5.894  38.466  1.00  0.00     0.017 A 
HETATM    9  C6  UNK     1      19.326  -6.312  37.161  1.00  0.00     0.074 A 
HETATM   10  C7  UNK     1      21.185  -4.875  37.697  1.00  0.00     0.039 A 
HETATM   11  C8  UNK     1      20.984  -9.403  39.440  1.00  0.00     0.090 A 
HETATM   12  C10 UNK     1      22.975  -8.091  40.107  1.00  0.00     0.049 C 
HETATM   13  C13 UNK     1      19.702  -9.608  38.746  1.00  0.00     0.288 A 
ENDROOT
BRANCH   7  14
HETATM   14  O2  UNK     1      19.454  -4.058  36.312  1.00  0.00    -0.342 OA
BRANCH  14  15
HETATM   15  C9  UNK     1      20.220  -2.857  36.250  1.00  0.00     0.259 C 
BRANCH  15  16
HETATM   16  C12 UNK     1      19.612  -1.905  35.239  1.00  0.00     0.183 C 
HETATM   17  O3  UNK     1      20.089  -1.764  34.116  1.00  0.00    -0.290 OA
BRANCH  16  18
HETATM   18  C11 UNK     1      18.404  -1.121  35.630  1.00  0.00     0.012 A 
HETATM   19  C15 UNK     1      18.249  -0.760  36.949  1.00  0.00     0.016 A 
HETATM   20  C17 UNK     1      17.119  -0.027  37.313  1.00  0.00     0.007 A 
HETATM   21  C14 UNK     1      16.175   0.326  36.349  1.00  0.00    -0.062 A 
HETATM   22  C18 UNK     1      16.361  -0.055  35.020  1.00  0.00     0.007 A 
HETATM   23  C19 UNK     1      14.968   1.109  36.739  1.00  0.00     0.048 C 
HETATM   24  C16 UNK     1      17.490  -0.788  34.656  1.00  0.00     0.016 A 
ENDBRANCH  16  18
ENDBRANCH  15  16
ENDBRANCH  14  15
ENDBRANCH   7  14
TORSDOF 4
ENDMDL
