MODEL 1
REMARK VINA RESULT:      -9.7      0.000      0.000
REMARK  4 active torsions:
REMARK  status: ('A' for Active; 'I' for Inactive)
REMARK    1  A    between atoms: C10_17  and  O2_3 
REMARK       I    between atoms: C15_22  and  N1_6 
REMARK    2  A    between atoms: C6_13  and  N1_6 
REMARK    3  A    between atoms: C3_10  and  C9_16 
REMARK    4  A    between atoms: C12_19  and  C15_22 
ROOT
HETATM    1  N2  UNK     1      20.896   5.678  30.928  1.00  0.00    -0.191 NA
HETATM    2  C9  UNK     1      17.692   4.443  31.552  1.00  0.00     0.045 C 
HETATM    3  C12 UNK     1      18.361   5.609  31.445  1.00  0.00     0.113 C 
HETATM    4  C19 UNK     1      19.759   5.643  31.160  1.00  0.00     0.105 C 
ENDROOT
BRANCH   3   5
HETATM    5  C15 UNK     1      17.561   6.878  31.648  1.00  0.00     0.266 C 
HETATM    6  O4  UNK     1      17.042   7.446  30.691  1.00  0.00    -0.267 OA
HETATM    7  N1  UNK     1      17.498   7.289  32.975  1.00  0.00    -0.320 N 
HETATM    8  H6  UNK     1      17.979   6.738  33.682  1.00  0.00     0.169 HD
BRANCH   7   9
HETATM    9  C6  UNK     1      16.833   8.429  33.496  1.00  0.00     0.070 A 
HETATM   10  C10 UNK     1      15.477   8.371  33.770  1.00  0.00     0.095 A 
HETATM   11  C16 UNK     1      14.837   9.500  34.280  1.00  0.00     0.041 A 
HETATM   12  C18 UNK     1      15.562  10.669  34.510  1.00  0.00     0.026 A 
HETATM   13  C17 UNK     1      16.928  10.710  34.228  1.00  0.00     0.036 A 
HETATM   14  C14 UNK     1      17.568   9.581  33.717  1.00  0.00     0.056 A 
HETATM   15 Cl1  UNK     1      17.821  12.154  34.510  1.00  0.00    -0.084 Cl
BRANCH  10  16
HETATM   16  O2  UNK     1      14.751   7.238  33.553  1.00  0.00    -0.354 OA
HETATM   17  C20 UNK     1      13.873   7.236  32.430  1.00  0.00     0.210 C 
ENDBRANCH  10  16
ENDBRANCH   7   9
ENDBRANCH   3   5
BRANCH   2  18
HETATM   18  C3  UNK     1      18.241   3.122  31.403  1.00  0.00     0.039 A 
HETATM   19  C4  UNK     1      18.546   2.579  30.052  1.00  0.00     0.197 A 
HETATM   20  C1  UNK     1      19.110   1.217  30.005  1.00  0.00     0.049 A 
HETATM   21  O3  UNK     1      18.346   3.217  29.026  1.00  0.00    -0.286 OA
HETATM   22  C2  UNK     1      19.321   0.528  31.199  1.00  0.00     0.089 A 
HETATM   23  C5  UNK     1      19.431   0.620  28.783  1.00  0.00     0.018 A 
HETATM   24  O1  UNK     1      19.025   1.064  32.426  1.00  0.00    -0.321 OA
HETATM   25  C8  UNK     1      19.856  -0.761  31.178  1.00  0.00     0.038 A 
HETATM   26  C7  UNK     1      18.501   2.333  32.455  1.00  0.00     0.158 A 
HETATM   27  C13 UNK     1      20.178  -1.359  29.959  1.00  0.00     0.003 A 
HETATM   28  C11 UNK     1      19.966  -0.669  28.764  1.00  0.00     0.001 A 
ENDBRANCH   2  18
TORSDOF 4
ENDMDL
MODEL 2
REMARK VINA RESULT:      -9.5      3.454      8.974
REMARK  4 active torsions:
REMARK  status: ('A' for Active; 'I' for Inactive)
REMARK    1  A    between atoms: C10_17  and  O2_3 
REMARK       I    between atoms: C15_22  and  N1_6 
REMARK    2  A    between atoms: C6_13  and  N1_6 
REMARK    3  A    between atoms: C3_10  and  C9_16 
REMARK    4  A    between atoms: C12_19  and  C15_22 
ROOT
HETATM    1  N2  UNK     1      19.220   5.412  29.718  1.00  0.00    -0.191 NA
HETATM    2  C9  UNK     1      18.006   4.555  32.876  1.00  0.00     0.045 C 
HETATM    3  C12 UNK     1      18.478   3.987  31.747  1.00  0.00     0.113 C 
HETATM    4  C19 UNK     1      18.887   4.777  30.630  1.00  0.00     0.105 C 
ENDROOT
BRANCH   3   5
HETATM    5  C15 UNK     1      18.548   2.475  31.719  1.00  0.00     0.266 C 
HETATM    6  O4  UNK     1      17.875   1.807  32.499  1.00  0.00    -0.267 OA
HETATM    7  N1  UNK     1      19.418   1.977  30.755  1.00  0.00    -0.320 N 
HETATM    8  H6  UNK     1      19.929   2.633  30.170  1.00  0.00     0.169 HD
BRANCH   7   9
HETATM    9  C6  UNK     1      19.708   0.617  30.474  1.00  0.00     0.070 A 
HETATM   10  C10 UNK     1      19.515   0.120  29.196  1.00  0.00     0.095 A 
HETATM   11  C16 UNK     1      19.803  -1.219  28.936  1.00  0.00     0.041 A 
HETATM   12  C18 UNK     1      20.281  -2.041  29.957  1.00  0.00     0.026 A 
HETATM   13  C17 UNK     1      20.470  -1.524  31.239  1.00  0.00     0.036 A 
HETATM   14  C14 UNK     1      20.181  -0.185  31.500  1.00  0.00     0.056 A 
HETATM   15 Cl1  UNK     1      21.057  -2.540  32.497  1.00  0.00    -0.084 Cl
BRANCH  10  16
HETATM   16  O2  UNK     1      19.050   0.907  28.185  1.00  0.00    -0.354 OA
HETATM   17  C20 UNK     1      17.724   1.413  28.317  1.00  0.00     0.210 C 
ENDBRANCH  10  16
ENDBRANCH   7   9
ENDBRANCH   3   5
BRANCH   2  18
HETATM   18  C3  UNK     1      17.848   5.963  33.127  1.00  0.00     0.039 A 
HETATM   19  C4  UNK     1      19.008   6.786  33.566  1.00  0.00     0.197 A 
HETATM   20  C1  UNK     1      18.745   8.219  33.793  1.00  0.00     0.049 A 
HETATM   21  O3  UNK     1      20.125   6.313  33.730  1.00  0.00    -0.286 OA
HETATM   22  C2  UNK     1      17.456   8.713  33.592  1.00  0.00     0.089 A 
HETATM   23  C5  UNK     1      19.769   9.076  34.205  1.00  0.00     0.018 A 
HETATM   24  O1  UNK     1      16.413   7.919  33.189  1.00  0.00    -0.321 OA
HETATM   25  C8  UNK     1      17.185  10.066  33.800  1.00  0.00     0.038 A 
HETATM   26  C7  UNK     1      16.672   6.587  32.979  1.00  0.00     0.158 A 
HETATM   27  C13 UNK     1      18.207  10.923  34.210  1.00  0.00     0.003 A 
HETATM   28  C11 UNK     1      19.496  10.429  34.412  1.00  0.00     0.001 A 
ENDBRANCH   2  18
TORSDOF 4
ENDMDL
MODEL 3
REMARK VINA RESULT:      -9.4      1.654      2.718
REMARK  4 active torsions:
REMARK  status: ('A' for Active; 'I' for Inactive)
REMARK    1  A    between atoms: C10_17  and  O2_3 
REMARK       I    between atoms: C15_22  and  N1_6 
REMARK    2  A    between atoms: C6_13  and  N1_6 
REMARK    3  A    between atoms: C3_10  and  C9_16 
REMARK    4  A    between atoms: C12_19  and  C15_22 
ROOT
HETATM    1  N2  UNK     1      20.190   5.801  30.061  1.00  0.00    -0.191 NA
HETATM    2  C9  UNK     1      17.964   3.761  31.814  1.00  0.00     0.045 C 
HETATM    3  C12 UNK     1      18.363   5.047  31.734  1.00  0.00     0.113 C 
HETATM    4  C19 UNK     1      19.371   5.459  30.810  1.00  0.00     0.105 C 
ENDROOT
BRANCH   3   5
HETATM    5  C15 UNK     1      17.698   6.030  32.673  1.00  0.00     0.266 C 
HETATM    6  O4  UNK     1      17.289   5.662  33.771  1.00  0.00    -0.267 OA
HETATM    7  N1  UNK     1      17.616   7.321  32.161  1.00  0.00    -0.320 N 
HETATM    8  H6  UNK     1      17.985   7.503  31.231  1.00  0.00     0.169 HD
BRANCH   7   9
HETATM    9  C6  UNK     1      17.055   8.464  32.786  1.00  0.00     0.070 A 
HETATM   10  C10 UNK     1      17.845   9.270  33.587  1.00  0.00     0.095 A 
HETATM   11  C16 UNK     1      17.279  10.390  34.196  1.00  0.00     0.041 A 
HETATM   12  C18 UNK     1      15.931  10.687  33.992  1.00  0.00     0.026 A 
HETATM   13  C17 UNK     1      15.149   9.864  33.182  1.00  0.00     0.036 A 
HETATM   14  C14 UNK     1      15.715   8.743  32.574  1.00  0.00     0.056 A 
HETATM   15 Cl1  UNK     1      13.487  10.230  32.934  1.00  0.00    -0.084 Cl
BRANCH  10  16
HETATM   16  O2  UNK     1      19.164   8.997  33.797  1.00  0.00    -0.354 OA
HETATM   17  C20 UNK     1      19.490   8.226  34.951  1.00  0.00     0.210 C 
ENDBRANCH  10  16
ENDBRANCH   7   9
ENDBRANCH   3   5
BRANCH   2  18
HETATM   18  C3  UNK     1      18.455   2.660  31.029  1.00  0.00     0.039 A 
HETATM   19  C4  UNK     1      18.912   1.407  31.689  1.00  0.00     0.197 A 
HETATM   20  C1  UNK     1      19.393   0.335  30.797  1.00  0.00     0.049 A 
HETATM   21  O3  UNK     1      18.893   1.259  32.903  1.00  0.00    -0.286 OA
HETATM   22  C2  UNK     1      19.395   0.549  29.418  1.00  0.00     0.089 A 
HETATM   23  C5  UNK     1      19.842  -0.880  31.320  1.00  0.00     0.018 A 
HETATM   24  O1  UNK     1      18.966   1.721  28.850  1.00  0.00    -0.321 OA
HETATM   25  C8  UNK     1      19.844  -0.452  28.556  1.00  0.00     0.038 A 
HETATM   26  C7  UNK     1      18.520   2.710  29.691  1.00  0.00     0.158 A 
HETATM   27  C13 UNK     1      20.292  -1.667  29.077  1.00  0.00     0.003 A 
HETATM   28  C11 UNK     1      20.291  -1.880  30.456  1.00  0.00     0.001 A 
ENDBRANCH   2  18
TORSDOF 4
ENDMDL
MODEL 4
REMARK VINA RESULT:      -9.2      7.567     11.678
REMARK  4 active torsions:
REMARK  status: ('A' for Active; 'I' for Inactive)
REMARK    1  A    between atoms: C10_17  and  O2_3 
REMARK       I    between atoms: C15_22  and  N1_6 
REMARK    2  A    between atoms: C6_13  and  N1_6 
REMARK    3  A    between atoms: C3_10  and  C9_16 
REMARK    4  A    between atoms: C12_19  and  C15_22 
ROOT
HETATM    1  N2  UNK     1      22.794  -1.701  34.990  1.00  0.00    -0.191 NA
HETATM    2  C9  UNK     1      19.364  -2.338  34.869  1.00  0.00     0.045 C 
HETATM    3  C12 UNK     1      20.456  -2.625  35.607  1.00  0.00     0.113 C 
HETATM    4  C19 UNK     1      21.743  -2.113  35.263  1.00  0.00     0.105 C 
ENDROOT
BRANCH   3   5
HETATM    5  C15 UNK     1      20.253  -3.521  36.811  1.00  0.00     0.266 C 
HETATM    6  O4  UNK     1      20.054  -3.034  37.921  1.00  0.00    -0.267 OA
HETATM    7  N1  UNK     1      20.317  -4.877  36.512  1.00  0.00    -0.320 N 
HETATM    8  H6  UNK     1      20.496  -5.160  35.551  1.00  0.00     0.169 HD
BRANCH   7   9
HETATM    9  C6  UNK     1      20.169  -5.967  37.408  1.00  0.00     0.070 A 
HETATM   10  C10 UNK     1      18.981  -6.675  37.443  1.00  0.00     0.095 A 
HETATM   11  C16 UNK     1      18.850  -7.743  38.331  1.00  0.00     0.041 A 
HETATM   12  C18 UNK     1      19.912  -8.088  39.168  1.00  0.00     0.026 A 
HETATM   13  C17 UNK     1      21.103  -7.363  39.120  1.00  0.00     0.036 A 
HETATM   14  C14 UNK     1      21.233  -6.294  38.233  1.00  0.00     0.056 A 
HETATM   15 Cl1  UNK     1      22.410  -7.787  40.155  1.00  0.00    -0.084 Cl
BRANCH  10  16
HETATM   16  O2  UNK     1      17.933  -6.355  36.632  1.00  0.00    -0.354 OA
HETATM   17  C20 UNK     1      17.636  -7.261  35.571  1.00  0.00     0.210 C 
ENDBRANCH  10  16
ENDBRANCH   7   9
ENDBRANCH   3   5
BRANCH   2  18
HETATM   18  C3  UNK     1      19.318  -1.517  33.689  1.00  0.00     0.039 A 
HETATM   19  C4  UNK     1      19.991  -1.957  32.437  1.00  0.00     0.197 A 
HETATM   20  C1  UNK     1      19.883  -1.047  31.280  1.00  0.00     0.049 A 
HETATM   21  O3  UNK     1      20.603  -3.014  32.355  1.00  0.00    -0.286 OA
HETATM   22  C2  UNK     1      19.174   0.147  31.420  1.00  0.00     0.089 A 
HETATM   23  C5  UNK     1      20.479  -1.371  30.059  1.00  0.00     0.018 A 
HETATM   24  O1  UNK     1      18.569   0.516  32.594  1.00  0.00    -0.321 OA
HETATM   25  C8  UNK     1      19.057   1.021  30.339  1.00  0.00     0.038 A 
HETATM   26  C7  UNK     1      18.676  -0.341  33.662  1.00  0.00     0.158 A 
HETATM   27  C13 UNK     1      19.652   0.699  29.118  1.00  0.00     0.003 A 
HETATM   28  C11 UNK     1      20.361  -0.495  28.979  1.00  0.00     0.001 A 
ENDBRANCH   2  18
TORSDOF 4
ENDMDL
MODEL 5
REMARK VINA RESULT:      -9.1      3.554      8.731
REMARK  4 active torsions:
REMARK  status: ('A' for Active; 'I' for Inactive)
REMARK    1  A    between atoms: C10_17  and  O2_3 
REMARK       I    between atoms: C15_22  and  N1_6 
REMARK    2  A    between atoms: C6_13  and  N1_6 
REMARK    3  A    between atoms: C3_10  and  C9_16 
REMARK    4  A    between atoms: C12_19  and  C15_22 
ROOT
HETATM    1  N2  UNK     1      19.709   5.933  29.655  1.00  0.00    -0.191 NA
HETATM    2  C9  UNK     1      17.775   5.059  32.426  1.00  0.00     0.045 C 
HETATM    3  C12 UNK     1      18.346   4.511  31.334  1.00  0.00     0.113 C 
HETATM    4  C19 UNK     1      19.097   5.299  30.411  1.00  0.00     0.105 C 
ENDROOT
BRANCH   3   5
HETATM    5  C15 UNK     1      18.147   3.024  31.131  1.00  0.00     0.266 C 
HETATM    6  O4  UNK     1      17.189   2.607  30.484  1.00  0.00    -0.267 OA
HETATM    7  N1  UNK     1      19.126   2.243  31.736  1.00  0.00    -0.320 N 
HETATM    8  H6  UNK     1      19.869   2.705  32.255  1.00  0.00     0.169 HD
BRANCH   7   9
HETATM    9  C6  UNK     1      19.227   0.829  31.732  1.00  0.00     0.070 A 
HETATM   10  C10 UNK     1      18.636   0.092  32.745  1.00  0.00     0.095 A 
HETATM   11  C16 UNK     1      18.744  -1.298  32.728  1.00  0.00     0.041 A 
HETATM   12  C18 UNK     1      19.441  -1.931  31.699  1.00  0.00     0.026 A 
HETATM   13  C17 UNK     1      20.031  -1.173  30.686  1.00  0.00     0.036 A 
HETATM   14  C14 UNK     1      19.923   0.217  30.703  1.00  0.00     0.056 A 
HETATM   15 Cl1  UNK     1      20.891  -1.956  29.418  1.00  0.00    -0.084 Cl
BRANCH  10  16
HETATM   16  O2  UNK     1      17.950   0.692  33.759  1.00  0.00    -0.354 OA
HETATM   17  C20 UNK     1      18.468   0.528  35.076  1.00  0.00     0.210 C 
ENDBRANCH  10  16
ENDBRANCH   7   9
ENDBRANCH   3   5
BRANCH   2  18
HETATM   18  C3  UNK     1      17.827   6.442  32.819  1.00  0.00     0.039 A 
HETATM   19  C4  UNK     1      19.062   7.008  33.426  1.00  0.00     0.197 A 
HETATM   20  C1  UNK     1      19.018   8.437  33.790  1.00  0.00     0.049 A 
HETATM   21  O3  UNK     1      20.069   6.338  33.615  1.00  0.00    -0.286 OA
HETATM   22  C2  UNK     1      17.849   9.161  33.555  1.00  0.00     0.089 A 
HETATM   23  C5  UNK     1      20.128   9.061  34.364  1.00  0.00     0.018 A 
HETATM   24  O1  UNK     1      16.730   8.600  32.995  1.00  0.00    -0.321 OA
HETATM   25  C8  UNK     1      17.785  10.514  33.890  1.00  0.00     0.038 A 
HETATM   26  C7  UNK     1      16.786   7.270  32.658  1.00  0.00     0.158 A 
HETATM   27  C13 UNK     1      18.893  11.140  34.463  1.00  0.00     0.003 A 
HETATM   28  C11 UNK     1      20.062  10.415  34.699  1.00  0.00     0.001 A 
ENDBRANCH   2  18
TORSDOF 4
ENDMDL
MODEL 6
REMARK VINA RESULT:      -9.0     22.367     24.071
REMARK  4 active torsions:
REMARK  status: ('A' for Active; 'I' for Inactive)
REMARK    1  A    between atoms: C10_17  and  O2_3 
REMARK       I    between atoms: C15_22  and  N1_6 
REMARK    2  A    between atoms: C6_13  and  N1_6 
REMARK    3  A    between atoms: C3_10  and  C9_16 
REMARK    4  A    between atoms: C12_19  and  C15_22 
ROOT
HETATM    1  N2  UNK     1      11.543   6.848   6.050  1.00  0.00    -0.191 NA
HETATM    2  C9  UNK     1      11.422   5.579   9.299  1.00  0.00     0.045 C 
HETATM    3  C12 UNK     1      10.620   5.832   8.244  1.00  0.00     0.113 C 
HETATM    4  C19 UNK     1      11.133   6.392   7.036  1.00  0.00     0.105 C 
ENDROOT
BRANCH   3   5
HETATM    5  C15 UNK     1       9.152   5.500   8.405  1.00  0.00     0.266 C 
HETATM    6  O4  UNK     1       8.413   5.457   7.425  1.00  0.00    -0.267 OA
HETATM    7  N1  UNK     1       8.776   5.266   9.724  1.00  0.00    -0.320 N 
HETATM    8  H6  UNK     1       9.480   5.339  10.454  1.00  0.00     0.169 HD
BRANCH   7   9
HETATM    9  C6  UNK     1       7.485   4.934  10.207  1.00  0.00     0.070 A 
HETATM   10  C10 UNK     1       6.685   5.914  10.770  1.00  0.00     0.095 A 
HETATM   11  C16 UNK     1       5.418   5.572  11.242  1.00  0.00     0.041 A 
HETATM   12  C18 UNK     1       4.969   4.255  11.141  1.00  0.00     0.026 A 
HETATM   13  C17 UNK     1       5.788   3.279  10.571  1.00  0.00     0.036 A 
HETATM   14  C14 UNK     1       7.055   3.621  10.100  1.00  0.00     0.056 A 
HETATM   15 Cl1  UNK     1       5.233   1.655  10.450  1.00  0.00    -0.084 Cl
BRANCH  10  16
HETATM   16  O2  UNK     1       7.106   7.206  10.876  1.00  0.00    -0.354 OA
HETATM   17  C20 UNK     1       6.099   8.216  10.875  1.00  0.00     0.210 C 
ENDBRANCH  10  16
ENDBRANCH   7   9
ENDBRANCH   3   5
BRANCH   2  18
HETATM   18  C3  UNK     1      12.839   5.815   9.376  1.00  0.00     0.039 A 
HETATM   19  C4  UNK     1      13.369   6.993  10.114  1.00  0.00     0.197 A 
HETATM   20  C1  UNK     1      14.837   7.144  10.138  1.00  0.00     0.049 A 
HETATM   21  O3  UNK     1      12.641   7.799  10.677  1.00  0.00    -0.286 OA
HETATM   22  C2  UNK     1      15.628   6.200   9.483  1.00  0.00     0.089 A 
HETATM   23  C5  UNK     1      15.432   8.217  10.806  1.00  0.00     0.018 A 
HETATM   24  O1  UNK     1      15.098   5.128   8.811  1.00  0.00    -0.321 OA
HETATM   25  C8  UNK     1      17.018   6.323   9.494  1.00  0.00     0.038 A 
HETATM   26  C7  UNK     1      13.731   4.998   8.798  1.00  0.00     0.158 A 
HETATM   27  C13 UNK     1      17.614   7.394  10.162  1.00  0.00     0.003 A 
HETATM   28  C11 UNK     1      16.822   8.338  10.817  1.00  0.00     0.001 A 
ENDBRANCH   2  18
TORSDOF 4
ENDMDL
MODEL 7
REMARK VINA RESULT:      -8.9      8.207     11.191
REMARK  4 active torsions:
REMARK  status: ('A' for Active; 'I' for Inactive)
REMARK    1  A    between atoms: C10_17  and  O2_3 
REMARK       I    between atoms: C15_22  and  N1_6 
REMARK    2  A    between atoms: C6_13  and  N1_6 
REMARK    3  A    between atoms: C3_10  and  C9_16 
REMARK    4  A    between atoms: C12_19  and  C15_22 
ROOT
HETATM    1  N2  UNK     1      22.388  -4.687  37.996  1.00  0.00    -0.191 NA
HETATM    2  C9  UNK     1      19.198  -5.335  36.734  1.00  0.00     0.045 C 
HETATM    3  C12 UNK     1      19.981  -4.307  37.122  1.00  0.00     0.113 C 
HETATM    4  C19 UNK     1      21.308  -4.521  37.603  1.00  0.00     0.105 C 
ENDROOT
BRANCH   3   5
HETATM    5  C15 UNK     1      19.384  -2.919  37.030  1.00  0.00     0.266 C 
HETATM    6  O4  UNK     1      19.391  -2.173  38.005  1.00  0.00    -0.267 OA
HETATM    7  N1  UNK     1      18.859  -2.621  35.777  1.00  0.00    -0.320 N 
HETATM    8  H6  UNK     1      18.904  -3.328  35.046  1.00  0.00     0.169 HD
BRANCH   7   9
HETATM    9  C6  UNK     1      18.234  -1.416  35.367  1.00  0.00     0.070 A 
HETATM   10  C10 UNK     1      18.679  -0.759  34.232  1.00  0.00     0.095 A 
HETATM   11  C16 UNK     1      18.056   0.426  33.842  1.00  0.00     0.041 A 
HETATM   12  C18 UNK     1      16.995   0.935  34.592  1.00  0.00     0.026 A 
HETATM   13  C17 UNK     1      16.559   0.260  35.733  1.00  0.00     0.036 A 
HETATM   14  C14 UNK     1      17.184  -0.924  36.124  1.00  0.00     0.056 A 
HETATM   15 Cl1  UNK     1      15.253   0.891  36.658  1.00  0.00    -0.084 Cl
BRANCH  10  16
HETATM   16  O2  UNK     1      19.713  -1.241  33.486  1.00  0.00    -0.354 OA
HETATM   17  C20 UNK     1      19.465  -1.453  32.098  1.00  0.00     0.210 C 
ENDBRANCH  10  16
ENDBRANCH   7   9
ENDBRANCH   3   5
BRANCH   2  18
HETATM   18  C3  UNK     1      19.550  -6.730  36.737  1.00  0.00     0.039 A 
HETATM   19  C4  UNK     1      20.426  -7.290  35.673  1.00  0.00     0.197 A 
HETATM   20  C1  UNK     1      20.732  -8.730  35.767  1.00  0.00     0.049 A 
HETATM   21  O3  UNK     1      20.877  -6.605  34.764  1.00  0.00    -0.286 OA
HETATM   22  C2  UNK     1      20.196  -9.471  36.820  1.00  0.00     0.089 A 
HETATM   23  C5  UNK     1      21.547  -9.349  34.816  1.00  0.00     0.018 A 
HETATM   24  O1  UNK     1      19.390  -8.916  37.781  1.00  0.00    -0.321 OA
HETATM   25  C8  UNK     1      20.474 -10.834  36.929  1.00  0.00     0.038 A 
HETATM   26  C7  UNK     1      19.114  -7.574  37.683  1.00  0.00     0.158 A 
HETATM   27  C13 UNK     1      21.288 -11.454  35.981  1.00  0.00     0.003 A 
HETATM   28  C11 UNK     1      21.824 -10.713  34.927  1.00  0.00     0.001 A 
ENDBRANCH   2  18
TORSDOF 4
ENDMDL
MODEL 8
REMARK VINA RESULT:      -8.9      7.421     11.689
REMARK  4 active torsions:
REMARK  status: ('A' for Active; 'I' for Inactive)
REMARK    1  A    between atoms: C10_17  and  O2_3 
REMARK       I    between atoms: C15_22  and  N1_6 
REMARK    2  A    between atoms: C6_13  and  N1_6 
REMARK    3  A    between atoms: C3_10  and  C9_16 
REMARK    4  A    between atoms: C12_19  and  C15_22 
ROOT
HETATM    1  N2  UNK     1      21.207  -2.466  33.582  1.00  0.00    -0.191 NA
HETATM    2  C9  UNK     1      18.909  -1.107  35.830  1.00  0.00     0.045 C 
HETATM    3  C12 UNK     1      19.748  -2.154  35.697  1.00  0.00     0.113 C 
HETATM    4  C19 UNK     1      20.552  -2.322  34.529  1.00  0.00     0.105 C 
ENDROOT
BRANCH   3   5
HETATM    5  C15 UNK     1      19.794  -3.145  36.841  1.00  0.00     0.266 C 
HETATM    6  O4  UNK     1      19.784  -2.752  38.005  1.00  0.00    -0.267 OA
HETATM    7  N1  UNK     1      19.845  -4.471  36.427  1.00  0.00    -0.320 N 
HETATM    8  H6  UNK     1      19.857  -4.673  35.430  1.00  0.00     0.169 HD
BRANCH   7   9
HETATM    9  C6  UNK     1      19.896  -5.629  37.244  1.00  0.00     0.070 A 
HETATM   10  C10 UNK     1      18.844  -6.530  37.230  1.00  0.00     0.095 A 
HETATM   11  C16 UNK     1      18.908  -7.663  38.040  1.00  0.00     0.041 A 
HETATM   12  C18 UNK     1      20.024  -7.881  38.849  1.00  0.00     0.026 A 
HETATM   13  C17 UNK     1      21.075  -6.963  38.850  1.00  0.00     0.036 A 
HETATM   14  C14 UNK     1      21.011  -5.829  38.041  1.00  0.00     0.056 A 
HETATM   15 Cl1  UNK     1      22.449  -7.232  39.850  1.00  0.00    -0.084 Cl
BRANCH  10  16
HETATM   16  O2  UNK     1      17.747  -6.336  36.446  1.00  0.00    -0.354 OA
HETATM   17  C20 UNK     1      17.468  -7.333  35.465  1.00  0.00     0.210 C 
ENDBRANCH  10  16
ENDBRANCH   7   9
ENDBRANCH   3   5
BRANCH   2  18
HETATM   18  C3  UNK     1      18.698  -0.050  34.877  1.00  0.00     0.039 A 
HETATM   19  C4  UNK     1      18.724   1.373  35.310  1.00  0.00     0.197 A 
HETATM   20  C1  UNK     1      18.502   2.383  34.258  1.00  0.00     0.049 A 
HETATM   21  O3  UNK     1      18.922   1.703  36.472  1.00  0.00    -0.286 OA
HETATM   22  C2  UNK     1      18.282   1.960  32.947  1.00  0.00     0.089 A 
HETATM   23  C5  UNK     1      18.510   3.746  34.564  1.00  0.00     0.018 A 
HETATM   24  O1  UNK     1      18.263   0.635  32.589  1.00  0.00    -0.321 OA
HETATM   25  C8  UNK     1      18.071   2.897  31.935  1.00  0.00     0.038 A 
HETATM   26  C7  UNK     1      18.474  -0.294  33.578  1.00  0.00     0.158 A 
HETATM   27  C13 UNK     1      18.080   4.259  32.239  1.00  0.00     0.003 A 
HETATM   28  C11 UNK     1      18.299   4.682  33.551  1.00  0.00     0.001 A 
ENDBRANCH   2  18
TORSDOF 4
ENDMDL
MODEL 9
REMARK VINA RESULT:      -8.9      7.694     10.964
REMARK  4 active torsions:
REMARK  status: ('A' for Active; 'I' for Inactive)
REMARK    1  A    between atoms: C10_17  and  O2_3 
REMARK       I    between atoms: C15_22  and  N1_6 
REMARK    2  A    between atoms: C6_13  and  N1_6 
REMARK    3  A    between atoms: C3_10  and  C9_16 
REMARK    4  A    between atoms: C12_19  and  C15_22 
ROOT
HETATM    1  N2  UNK     1      19.353  -2.699  37.834  1.00  0.00    -0.191 NA
HETATM    2  C9  UNK     1      20.230  -4.748  35.148  1.00  0.00     0.045 C 
HETATM    3  C12 UNK     1      20.128  -3.445  35.480  1.00  0.00     0.113 C 
HETATM    4  C19 UNK     1      19.700  -3.038  36.780  1.00  0.00     0.105 C 
ENDROOT
BRANCH   3   5
HETATM    5  C15 UNK     1      20.481  -2.435  34.408  1.00  0.00     0.266 C 
HETATM    6  O4  UNK     1      21.641  -2.056  34.269  1.00  0.00    -0.267 OA
HETATM    7  N1  UNK     1      19.389  -2.021  33.653  1.00  0.00    -0.320 N 
HETATM    8  H6  UNK     1      18.471  -2.402  33.869  1.00  0.00     0.169 HD
BRANCH   7   9
HETATM    9  C6  UNK     1      19.383  -1.092  32.581  1.00  0.00     0.070 A 
HETATM   10  C10 UNK     1      18.697   0.104  32.708  1.00  0.00     0.095 A 
HETATM   11  C16 UNK     1      18.700   1.007  31.646  1.00  0.00     0.041 A 
HETATM   12  C18 UNK     1      19.391   0.701  30.472  1.00  0.00     0.026 A 
HETATM   13  C17 UNK     1      20.077  -0.508  30.361  1.00  0.00     0.036 A 
HETATM   14  C14 UNK     1      20.073  -1.412  31.424  1.00  0.00     0.056 A 
HETATM   15 Cl1  UNK     1      20.926  -0.885  28.913  1.00  0.00    -0.084 Cl
BRANCH  10  16
HETATM   16  O2  UNK     1      18.018   0.421  33.847  1.00  0.00    -0.354 OA
HETATM   17  C20 UNK     1      18.241   1.719  34.392  1.00  0.00     0.210 C 
ENDBRANCH  10  16
ENDBRANCH   7   9
ENDBRANCH   3   5
BRANCH   2  18
HETATM   18  C3  UNK     1      19.945  -5.874  35.996  1.00  0.00     0.039 A 
HETATM   19  C4  UNK     1      20.892  -6.264  37.076  1.00  0.00     0.197 A 
HETATM   20  C1  UNK     1      20.509  -7.430  37.894  1.00  0.00     0.049 A 
HETATM   21  O3  UNK     1      21.935  -5.658  37.287  1.00  0.00    -0.286 OA
HETATM   22  C2  UNK     1      19.311  -8.089  37.618  1.00  0.00     0.089 A 
HETATM   23  C5  UNK     1      21.331  -7.873  38.933  1.00  0.00     0.018 A 
HETATM   24  O1  UNK     1      18.466  -7.698  36.610  1.00  0.00    -0.321 OA
HETATM   25  C8  UNK     1      18.927  -9.193  38.380  1.00  0.00     0.038 A 
HETATM   26  C7  UNK     1      18.834  -6.610  35.857  1.00  0.00     0.158 A 
HETATM   27  C13 UNK     1      19.747  -9.637  39.419  1.00  0.00     0.003 A 
HETATM   28  C11 UNK     1      20.945  -8.978  39.695  1.00  0.00     0.001 A 
ENDBRANCH   2  18
TORSDOF 4
ENDMDL
MODEL 10
REMARK VINA RESULT:      -8.5      3.234      9.226
REMARK  4 active torsions:
REMARK  status: ('A' for Active; 'I' for Inactive)
REMARK    1  A    between atoms: C10_17  and  O2_3 
REMARK       I    between atoms: C15_22  and  N1_6 
REMARK    2  A    between atoms: C6_13  and  N1_6 
REMARK    3  A    between atoms: C3_10  and  C9_16 
REMARK    4  A    between atoms: C12_19  and  C15_22 
ROOT
HETATM    1  N2  UNK     1      16.325   8.148  30.764  1.00  0.00    -0.191 NA
HETATM    2  C9  UNK     1      17.728   7.701  33.928  1.00  0.00     0.045 C 
HETATM    3  C12 UNK     1      17.690   7.123  32.710  1.00  0.00     0.113 C 
HETATM    4  C19 UNK     1      16.936   7.692  31.639  1.00  0.00     0.105 C 
ENDROOT
BRANCH   3   5
HETATM    5  C15 UNK     1      18.476   5.842  32.535  1.00  0.00     0.266 C 
HETATM    6  O4  UNK     1      19.699   5.843  32.646  1.00  0.00    -0.267 OA
HETATM    7  N1  UNK     1      17.682   4.737  32.250  1.00  0.00    -0.320 N 
HETATM    8  H6  UNK     1      16.675   4.863  32.174  1.00  0.00     0.169 HD
BRANCH   7   9
HETATM    9  C6  UNK     1      18.107   3.401  32.031  1.00  0.00     0.070 A 
HETATM   10  C10 UNK     1      18.256   2.540  33.105  1.00  0.00     0.095 A 
HETATM   11  C16 UNK     1      18.675   1.230  32.874  1.00  0.00     0.041 A 
HETATM   12  C18 UNK     1      18.938   0.801  31.573  1.00  0.00     0.026 A 
HETATM   13  C17 UNK     1      18.784   1.682  30.502  1.00  0.00     0.036 A 
HETATM   14  C14 UNK     1      18.365   2.993  30.733  1.00  0.00     0.056 A 
HETATM   15 Cl1  UNK     1      19.111   1.152  28.899  1.00  0.00    -0.084 Cl
BRANCH  10  16
HETATM   16  O2  UNK     1      18.002   2.940  34.383  1.00  0.00    -0.354 OA
HETATM   17  C20 UNK     1      18.610   2.186  35.429  1.00  0.00     0.210 C 
ENDBRANCH  10  16
ENDBRANCH   7   9
ENDBRANCH   3   5
BRANCH   2  18
HETATM   18  C3  UNK     1      17.061   8.913  34.325  1.00  0.00     0.039 A 
HETATM   19  C4  UNK     1      17.670  10.239  34.035  1.00  0.00     0.197 A 
HETATM   20  C1  UNK     1      16.906  11.421  34.479  1.00  0.00     0.049 A 
HETATM   21  O3  UNK     1      18.743  10.359  33.459  1.00  0.00    -0.286 OA
HETATM   22  C2  UNK     1      15.687  11.236  35.130  1.00  0.00     0.089 A 
HETATM   23  C5  UNK     1      17.393  12.711  34.251  1.00  0.00     0.018 A 
HETATM   24  O1  UNK     1      15.161   9.994  35.380  1.00  0.00    -0.321 OA
HETATM   25  C8  UNK     1      14.947  12.340  35.556  1.00  0.00     0.038 A 
HETATM   26  C7  UNK     1      15.882   8.903  34.961  1.00  0.00     0.158 A 
HETATM   27  C13 UNK     1      15.431  13.629  35.329  1.00  0.00     0.003 A 
HETATM   28  C11 UNK     1      16.651  13.813  34.678  1.00  0.00     0.001 A 
ENDBRANCH   2  18
TORSDOF 4
ENDMDL
