MODEL 1
REMARK VINA RESULT:      -9.3      0.000      0.000
REMARK  4 active torsions:
REMARK  status: ('A' for Active; 'I' for Inactive)
REMARK    1  A    between atoms: C12_18  and  N1_5 
REMARK    2  A    between atoms: C4_10  and  N1_5 
REMARK    3  A    between atoms: C10_16  and  N2_6 
REMARK    4  A    between atoms: C12_18  and  N2_6 
ROOT
HETATM    1  N1  UNK     1      19.172   3.852  30.146  1.00  0.00    -0.333 N 
HETATM    2  H5  UNK     1      19.933   3.980  29.482  1.00  0.00     0.168 HD
ENDROOT
BRANCH   1   3
HETATM    3  C12 UNK     1      18.566   2.591  30.052  1.00  0.00     0.176 C 
HETATM    4  S1  UNK     1      17.829   2.195  28.589  1.00  0.00    -0.041 SA
BRANCH   3   5
HETATM    5  N2  UNK     1      18.740   1.758  31.142  1.00  0.00    -0.333 N 
HETATM    6  H9  UNK     1      18.821   2.253  32.024  1.00  0.00     0.168 HD
BRANCH   5   7
HETATM    7  C10 UNK     1      19.304   0.461  31.241  1.00  0.00     0.037 A 
HETATM    8  C14 UNK     1      20.120   0.001  30.222  1.00  0.00     0.072 A 
HETATM    9  C16 UNK     1      20.677  -1.274  30.319  1.00  0.00     0.124 A 
HETATM   10  C13 UNK     1      20.410  -2.069  31.434  1.00  0.00    -0.023 A 
HETATM   11  F1  UNK     1      21.467  -1.728  29.336  1.00  0.00    -0.205 F 
HETATM   12  C17 UNK     1      19.585  -1.588  32.451  1.00  0.00     0.012 A 
HETATM   13  C18 UNK     1      21.002  -3.434  31.541  1.00  0.00     0.051 C 
HETATM   14  C15 UNK     1      19.028  -0.313  32.354  1.00  0.00     0.030 A 
ENDBRANCH   5   7
ENDBRANCH   3   5
ENDBRANCH   1   3
BRANCH   1  15
HETATM   15  C4  UNK     1      19.070   4.868  31.098  1.00  0.00     0.036 A 
HETATM   16  C5  UNK     1      17.830   5.199  31.634  1.00  0.00     0.067 A 
HETATM   17  C2  UNK     1      17.750   6.217  32.586  1.00  0.00     0.092 A 
HETATM   18  C1  UNK     1      18.875   6.920  33.021  1.00  0.00     0.004 A 
HETATM   19  O1  UNK     1      16.468   6.508  33.093  1.00  0.00    -0.275 OA
HETATM   20  C3  UNK     1      18.698   7.977  34.026  1.00  0.00    -0.043 A 
HETATM   21  C6  UNK     1      20.114   6.571  32.468  1.00  0.00     0.017 A 
HETATM   22  C8  UNK     1      17.467   8.232  34.491  1.00  0.00     0.090 A 
HETATM   23  C9  UNK     1      19.887   8.751  34.515  1.00  0.00     0.049 C 
HETATM   24  C11 UNK     1      16.271   7.498  34.042  1.00  0.00     0.288 A 
HETATM   25  O2  UNK     1      15.159   7.759  34.490  1.00  0.00    -0.260 OA
HETATM   26  C7  UNK     1      20.210   5.552  31.514  1.00  0.00     0.030 A 
ENDBRANCH   1  15
TORSDOF 4
ENDMDL
MODEL 2
REMARK VINA RESULT:      -9.2      4.600      8.054
REMARK  4 active torsions:
REMARK  status: ('A' for Active; 'I' for Inactive)
REMARK    1  A    between atoms: C12_18  and  N1_5 
REMARK    2  A    between atoms: C4_10  and  N1_5 
REMARK    3  A    between atoms: C10_16  and  N2_6 
REMARK    4  A    between atoms: C12_18  and  N2_6 
ROOT
HETATM    1  N1  UNK     1      18.557  -0.652  31.604  1.00  0.00    -0.333 N 
HETATM    2  H5  UNK     1      17.833  -1.172  31.113  1.00  0.00     0.168 HD
ENDROOT
BRANCH   1   3
HETATM    3  C12 UNK     1      19.147   0.347  30.818  1.00  0.00     0.176 C 
HETATM    4  S1  UNK     1      20.665   0.017  30.162  1.00  0.00    -0.041 SA
BRANCH   3   5
HETATM    5  N2  UNK     1      18.364   1.459  30.570  1.00  0.00    -0.333 N 
HETATM    6  H9  UNK     1      17.862   1.414  29.689  1.00  0.00     0.168 HD
BRANCH   5   7
HETATM    7  C10 UNK     1      18.485   2.800  31.012  1.00  0.00     0.037 A 
HETATM    8  C14 UNK     1      18.968   3.757  30.137  1.00  0.00     0.072 A 
HETATM    9  C16 UNK     1      19.087   5.078  30.571  1.00  0.00     0.124 A 
HETATM   10  C13 UNK     1      18.718   5.420  31.872  1.00  0.00    -0.023 A 
HETATM   11  F1  UNK     1      19.555   6.010  29.731  1.00  0.00    -0.205 F 
HETATM   12  C17 UNK     1      18.233   4.441  32.739  1.00  0.00     0.012 A 
HETATM   13  C18 UNK     1      18.844   6.831  32.340  1.00  0.00     0.051 C 
HETATM   14  C15 UNK     1      18.114   3.121  32.306  1.00  0.00     0.030 A 
ENDBRANCH   5   7
ENDBRANCH   3   5
ENDBRANCH   1   3
BRANCH   1  15
HETATM   15  C4  UNK     1      18.626  -0.927  32.971  1.00  0.00     0.036 A 
HETATM   16  C5  UNK     1      19.489  -1.910  33.443  1.00  0.00     0.067 A 
HETATM   17  C2  UNK     1      19.543  -2.168  34.814  1.00  0.00     0.092 A 
HETATM   18  C1  UNK     1      18.759  -1.471  35.734  1.00  0.00     0.004 A 
HETATM   19  O1  UNK     1      20.436  -3.175  35.232  1.00  0.00    -0.275 OA
HETATM   20  C3  UNK     1      18.880  -1.808  37.159  1.00  0.00    -0.043 A 
HETATM   21  C6  UNK     1      17.896  -0.485  35.239  1.00  0.00     0.017 A 
HETATM   22  C8  UNK     1      19.738  -2.771  37.528  1.00  0.00     0.090 A 
HETATM   23  C9  UNK     1      18.051  -1.078  38.174  1.00  0.00     0.049 C 
HETATM   24  C11 UNK     1      20.572  -3.514  36.568  1.00  0.00     0.288 A 
HETATM   25  O2  UNK     1      21.346  -4.388  36.943  1.00  0.00    -0.260 OA
HETATM   26  C7  UNK     1      17.831  -0.215  33.868  1.00  0.00     0.030 A 
ENDBRANCH   1  15
TORSDOF 4
ENDMDL
MODEL 3
REMARK VINA RESULT:      -9.2      8.397     13.028
REMARK  4 active torsions:
REMARK  status: ('A' for Active; 'I' for Inactive)
REMARK    1  A    between atoms: C12_18  and  N1_5 
REMARK    2  A    between atoms: C4_10  and  N1_5 
REMARK    3  A    between atoms: C10_16  and  N2_6 
REMARK    4  A    between atoms: C12_18  and  N2_6 
ROOT
HETATM    1  N1  UNK     1      18.377  -5.031  36.405  1.00  0.00    -0.333 N 
HETATM    2  H5  UNK     1      17.367  -5.065  36.281  1.00  0.00     0.168 HD
ENDROOT
BRANCH   1   3
HETATM    3  C12 UNK     1      18.837  -3.778  36.832  1.00  0.00     0.176 C 
HETATM    4  S1  UNK     1      20.469  -3.649  37.232  1.00  0.00    -0.041 SA
BRANCH   3   5
HETATM    5  N2  UNK     1      17.919  -2.746  36.767  1.00  0.00    -0.333 N 
HETATM    6  H9  UNK     1      16.958  -3.061  36.688  1.00  0.00     0.168 HD
BRANCH   5   7
HETATM    7  C10 UNK     1      18.049  -1.411  36.306  1.00  0.00     0.037 A 
HETATM    8  C14 UNK     1      17.953  -0.372  37.213  1.00  0.00     0.072 A 
HETATM    9  C16 UNK     1      18.084   0.942  36.761  1.00  0.00     0.124 A 
HETATM   10  C13 UNK     1      18.309   1.194  35.407  1.00  0.00    -0.023 A 
HETATM   11  F1  UNK     1      17.991   1.954  37.633  1.00  0.00    -0.205 F 
HETATM   12  C17 UNK     1      18.403   0.132  34.507  1.00  0.00     0.012 A 
HETATM   13  C18 UNK     1      18.448   2.596  34.919  1.00  0.00     0.051 C 
HETATM   14  C15 UNK     1      18.273  -1.181  34.959  1.00  0.00     0.030 A 
ENDBRANCH   5   7
ENDBRANCH   3   5
ENDBRANCH   1   3
BRANCH   1  15
HETATM   15  C4  UNK     1      19.002  -6.276  36.321  1.00  0.00     0.036 A 
HETATM   16  C5  UNK     1      18.686  -7.278  37.231  1.00  0.00     0.067 A 
HETATM   17  C2  UNK     1      19.323  -8.517  37.128  1.00  0.00     0.092 A 
HETATM   18  C1  UNK     1      20.271  -8.787  36.140  1.00  0.00     0.004 A 
HETATM   19  O1  UNK     1      18.961  -9.493  38.079  1.00  0.00    -0.275 OA
HETATM   20  C3  UNK     1      20.891 -10.119  36.107  1.00  0.00    -0.043 A 
HETATM   21  C6  UNK     1      20.575  -7.764  35.234  1.00  0.00     0.017 A 
HETATM   22  C8  UNK     1      20.528 -11.027  37.023  1.00  0.00     0.090 A 
HETATM   23  C9  UNK     1      21.914 -10.441  35.057  1.00  0.00     0.049 C 
HETATM   24  C11 UNK     1      19.529 -10.757  38.071  1.00  0.00     0.288 A 
HETATM   25  O2  UNK     1      19.222 -11.614  38.893  1.00  0.00    -0.260 OA
HETATM   26  C7  UNK     1      19.945  -6.518  35.323  1.00  0.00     0.030 A 
ENDBRANCH   1  15
TORSDOF 4
ENDMDL
MODEL 4
REMARK VINA RESULT:      -9.1      3.563      5.039
REMARK  4 active torsions:
REMARK  status: ('A' for Active; 'I' for Inactive)
REMARK    1  A    between atoms: C12_18  and  N1_5 
REMARK    2  A    between atoms: C4_10  and  N1_5 
REMARK    3  A    between atoms: C10_16  and  N2_6 
REMARK    4  A    between atoms: C12_18  and  N2_6 
ROOT
HETATM    1  N1  UNK     1      18.685  -0.302  31.089  1.00  0.00    -0.333 N 
HETATM    2  H5  UNK     1      18.634  -0.756  30.179  1.00  0.00     0.168 HD
ENDROOT
BRANCH   1   3
HETATM    3  C12 UNK     1      18.952  -1.196  32.136  1.00  0.00     0.176 C 
HETATM    4  S1  UNK     1      20.489  -1.884  32.192  1.00  0.00    -0.041 SA
BRANCH   3   5
HETATM    5  N2  UNK     1      17.952  -1.328  33.082  1.00  0.00    -0.333 N 
HETATM    6  H9  UNK     1      17.072  -1.658  32.701  1.00  0.00     0.168 HD
BRANCH   5   7
HETATM    7  C10 UNK     1      17.746  -0.664  34.318  1.00  0.00     0.037 A 
HETATM    8  C14 UNK     1      16.457  -0.347  34.706  1.00  0.00     0.072 A 
HETATM    9  C16 UNK     1      16.253   0.305  35.923  1.00  0.00     0.124 A 
HETATM   10  C13 UNK     1      17.343   0.629  36.731  1.00  0.00    -0.023 A 
HETATM   11  F1  UNK     1      15.008   0.617  36.306  1.00  0.00    -0.205 F 
HETATM   12  C17 UNK     1      18.636   0.302  36.322  1.00  0.00     0.012 A 
HETATM   13  C18 UNK     1      17.130   1.327  38.032  1.00  0.00     0.051 C 
HETATM   14  C15 UNK     1      18.840  -0.351  35.107  1.00  0.00     0.030 A 
ENDBRANCH   5   7
ENDBRANCH   3   5
ENDBRANCH   1   3
BRANCH   1  15
HETATM   15  C4  UNK     1      18.684   1.092  31.030  1.00  0.00     0.036 A 
HETATM   16  C5  UNK     1      18.332   1.837  32.150  1.00  0.00     0.067 A 
HETATM   17  C2  UNK     1      18.339   3.232  32.070  1.00  0.00     0.092 A 
HETATM   18  C1  UNK     1      18.688   3.909  30.901  1.00  0.00     0.004 A 
HETATM   19  O1  UNK     1      17.973   3.932  33.237  1.00  0.00    -0.275 OA
HETATM   20  C3  UNK     1      18.668   5.378  30.907  1.00  0.00    -0.043 A 
HETATM   21  C6  UNK     1      19.039   3.140  29.784  1.00  0.00     0.017 A 
HETATM   22  C8  UNK     1      18.315   6.018  32.031  1.00  0.00     0.090 A 
HETATM   23  C9  UNK     1      19.037   6.136  29.666  1.00  0.00     0.049 C 
HETATM   24  C11 UNK     1      17.945   5.317  33.272  1.00  0.00     0.288 A 
HETATM   25  O2  UNK     1      17.629   5.937  34.282  1.00  0.00    -0.260 OA
HETATM   26  C7  UNK     1      19.038   1.742  29.849  1.00  0.00     0.030 A 
ENDBRANCH   1  15
TORSDOF 4
ENDMDL
MODEL 5
REMARK VINA RESULT:      -9.1      1.989      2.557
REMARK  4 active torsions:
REMARK  status: ('A' for Active; 'I' for Inactive)
REMARK    1  A    between atoms: C12_18  and  N1_5 
REMARK    2  A    between atoms: C4_10  and  N1_5 
REMARK    3  A    between atoms: C10_16  and  N2_6 
REMARK    4  A    between atoms: C12_18  and  N2_6 
ROOT
HETATM    1  N1  UNK     1      19.341   3.743  29.964  1.00  0.00    -0.333 N 
HETATM    2  H5  UNK     1      20.010   3.972  29.232  1.00  0.00     0.168 HD
ENDROOT
BRANCH   1   3
HETATM    3  C12 UNK     1      18.912   2.409  29.919  1.00  0.00     0.176 C 
HETATM    4  S1  UNK     1      17.829   1.987  28.698  1.00  0.00    -0.041 SA
BRANCH   3   5
HETATM    5  N2  UNK     1      19.518   1.551  30.818  1.00  0.00    -0.333 N 
HETATM    6  H9  UNK     1      20.288   1.024  30.422  1.00  0.00     0.168 HD
BRANCH   5   7
HETATM    7  C10 UNK     1      19.011   0.907  31.975  1.00  0.00     0.037 A 
HETATM    8  C14 UNK     1      18.479   1.675  32.996  1.00  0.00     0.072 A 
HETATM    9  C16 UNK     1      17.979   1.042  34.134  1.00  0.00     0.124 A 
HETATM   10  C13 UNK     1      18.019  -0.349  34.233  1.00  0.00    -0.023 A 
HETATM   11  F1  UNK     1      17.462   1.778  35.127  1.00  0.00    -0.205 F 
HETATM   12  C17 UNK     1      18.559  -1.106  33.193  1.00  0.00     0.012 A 
HETATM   13  C18 UNK     1      17.486  -1.030  35.448  1.00  0.00     0.051 C 
HETATM   14  C15 UNK     1      19.059  -0.474  32.055  1.00  0.00     0.030 A 
ENDBRANCH   5   7
ENDBRANCH   3   5
ENDBRANCH   1   3
BRANCH   1  15
HETATM   15  C4  UNK     1      19.189   4.740  30.929  1.00  0.00     0.036 A 
HETATM   16  C5  UNK     1      17.934   5.005  31.466  1.00  0.00     0.067 A 
HETATM   17  C2  UNK     1      17.804   6.006  32.431  1.00  0.00     0.092 A 
HETATM   18  C1  UNK     1      18.894   6.754  32.879  1.00  0.00     0.004 A 
HETATM   19  O1  UNK     1      16.508   6.229  32.937  1.00  0.00    -0.275 OA
HETATM   20  C3  UNK     1      18.664   7.788  33.897  1.00  0.00    -0.043 A 
HETATM   21  C6  UNK     1      20.149   6.472  32.325  1.00  0.00     0.017 A 
HETATM   22  C8  UNK     1      17.421   7.979  34.361  1.00  0.00     0.090 A 
HETATM   23  C9  UNK     1      19.814   8.611  34.400  1.00  0.00     0.049 C 
HETATM   24  C11 UNK     1      16.262   7.196  33.898  1.00  0.00     0.288 A 
HETATM   25  O2  UNK     1      15.139   7.399  34.346  1.00  0.00    -0.260 OA
HETATM   26  C7  UNK     1      20.295   5.471  31.358  1.00  0.00     0.030 A 
ENDBRANCH   1  15
TORSDOF 4
ENDMDL
MODEL 6
REMARK VINA RESULT:      -8.9      3.437      4.150
REMARK  4 active torsions:
REMARK  status: ('A' for Active; 'I' for Inactive)
REMARK    1  A    between atoms: C12_18  and  N1_5 
REMARK    2  A    between atoms: C4_10  and  N1_5 
REMARK    3  A    between atoms: C10_16  and  N2_6 
REMARK    4  A    between atoms: C12_18  and  N2_6 
ROOT
HETATM    1  N1  UNK     1      17.441   4.333  32.516  1.00  0.00    -0.333 N 
HETATM    2  H5  UNK     1      16.428   4.244  32.540  1.00  0.00     0.168 HD
ENDROOT
BRANCH   1   3
HETATM    3  C12 UNK     1      18.075   3.251  31.889  1.00  0.00     0.176 C 
HETATM    4  S1  UNK     1      18.871   3.557  30.435  1.00  0.00    -0.041 SA
BRANCH   3   5
HETATM    5  N2  UNK     1      18.075   2.063  32.597  1.00  0.00    -0.333 N 
HETATM    6  H9  UNK     1      17.745   1.269  32.059  1.00  0.00     0.168 HD
BRANCH   5   7
HETATM    7  C10 UNK     1      17.966   1.808  33.987  1.00  0.00     0.037 A 
HETATM    8  C14 UNK     1      16.996   0.930  34.438  1.00  0.00     0.072 A 
HETATM    9  C16 UNK     1      16.888   0.677  35.805  1.00  0.00     0.124 A 
HETATM   10  C13 UNK     1      17.753   1.306  36.701  1.00  0.00    -0.023 A 
HETATM   11  F1  UNK     1      15.951  -0.171  36.250  1.00  0.00    -0.205 F 
HETATM   12  C17 UNK     1      18.725   2.188  36.228  1.00  0.00     0.012 A 
HETATM   13  C18 UNK     1      17.642   1.039  38.164  1.00  0.00     0.051 C 
HETATM   14  C15 UNK     1      18.833   2.441  34.861  1.00  0.00     0.030 A 
ENDBRANCH   5   7
ENDBRANCH   3   5
ENDBRANCH   1   3
BRANCH   1  15
HETATM   15  C4  UNK     1      17.911   5.584  32.918  1.00  0.00     0.036 A 
HETATM   16  C5  UNK     1      17.044   6.669  32.977  1.00  0.00     0.067 A 
HETATM   17  C2  UNK     1      17.535   7.912  33.384  1.00  0.00     0.092 A 
HETATM   18  C1  UNK     1      18.872   8.106  33.734  1.00  0.00     0.004 A 
HETATM   19  O1  UNK     1      16.608   8.973  33.424  1.00  0.00    -0.275 OA
HETATM   20  C3  UNK     1      19.301   9.448  34.150  1.00  0.00    -0.043 A 
HETATM   21  C6  UNK     1      19.729   7.000  33.667  1.00  0.00     0.017 A 
HETATM   22  C8  UNK     1      18.399  10.439  34.179  1.00  0.00     0.090 A 
HETATM   23  C9  UNK     1      20.732   9.691  34.533  1.00  0.00     0.049 C 
HETATM   24  C11 UNK     1      16.985  10.249  33.812  1.00  0.00     0.288 A 
HETATM   25  O2  UNK     1      16.187  11.180  33.851  1.00  0.00    -0.260 OA
HETATM   26  C7  UNK     1      19.252   5.749  33.263  1.00  0.00     0.030 A 
ENDBRANCH   1  15
TORSDOF 4
ENDMDL
MODEL 7
REMARK VINA RESULT:      -8.8      3.872      8.677
REMARK  4 active torsions:
REMARK  status: ('A' for Active; 'I' for Inactive)
REMARK    1  A    between atoms: C12_18  and  N1_5 
REMARK    2  A    between atoms: C4_10  and  N1_5 
REMARK    3  A    between atoms: C10_16  and  N2_6 
REMARK    4  A    between atoms: C12_18  and  N2_6 
ROOT
HETATM    1  N1  UNK     1      17.924   3.847  31.461  1.00  0.00    -0.333 N 
HETATM    2  H5  UNK     1      16.945   3.856  31.738  1.00  0.00     0.168 HD
ENDROOT
BRANCH   1   3
HETATM    3  C12 UNK     1      18.533   5.107  31.547  1.00  0.00     0.176 C 
HETATM    4  S1  UNK     1      19.068   5.806  30.109  1.00  0.00    -0.041 SA
BRANCH   3   5
HETATM    5  N2  UNK     1      18.525   5.695  32.798  1.00  0.00    -0.333 N 
HETATM    6  H9  UNK     1      18.082   5.126  33.512  1.00  0.00     0.168 HD
BRANCH   5   7
HETATM    7  C10 UNK     1      18.549   7.058  33.186  1.00  0.00     0.037 A 
HETATM    8  C14 UNK     1      19.688   7.569  33.784  1.00  0.00     0.072 A 
HETATM    9  C16 UNK     1      19.713   8.911  34.164  1.00  0.00     0.124 A 
HETATM   10  C13 UNK     1      18.600   9.721  33.939  1.00  0.00    -0.023 A 
HETATM   11  F1  UNK     1      20.811   9.413  34.745  1.00  0.00    -0.205 F 
HETATM   12  C17 UNK     1      17.461   9.188  33.334  1.00  0.00     0.012 A 
HETATM   13  C18 UNK     1      18.622  11.156  34.345  1.00  0.00     0.051 C 
HETATM   14  C15 UNK     1      17.435   7.847  32.954  1.00  0.00     0.030 A 
ENDBRANCH   5   7
ENDBRANCH   3   5
ENDBRANCH   1   3
BRANCH   1  15
HETATM   15  C4  UNK     1      18.449   2.568  31.273  1.00  0.00     0.036 A 
HETATM   16  C5  UNK     1      18.582   1.702  32.353  1.00  0.00     0.067 A 
HETATM   17  C2  UNK     1      19.108   0.426  32.143  1.00  0.00     0.092 A 
HETATM   18  C1  UNK     1      19.509  -0.016  30.880  1.00  0.00     0.004 A 
HETATM   19  O1  UNK     1      19.218  -0.406  33.275  1.00  0.00    -0.275 OA
HETATM   20  C3  UNK     1      20.052  -1.375  30.751  1.00  0.00    -0.043 A 
HETATM   21  C6  UNK     1      19.367   0.872  29.806  1.00  0.00     0.017 A 
HETATM   22  C8  UNK     1      20.146  -2.144  31.845  1.00  0.00     0.090 A 
HETATM   23  C9  UNK     1      20.493  -1.879  29.408  1.00  0.00     0.049 C 
HETATM   24  C11 UNK     1      19.726  -1.692  33.183  1.00  0.00     0.288 A 
HETATM   25  O2  UNK     1      19.826  -2.424  34.162  1.00  0.00    -0.260 OA
HETATM   26  C7  UNK     1      18.841   2.153  30.001  1.00  0.00     0.030 A 
ENDBRANCH   1  15
TORSDOF 4
ENDMDL
MODEL 8
REMARK VINA RESULT:      -8.8      2.547      3.877
REMARK  4 active torsions:
REMARK  status: ('A' for Active; 'I' for Inactive)
REMARK    1  A    between atoms: C12_18  and  N1_5 
REMARK    2  A    between atoms: C4_10  and  N1_5 
REMARK    3  A    between atoms: C10_16  and  N2_6 
REMARK    4  A    between atoms: C12_18  and  N2_6 
ROOT
HETATM    1  N1  UNK     1      18.510   5.638  32.852  1.00  0.00    -0.333 N 
HETATM    2  H5  UNK     1      18.856   5.055  33.611  1.00  0.00     0.168 HD
ENDROOT
BRANCH   1   3
HETATM    3  C12 UNK     1      18.631   5.035  31.593  1.00  0.00     0.176 C 
HETATM    4  S1  UNK     1      19.572   5.830  30.443  1.00  0.00    -0.041 SA
BRANCH   3   5
HETATM    5  N2  UNK     1      18.055   3.784  31.468  1.00  0.00    -0.333 N 
HETATM    6  H9  UNK     1      17.556   3.481  32.297  1.00  0.00     0.168 HD
BRANCH   5   7
HETATM    7  C10 UNK     1      18.409   2.673  30.661  1.00  0.00     0.037 A 
HETATM    8  C14 UNK     1      19.255   1.708  31.177  1.00  0.00     0.072 A 
HETATM    9  C16 UNK     1      19.603   0.613  30.385  1.00  0.00     0.124 A 
HETATM   10  C13 UNK     1      19.098   0.502  29.089  1.00  0.00    -0.023 A 
HETATM   11  F1  UNK     1      20.423  -0.326  30.876  1.00  0.00    -0.205 F 
HETATM   12  C17 UNK     1      18.246   1.486  28.586  1.00  0.00     0.012 A 
HETATM   13  C18 UNK     1      19.468  -0.666  28.238  1.00  0.00     0.051 C 
HETATM   14  C15 UNK     1      17.898   2.579  29.378  1.00  0.00     0.030 A 
ENDBRANCH   5   7
ENDBRANCH   3   5
ENDBRANCH   1   3
BRANCH   1  15
HETATM   15  C4  UNK     1      17.825   6.778  33.279  1.00  0.00     0.036 A 
HETATM   16  C5  UNK     1      18.448   8.021  33.240  1.00  0.00     0.067 A 
HETATM   17  C2  UNK     1      17.746   9.148  33.670  1.00  0.00     0.092 A 
HETATM   18  C1  UNK     1      16.433   9.073  34.140  1.00  0.00     0.004 A 
HETATM   19  O1  UNK     1      18.429  10.379  33.607  1.00  0.00    -0.275 OA
HETATM   20  C3  UNK     1      15.770  10.311  34.573  1.00  0.00    -0.043 A 
HETATM   21  C6  UNK     1      15.825   7.812  34.172  1.00  0.00     0.017 A 
HETATM   22  C8  UNK     1      16.445  11.468  34.502  1.00  0.00     0.090 A 
HETATM   23  C9  UNK     1      14.360  10.265  35.085  1.00  0.00     0.049 C 
HETATM   24  C11 UNK     1      17.829  11.562  34.007  1.00  0.00     0.288 A 
HETATM   25  O2  UNK     1      18.414  12.639  33.957  1.00  0.00    -0.260 OA
HETATM   26  C7  UNK     1      16.516   6.674  33.743  1.00  0.00     0.030 A 
ENDBRANCH   1  15
TORSDOF 4
ENDMDL
MODEL 9
REMARK VINA RESULT:      -8.8      8.491     13.201
REMARK  4 active torsions:
REMARK  status: ('A' for Active; 'I' for Inactive)
REMARK    1  A    between atoms: C12_18  and  N1_5 
REMARK    2  A    between atoms: C4_10  and  N1_5 
REMARK    3  A    between atoms: C10_16  and  N2_6 
REMARK    4  A    between atoms: C12_18  and  N2_6 
ROOT
HETATM    1  N1  UNK     1      19.080  -5.049  36.063  1.00  0.00    -0.333 N 
HETATM    2  H5  UNK     1      18.169  -4.899  35.634  1.00  0.00     0.168 HD
ENDROOT
BRANCH   1   3
HETATM    3  C12 UNK     1      19.738  -3.855  36.389  1.00  0.00     0.176 C 
HETATM    4  S1  UNK     1      20.996  -3.946  37.507  1.00  0.00    -0.041 SA
BRANCH   3   5
HETATM    5  N2  UNK     1      19.356  -2.741  35.664  1.00  0.00    -0.333 N 
HETATM    6  H9  UNK     1      19.973  -2.531  34.886  1.00  0.00     0.168 HD
BRANCH   5   7
HETATM    7  C10 UNK     1      18.618  -1.592  36.044  1.00  0.00     0.037 A 
HETATM    8  C14 UNK     1      18.265  -0.667  35.077  1.00  0.00     0.072 A 
HETATM    9  C16 UNK     1      17.537   0.463  35.450  1.00  0.00     0.124 A 
HETATM   10  C13 UNK     1      17.172   0.649  36.784  1.00  0.00    -0.023 A 
HETATM   11  F1  UNK     1      17.192   1.365  34.521  1.00  0.00    -0.205 F 
HETATM   12  C17 UNK     1      17.537  -0.295  37.744  1.00  0.00     0.012 A 
HETATM   13  C18 UNK     1      16.394   1.856  37.187  1.00  0.00     0.051 C 
HETATM   14  C15 UNK     1      18.265  -1.424  37.372  1.00  0.00     0.030 A 
ENDBRANCH   5   7
ENDBRANCH   3   5
ENDBRANCH   1   3
BRANCH   1  15
HETATM   15  C4  UNK     1      19.339  -6.379  36.398  1.00  0.00     0.036 A 
HETATM   16  C5  UNK     1      20.262  -7.116  35.665  1.00  0.00     0.067 A 
HETATM   17  C2  UNK     1      20.508  -8.444  36.018  1.00  0.00     0.092 A 
HETATM   18  C1  UNK     1      19.856  -9.064  37.086  1.00  0.00     0.004 A 
HETATM   19  O1  UNK     1      21.454  -9.140  35.239  1.00  0.00    -0.275 OA
HETATM   20  C3  UNK     1      20.175 -10.466  37.387  1.00  0.00    -0.043 A 
HETATM   21  C6  UNK     1      18.929  -8.304  37.811  1.00  0.00     0.017 A 
HETATM   22  C8  UNK     1      21.079 -11.103  36.628  1.00  0.00     0.090 A 
HETATM   23  C9  UNK     1      19.492 -11.161  38.527  1.00  0.00     0.049 C 
HETATM   24  C11 UNK     1      21.775 -10.462  35.499  1.00  0.00     0.288 A 
HETATM   25  O2  UNK     1      22.597 -11.077  34.828  1.00  0.00    -0.260 OA
HETATM   26  C7  UNK     1      18.674  -6.971  37.470  1.00  0.00     0.030 A 
ENDBRANCH   1  15
TORSDOF 4
ENDMDL
MODEL 10
REMARK VINA RESULT:      -8.7      1.733      2.230
REMARK  4 active torsions:
REMARK  status: ('A' for Active; 'I' for Inactive)
REMARK    1  A    between atoms: C12_18  and  N1_5 
REMARK    2  A    between atoms: C4_10  and  N1_5 
REMARK    3  A    between atoms: C10_16  and  N2_6 
REMARK    4  A    between atoms: C12_18  and  N2_6 
ROOT
HETATM    1  N1  UNK     1      17.962   4.299  32.383  1.00  0.00    -0.333 N 
HETATM    2  H5  UNK     1      17.304   3.800  32.978  1.00  0.00     0.168 HD
ENDROOT
BRANCH   1   3
HETATM    3  C12 UNK     1      18.230   3.633  31.179  1.00  0.00     0.176 C 
HETATM    4  S1  UNK     1      19.013   4.508  29.970  1.00  0.00    -0.041 SA
BRANCH   3   5
HETATM    5  N2  UNK     1      17.923   2.285  31.157  1.00  0.00    -0.333 N 
HETATM    6  H9  UNK     1      17.207   2.020  31.825  1.00  0.00     0.168 HD
BRANCH   5   7
HETATM    7  C10 UNK     1      18.698   1.160  30.778  1.00  0.00     0.037 A 
HETATM    8  C14 UNK     1      19.053   0.231  31.740  1.00  0.00     0.072 A 
HETATM    9  C16 UNK     1      19.815  -0.877  31.368  1.00  0.00     0.124 A 
HETATM   10  C13 UNK     1      20.208  -1.039  30.040  1.00  0.00    -0.023 A 
HETATM   11  F1  UNK     1      20.164  -1.781  32.294  1.00  0.00    -0.205 F 
HETATM   12  C17 UNK     1      19.841  -0.091  29.084  1.00  0.00     0.012 A 
HETATM   13  C18 UNK     1      21.023  -2.221  29.638  1.00  0.00     0.051 C 
HETATM   14  C15 UNK     1      19.079   1.016  29.455  1.00  0.00     0.030 A 
ENDBRANCH   5   7
ENDBRANCH   3   5
ENDBRANCH   1   3
BRANCH   1  15
HETATM   15  C4  UNK     1      18.259   5.591  32.821  1.00  0.00     0.036 A 
HETATM   16  C5  UNK     1      17.261   6.559  32.864  1.00  0.00     0.067 A 
HETATM   17  C2  UNK     1      17.579   7.845  33.306  1.00  0.00     0.092 A 
HETATM   18  C1  UNK     1      18.868   8.196  33.709  1.00  0.00     0.004 A 
HETATM   19  O1  UNK     1      16.527   8.782  33.327  1.00  0.00    -0.275 OA
HETATM   20  C3  UNK     1      19.112   9.573  34.160  1.00  0.00    -0.043 A 
HETATM   21  C6  UNK     1      19.858   7.207  33.658  1.00  0.00     0.017 A 
HETATM   22  C8  UNK     1      18.093  10.444  34.170  1.00  0.00     0.090 A 
HETATM   23  C9  UNK     1      20.487   9.984  34.600  1.00  0.00     0.049 C 
HETATM   24  C11 UNK     1      16.728  10.087  33.748  1.00  0.00     0.288 A 
HETATM   25  O2  UNK     1      15.820  10.911  33.771  1.00  0.00    -0.260 OA
HETATM   26  C7  UNK     1      19.555   5.914  33.218  1.00  0.00     0.030 A 
ENDBRANCH   1  15
TORSDOF 4
ENDMDL
