MODEL 1
REMARK VINA RESULT:      -9.2      0.000      0.000
REMARK  4 active torsions:
REMARK  status: ('A' for Active; 'I' for Inactive)
REMARK    1  A    between atoms: C12_16  and  O3_3 
REMARK    2  A    between atoms: C13_17  and  O3_3 
REMARK    3  A    between atoms: C13_17  and  C14_18 
REMARK    4  A    between atoms: C14_18  and  C15_19 
ROOT
HETATM    1  O1  UNK     1      15.648   6.947  32.399  1.00  0.00    -0.274 OA
HETATM    2  O2  UNK     1      13.989   8.440  32.938  1.00  0.00    -0.259 OA
HETATM    3  C1  UNK     1      18.357   9.925  33.828  1.00  0.00     0.040 C 
HETATM    4  C2  UNK     1      17.315  10.815  34.516  1.00  0.00     0.009 C 
HETATM    5  C3  UNK     1      17.522   8.809  33.303  1.00  0.00    -0.033 A 
HETATM    6  C4  UNK     1      15.957  10.449  33.909  1.00  0.00     0.046 C 
HETATM    7  C5  UNK     1      16.219   9.095  33.349  1.00  0.00     0.025 A 
HETATM    8  C6  UNK     1      17.991   7.543  32.778  1.00  0.00     0.005 A 
HETATM    9  C7  UNK     1      17.028   6.632  32.335  1.00  0.00     0.092 A 
HETATM   10  C8  UNK     1      15.182   8.166  32.893  1.00  0.00     0.295 A 
HETATM   11  C9  UNK     1      19.339   7.188  32.687  1.00  0.00     0.017 A 
HETATM   12  C10 UNK     1      17.375   5.387  31.814  1.00  0.00     0.075 A 
HETATM   13  C11 UNK     1      19.701   5.941  32.166  1.00  0.00     0.038 A 
HETATM   14  C12 UNK     1      18.722   5.044  31.732  1.00  0.00     0.072 A 
ENDROOT
BRANCH  14  15
HETATM   15  O3  UNK     1      19.087   3.833  31.226  1.00  0.00    -0.344 OA
BRANCH  15  16
HETATM   16  C13 UNK     1      18.036   2.938  30.866  1.00  0.00     0.259 C 
BRANCH  16  17
HETATM   17  C14 UNK     1      18.421   2.159  29.623  1.00  0.00     0.183 C 
HETATM   18  O4  UNK     1      18.160   2.572  28.496  1.00  0.00    -0.290 OA
BRANCH  17  19
HETATM   19  C15 UNK     1      19.134   0.859  29.784  1.00  0.00     0.012 A 
HETATM   20  C16 UNK     1      19.361   0.384  31.057  1.00  0.00     0.015 A 
HETATM   21  C18 UNK     1      20.028  -0.832  31.207  1.00  0.00     0.001 A 
HETATM   22  C20 UNK     1      20.447  -1.542  30.082  1.00  0.00     0.000 A 
HETATM   23  C19 UNK     1      20.201  -1.034  28.806  1.00  0.00     0.001 A 
HETATM   24  C17 UNK     1      19.535   0.181  28.655  1.00  0.00     0.015 A 
ENDBRANCH  17  19
ENDBRANCH  16  17
ENDBRANCH  15  16
ENDBRANCH  14  15
TORSDOF 4
ENDMDL
MODEL 2
REMARK VINA RESULT:      -9.1      1.993      8.861
REMARK  4 active torsions:
REMARK  status: ('A' for Active; 'I' for Inactive)
REMARK    1  A    between atoms: C12_16  and  O3_3 
REMARK    2  A    between atoms: C13_17  and  O3_3 
REMARK    3  A    between atoms: C13_17  and  C14_18 
REMARK    4  A    between atoms: C14_18  and  C15_19 
ROOT
HETATM    1  O1  UNK     1      18.602   0.591  33.078  1.00  0.00    -0.274 OA
HETATM    2  O2  UNK     1      19.087  -1.622  33.451  1.00  0.00    -0.259 OA
HETATM    3  C1  UNK     1      20.167  -0.053  29.156  1.00  0.00     0.040 C 
HETATM    4  C2  UNK     1      20.201  -1.586  29.214  1.00  0.00     0.009 C 
HETATM    5  C3  UNK     1      19.599   0.301  30.487  1.00  0.00    -0.033 A 
HETATM    6  C4  UNK     1      20.157  -1.968  30.697  1.00  0.00     0.046 C 
HETATM    7  C5  UNK     1      19.593  -0.740  31.321  1.00  0.00     0.025 A 
HETATM    8  C6  UNK     1      19.104   1.596  30.904  1.00  0.00     0.005 A 
HETATM    9  C7  UNK     1      18.610   1.708  32.207  1.00  0.00     0.092 A 
HETATM   10  C8  UNK     1      19.086  -0.660  32.693  1.00  0.00     0.295 A 
HETATM   11  C9  UNK     1      19.095   2.729  30.087  1.00  0.00     0.017 A 
HETATM   12  C10 UNK     1      18.110   2.909  32.706  1.00  0.00     0.075 A 
HETATM   13  C11 UNK     1      18.597   3.941  30.575  1.00  0.00     0.038 A 
HETATM   14  C12 UNK     1      18.105   4.031  31.880  1.00  0.00     0.072 A 
ENDROOT
BRANCH  14  15
HETATM   15  O3  UNK     1      17.622   5.216  32.344  1.00  0.00    -0.344 OA
BRANCH  15  16
HETATM   16  C13 UNK     1      17.922   5.554  33.697  1.00  0.00     0.259 C 
BRANCH  16  17
HETATM   17  C14 UNK     1      17.275   6.877  34.058  1.00  0.00     0.183 C 
HETATM   18  O4  UNK     1      16.072   6.964  34.293  1.00  0.00    -0.290 OA
BRANCH  17  19
HETATM   19  C15 UNK     1      18.129   8.098  34.123  1.00  0.00     0.012 A 
HETATM   20  C16 UNK     1      17.548   9.323  33.882  1.00  0.00     0.015 A 
HETATM   21  C18 UNK     1      18.347  10.465  33.943  1.00  0.00     0.001 A 
HETATM   22  C20 UNK     1      19.703  10.353  34.245  1.00  0.00     0.000 A 
HETATM   23  C19 UNK     1      20.262   9.097  34.484  1.00  0.00     0.001 A 
HETATM   24  C17 UNK     1      19.465   7.956  34.424  1.00  0.00     0.015 A 
ENDBRANCH  17  19
ENDBRANCH  16  17
ENDBRANCH  15  16
ENDBRANCH  14  15
TORSDOF 4
ENDMDL
MODEL 3
REMARK VINA RESULT:      -9.1      1.602      9.037
REMARK  4 active torsions:
REMARK  status: ('A' for Active; 'I' for Inactive)
REMARK    1  A    between atoms: C12_16  and  O3_3 
REMARK    2  A    between atoms: C13_17  and  O3_3 
REMARK    3  A    between atoms: C13_17  and  C14_18 
REMARK    4  A    between atoms: C14_18  and  C15_19 
ROOT
HETATM    1  O1  UNK     1      19.476   1.084  29.427  1.00  0.00    -0.274 OA
HETATM    2  O2  UNK     1      20.379  -0.561  28.104  1.00  0.00    -0.259 OA
HETATM    3  C1  UNK     1      19.777  -1.751  32.608  1.00  0.00     0.040 C 
HETATM    4  C2  UNK     1      20.680  -2.757  31.882  1.00  0.00     0.009 C 
HETATM    5  C3  UNK     1      19.619  -0.675  31.590  1.00  0.00    -0.033 A 
HETATM    6  C4  UNK     1      20.545  -2.463  30.385  1.00  0.00     0.046 C 
HETATM    7  C5  UNK     1      20.039  -1.063  30.384  1.00  0.00     0.025 A 
HETATM    8  C6  UNK     1      19.075   0.650  31.802  1.00  0.00     0.005 A 
HETATM    9  C7  UNK     1      19.019   1.507  30.699  1.00  0.00     0.092 A 
HETATM   10  C8  UNK     1      19.993  -0.193  29.207  1.00  0.00     0.295 A 
HETATM   11  C9  UNK     1      18.606   1.113  33.033  1.00  0.00     0.017 A 
HETATM   12  C10 UNK     1      18.515   2.803  30.798  1.00  0.00     0.075 A 
HETATM   13  C11 UNK     1      18.096   2.411  33.146  1.00  0.00     0.038 A 
HETATM   14  C12 UNK     1      18.052   3.253  32.032  1.00  0.00     0.072 A 
ENDROOT
BRANCH  14  15
HETATM   15  O3  UNK     1      17.554   4.515  32.153  1.00  0.00    -0.344 OA
BRANCH  15  16
HETATM   16  C13 UNK     1      17.928   5.251  33.317  1.00  0.00     0.259 C 
BRANCH  16  17
HETATM   17  C14 UNK     1      17.265   6.615  33.302  1.00  0.00     0.183 C 
HETATM   18  O4  UNK     1      16.084   6.756  32.993  1.00  0.00    -0.290 OA
BRANCH  17  19
HETATM   19  C15 UNK     1      18.077   7.810  33.672  1.00  0.00     0.012 A 
HETATM   20  C16 UNK     1      19.364   7.620  34.122  1.00  0.00     0.015 A 
HETATM   21  C18 UNK     1      20.124   8.738  34.468  1.00  0.00     0.001 A 
HETATM   22  C20 UNK     1      19.577  10.016  34.352  1.00  0.00     0.000 A 
HETATM   23  C19 UNK     1      18.269  10.176  33.892  1.00  0.00     0.001 A 
HETATM   24  C17 UNK     1      17.510   9.059  33.546  1.00  0.00     0.015 A 
ENDBRANCH  17  19
ENDBRANCH  16  17
ENDBRANCH  15  16
ENDBRANCH  14  15
TORSDOF 4
ENDMDL
MODEL 4
REMARK VINA RESULT:      -9.1      2.037      8.793
REMARK  4 active torsions:
REMARK  status: ('A' for Active; 'I' for Inactive)
REMARK    1  A    between atoms: C12_16  and  O3_3 
REMARK    2  A    between atoms: C13_17  and  O3_3 
REMARK    3  A    between atoms: C13_17  and  C14_18 
REMARK    4  A    between atoms: C14_18  and  C15_19 
ROOT
HETATM    1  O1  UNK     1      18.600   0.615  33.058  1.00  0.00    -0.274 OA
HETATM    2  O2  UNK     1      19.077  -1.585  33.508  1.00  0.00    -0.259 OA
HETATM    3  C1  UNK     1      20.183  -0.164  29.168  1.00  0.00     0.040 C 
HETATM    4  C2  UNK     1      20.213  -1.694  29.278  1.00  0.00     0.009 C 
HETATM    5  C3  UNK     1      19.609   0.236  30.483  1.00  0.00    -0.033 A 
HETATM    6  C4  UNK     1      20.161  -2.026  30.773  1.00  0.00     0.046 C 
HETATM    7  C5  UNK     1      19.596  -0.777  31.352  1.00  0.00     0.025 A 
HETATM    8  C6  UNK     1      19.114   1.545  30.854  1.00  0.00     0.005 A 
HETATM    9  C7  UNK     1      18.614   1.702  32.150  1.00  0.00     0.092 A 
HETATM   10  C8  UNK     1      19.082  -0.649  32.718  1.00  0.00     0.295 A 
HETATM   11  C9  UNK     1      19.113   2.650  30.000  1.00  0.00     0.017 A 
HETATM   12  C10 UNK     1      18.114   2.920  32.606  1.00  0.00     0.075 A 
HETATM   13  C11 UNK     1      18.614   3.879  30.444  1.00  0.00     0.038 A 
HETATM   14  C12 UNK     1      18.116   4.013  31.742  1.00  0.00     0.072 A 
ENDROOT
BRANCH  14  15
HETATM   15  O3  UNK     1      17.633   5.215  32.164  1.00  0.00    -0.344 OA
BRANCH  15  16
HETATM   16  C13 UNK     1      17.764   5.515  33.552  1.00  0.00     0.259 C 
BRANCH  16  17
HETATM   17  C14 UNK     1      19.033   6.310  33.793  1.00  0.00     0.183 C 
HETATM   18  O4  UNK     1      20.129   5.763  33.890  1.00  0.00    -0.290 OA
BRANCH  17  19
HETATM   19  C15 UNK     1      18.938   7.793  33.914  1.00  0.00     0.012 A 
HETATM   20  C16 UNK     1      20.062   8.499  34.282  1.00  0.00     0.015 A 
HETATM   21  C18 UNK     1      19.973   9.887  34.396  1.00  0.00     0.001 A 
HETATM   22  C20 UNK     1      18.764  10.532  34.138  1.00  0.00     0.000 A 
HETATM   23  C19 UNK     1      17.643   9.789  33.767  1.00  0.00     0.001 A 
HETATM   24  C17 UNK     1      17.731   8.402  33.653  1.00  0.00     0.015 A 
ENDBRANCH  17  19
ENDBRANCH  16  17
ENDBRANCH  15  16
ENDBRANCH  14  15
TORSDOF 4
ENDMDL
MODEL 5
REMARK VINA RESULT:      -8.9     22.061     24.352
REMARK  4 active torsions:
REMARK  status: ('A' for Active; 'I' for Inactive)
REMARK    1  A    between atoms: C12_16  and  O3_3 
REMARK    2  A    between atoms: C13_17  and  O3_3 
REMARK    3  A    between atoms: C13_17  and  C14_18 
REMARK    4  A    between atoms: C14_18  and  C15_19 
ROOT
HETATM    1  O1  UNK     1      10.832   5.488   9.922  1.00  0.00    -0.274 OA
HETATM    2  O2  UNK     1       8.539   5.493   9.809  1.00  0.00    -0.259 OA
HETATM    3  C1  UNK     1      10.725   6.278   5.725  1.00  0.00     0.040 C 
HETATM    4  C2  UNK     1       9.235   6.631   5.636  1.00  0.00     0.009 C 
HETATM    5  C3  UNK     1      10.899   6.005   7.179  1.00  0.00    -0.033 A 
HETATM    6  C4  UNK     1       8.572   6.044   6.885  1.00  0.00     0.046 C 
HETATM    7  C5  UNK     1       9.728   5.880   7.807  1.00  0.00     0.025 A 
HETATM    8  C6  UNK     1      12.150   5.866   7.895  1.00  0.00     0.005 A 
HETATM    9  C7  UNK     1      12.082   5.609   9.267  1.00  0.00     0.092 A 
HETATM   10  C8  UNK     1       9.619   5.608   9.243  1.00  0.00     0.295 A 
HETATM   11  C9  UNK     1      13.408   5.970   7.296  1.00  0.00     0.017 A 
HETATM   12  C10 UNK     1      13.228   5.460  10.047  1.00  0.00     0.075 A 
HETATM   13  C11 UNK     1      14.566   5.823   8.067  1.00  0.00     0.038 A 
HETATM   14  C12 UNK     1      14.476   5.569   9.438  1.00  0.00     0.072 A 
ENDROOT
BRANCH  14  15
HETATM   15  O3  UNK     1      15.609   5.427  10.178  1.00  0.00    -0.344 OA
BRANCH  15  16
HETATM   16  C13 UNK     1      16.593   6.454  10.063  1.00  0.00     0.259 C 
BRANCH  16  17
HETATM   17  C14 UNK     1      16.057   7.752  10.634  1.00  0.00     0.183 C 
HETATM   18  O4  UNK     1      15.558   7.807  11.755  1.00  0.00    -0.290 OA
BRANCH  17  19
HETATM   19  C15 UNK     1      16.140   8.989   9.804  1.00  0.00     0.012 A 
HETATM   20  C16 UNK     1      15.062   9.329   9.018  1.00  0.00     0.015 A 
HETATM   21  C18 UNK     1      15.139  10.486   8.241  1.00  0.00     0.001 A 
HETATM   22  C20 UNK     1      16.291  11.271   8.273  1.00  0.00     0.000 A 
HETATM   23  C19 UNK     1      17.367  10.900   9.080  1.00  0.00     0.001 A 
HETATM   24  C17 UNK     1      17.290   9.744   9.856  1.00  0.00     0.015 A 
ENDBRANCH  17  19
ENDBRANCH  16  17
ENDBRANCH  15  16
ENDBRANCH  14  15
TORSDOF 4
ENDMDL
MODEL 6
REMARK VINA RESULT:      -8.8      1.924      8.849
REMARK  4 active torsions:
REMARK  status: ('A' for Active; 'I' for Inactive)
REMARK    1  A    between atoms: C12_16  and  O3_3 
REMARK    2  A    between atoms: C13_17  and  O3_3 
REMARK    3  A    between atoms: C13_17  and  C14_18 
REMARK    4  A    between atoms: C14_18  and  C15_19 
ROOT
HETATM    1  O1  UNK     1      18.614   0.487  33.097  1.00  0.00    -0.274 OA
HETATM    2  O2  UNK     1      19.174  -1.718  33.404  1.00  0.00    -0.259 OA
HETATM    3  C1  UNK     1      20.202   0.015  29.160  1.00  0.00     0.040 C 
HETATM    4  C2  UNK     1      20.288  -1.517  29.172  1.00  0.00     0.009 C 
HETATM    5  C3  UNK     1      19.621   0.309  30.499  1.00  0.00    -0.033 A 
HETATM    6  C4  UNK     1      20.257  -1.945  30.642  1.00  0.00     0.046 C 
HETATM    7  C5  UNK     1      19.651  -0.756  31.302  1.00  0.00     0.025 A 
HETATM    8  C6  UNK     1      19.082   1.574  30.955  1.00  0.00     0.005 A 
HETATM    9  C7  UNK     1      18.584   1.629  32.260  1.00  0.00     0.092 A 
HETATM   10  C8  UNK     1      19.140  -0.734  32.675  1.00  0.00     0.295 A 
HETATM   11  C9  UNK     1      19.035   2.730  30.173  1.00  0.00     0.017 A 
HETATM   12  C10 UNK     1      18.043   2.798  32.794  1.00  0.00     0.075 A 
HETATM   13  C11 UNK     1      18.496   3.909  30.696  1.00  0.00     0.038 A 
HETATM   14  C12 UNK     1      18.000   3.943  32.002  1.00  0.00     0.072 A 
ENDROOT
BRANCH  14  15
HETATM   15  O3  UNK     1      17.477   5.096  32.501  1.00  0.00    -0.344 OA
BRANCH  15  16
HETATM   16  C13 UNK     1      18.128   6.314  32.140  1.00  0.00     0.259 C 
BRANCH  16  17
HETATM   17  C14 UNK     1      17.102   7.340  31.700  1.00  0.00     0.183 C 
HETATM   18  O4  UNK     1      16.853   7.536  30.513  1.00  0.00    -0.290 OA
BRANCH  17  19
HETATM   19  C15 UNK     1      16.383   8.127  32.743  1.00  0.00     0.012 A 
HETATM   20  C16 UNK     1      17.119   8.912  33.601  1.00  0.00     0.015 A 
HETATM   21  C18 UNK     1      16.446   9.649  34.577  1.00  0.00     0.001 A 
HETATM   22  C20 UNK     1      15.056   9.583  34.666  1.00  0.00     0.000 A 
HETATM   23  C19 UNK     1      14.338   8.778  33.781  1.00  0.00     0.001 A 
HETATM   24  C17 UNK     1      15.010   8.042  32.806  1.00  0.00     0.015 A 
ENDBRANCH  17  19
ENDBRANCH  16  17
ENDBRANCH  15  16
ENDBRANCH  14  15
TORSDOF 4
ENDMDL
MODEL 7
REMARK VINA RESULT:      -8.8     22.251     24.556
REMARK  4 active torsions:
REMARK  status: ('A' for Active; 'I' for Inactive)
REMARK    1  A    between atoms: C12_16  and  O3_3 
REMARK    2  A    between atoms: C13_17  and  O3_3 
REMARK    3  A    between atoms: C13_17  and  C14_18 
REMARK    4  A    between atoms: C14_18  and  C15_19 
ROOT
HETATM    1  O1  UNK     1      14.032   4.692   8.767  1.00  0.00    -0.274 OA
HETATM    2  O2  UNK     1      16.045   4.178   9.744  1.00  0.00    -0.259 OA
HETATM    3  C1  UNK     1      15.016   8.761   9.618  1.00  0.00     0.040 C 
HETATM    4  C2  UNK     1      16.493   8.531   9.965  1.00  0.00     0.009 C 
HETATM    5  C3  UNK     1      14.557   7.388   9.266  1.00  0.00    -0.033 A 
HETATM    6  C4  UNK     1      16.637   7.041  10.294  1.00  0.00     0.046 C 
HETATM    7  C5  UNK     1      15.439   6.457   9.632  1.00  0.00     0.025 A 
HETATM    8  C6  UNK     1      13.314   7.027   8.617  1.00  0.00     0.005 A 
HETATM    9  C7  UNK     1      13.082   5.668   8.380  1.00  0.00     0.092 A 
HETATM   10  C8  UNK     1      15.229   5.025   9.402  1.00  0.00     0.295 A 
HETATM   11  C9  UNK     1      12.342   7.949   8.223  1.00  0.00     0.017 A 
HETATM   12  C10 UNK     1      11.918   5.216   7.761  1.00  0.00     0.075 A 
HETATM   13  C11 UNK     1      11.169   7.509   7.601  1.00  0.00     0.038 A 
HETATM   14  C12 UNK     1      10.959   6.147   7.370  1.00  0.00     0.072 A 
ENDROOT
BRANCH  14  15
HETATM   15  O3  UNK     1       9.813   5.730   6.764  1.00  0.00    -0.344 OA
BRANCH  15  16
HETATM   16  C13 UNK     1       8.606   6.401   7.124  1.00  0.00     0.259 C 
BRANCH  16  17
HETATM   17  C14 UNK     1       7.971   5.719   8.320  1.00  0.00     0.183 C 
HETATM   18  O4  UNK     1       7.841   4.498   8.374  1.00  0.00    -0.290 OA
BRANCH  17  19
HETATM   19  C15 UNK     1       7.492   6.561   9.455  1.00  0.00     0.012 A 
HETATM   20  C16 UNK     1       6.549   6.039  10.311  1.00  0.00     0.015 A 
HETATM   21  C18 UNK     1       6.101   6.826  11.372  1.00  0.00     0.001 A 
HETATM   22  C20 UNK     1       6.610   8.113  11.550  1.00  0.00     0.000 A 
HETATM   23  C19 UNK     1       7.566   8.613  10.665  1.00  0.00     0.001 A 
HETATM   24  C17 UNK     1       8.014   7.826   9.605  1.00  0.00     0.015 A 
ENDBRANCH  17  19
ENDBRANCH  16  17
ENDBRANCH  15  16
ENDBRANCH  14  15
TORSDOF 4
ENDMDL
MODEL 8
REMARK VINA RESULT:      -8.8      1.783      2.766
REMARK  4 active torsions:
REMARK  status: ('A' for Active; 'I' for Inactive)
REMARK    1  A    between atoms: C12_16  and  O3_3 
REMARK    2  A    between atoms: C13_17  and  O3_3 
REMARK    3  A    between atoms: C13_17  and  C14_18 
REMARK    4  A    between atoms: C14_18  and  C15_19 
ROOT
HETATM    1  O1  UNK     1      18.642   9.452  33.669  1.00  0.00    -0.274 OA
HETATM    2  O2  UNK     1      18.453  11.600  34.457  1.00  0.00    -0.259 OA
HETATM    3  C1  UNK     1      14.374   9.482  33.485  1.00  0.00     0.040 C 
HETATM    4  C2  UNK     1      14.186  10.992  33.675  1.00  0.00     0.009 C 
HETATM    5  C3  UNK     1      15.857   9.344  33.502  1.00  0.00    -0.033 A 
HETATM    6  C4  UNK     1      15.484  11.520  34.294  1.00  0.00     0.046 C 
HETATM    7  C5  UNK     1      16.458  10.452  33.939  1.00  0.00     0.025 A 
HETATM    8  C6  UNK     1      16.627   8.178  33.117  1.00  0.00     0.005 A 
HETATM    9  C7  UNK     1      18.019   8.266  33.211  1.00  0.00     0.092 A 
HETATM   10  C8  UNK     1      17.913  10.579  34.052  1.00  0.00     0.295 A 
HETATM   11  C9  UNK     1      16.061   6.984  32.666  1.00  0.00     0.017 A 
HETATM   12  C10 UNK     1      18.849   7.202  32.864  1.00  0.00     0.075 A 
HETATM   13  C11 UNK     1      16.883   5.908  32.315  1.00  0.00     0.038 A 
HETATM   14  C12 UNK     1      18.272   6.017  32.413  1.00  0.00     0.072 A 
ENDROOT
BRANCH  14  15
HETATM   15  O3  UNK     1      19.063   4.963  32.068  1.00  0.00    -0.344 OA
BRANCH  15  16
HETATM   16  C13 UNK     1      18.668   4.201  30.929  1.00  0.00     0.259 C 
BRANCH  16  17
HETATM   17  C14 UNK     1      18.396   2.765  31.334  1.00  0.00     0.183 C 
HETATM   18  O4  UNK     1      17.794   2.489  32.370  1.00  0.00    -0.290 OA
BRANCH  17  19
HETATM   19  C15 UNK     1      18.877   1.666  30.448  1.00  0.00     0.012 A 
HETATM   20  C16 UNK     1      18.381   1.588  29.166  1.00  0.00     0.015 A 
HETATM   21  C18 UNK     1      18.831   0.560  28.336  1.00  0.00     0.001 A 
HETATM   22  C20 UNK     1      19.766  -0.360  28.810  1.00  0.00     0.000 A 
HETATM   23  C19 UNK     1      20.250  -0.253  30.114  1.00  0.00     0.001 A 
HETATM   24  C17 UNK     1      19.801   0.774  30.943  1.00  0.00     0.015 A 
ENDBRANCH  17  19
ENDBRANCH  16  17
ENDBRANCH  15  16
ENDBRANCH  14  15
TORSDOF 4
ENDMDL
MODEL 9
REMARK VINA RESULT:      -8.8      1.770      8.915
REMARK  4 active torsions:
REMARK  status: ('A' for Active; 'I' for Inactive)
REMARK    1  A    between atoms: C12_16  and  O3_3 
REMARK    2  A    between atoms: C13_17  and  O3_3 
REMARK    3  A    between atoms: C13_17  and  C14_18 
REMARK    4  A    between atoms: C14_18  and  C15_19 
ROOT
HETATM    1  O1  UNK     1      19.529   1.075  29.390  1.00  0.00    -0.274 OA
HETATM    2  O2  UNK     1      20.447  -0.598  28.113  1.00  0.00    -0.259 OA
HETATM    3  C1  UNK     1      19.747  -1.707  32.624  1.00  0.00     0.040 C 
HETATM    4  C2  UNK     1      20.657  -2.731  31.934  1.00  0.00     0.009 C 
HETATM    5  C3  UNK     1      19.617  -0.648  31.585  1.00  0.00    -0.033 A 
HETATM    6  C4  UNK     1      20.555  -2.462  30.429  1.00  0.00     0.046 C 
HETATM    7  C5  UNK     1      20.057  -1.059  30.394  1.00  0.00     0.025 A 
HETATM    8  C6  UNK     1      19.078   0.684  31.763  1.00  0.00     0.005 A 
HETATM    9  C7  UNK     1      19.049   1.523  30.645  1.00  0.00     0.092 A 
HETATM   10  C8  UNK     1      20.041  -0.210  29.201  1.00  0.00     0.295 A 
HETATM   11  C9  UNK     1      18.586   1.172  32.976  1.00  0.00     0.017 A 
HETATM   12  C10 UNK     1      18.551   2.823  30.710  1.00  0.00     0.075 A 
HETATM   13  C11 UNK     1      18.084   2.474  33.056  1.00  0.00     0.038 A 
HETATM   14  C12 UNK     1      18.067   3.297  31.927  1.00  0.00     0.072 A 
ENDROOT
BRANCH  14  15
HETATM   15  O3  UNK     1      17.575   4.564  32.017  1.00  0.00    -0.344 OA
BRANCH  15  16
HETATM   16  C13 UNK     1      18.323   5.597  31.377  1.00  0.00     0.259 C 
BRANCH  16  17
HETATM   17  C14 UNK     1      18.625   6.706  32.366  1.00  0.00     0.183 C 
HETATM   18  O4  UNK     1      19.769   6.929  32.757  1.00  0.00    -0.290 OA
BRANCH  17  19
HETATM   19  C15 UNK     1      17.498   7.542  32.873  1.00  0.00     0.012 A 
HETATM   20  C16 UNK     1      17.450   7.839  34.216  1.00  0.00     0.015 A 
HETATM   21  C18 UNK     1      16.395   8.620  34.690  1.00  0.00     0.001 A 
HETATM   22  C20 UNK     1      15.419   9.084  33.809  1.00  0.00     0.000 A 
HETATM   23  C19 UNK     1      15.497   8.766  32.452  1.00  0.00     0.001 A 
HETATM   24  C17 UNK     1      16.550   7.986  31.979  1.00  0.00     0.015 A 
ENDBRANCH  17  19
ENDBRANCH  16  17
ENDBRANCH  15  16
ENDBRANCH  14  15
TORSDOF 4
ENDMDL
MODEL 10
REMARK VINA RESULT:      -8.6     22.003     24.313
REMARK  4 active torsions:
REMARK  status: ('A' for Active; 'I' for Inactive)
REMARK    1  A    between atoms: C12_16  and  O3_3 
REMARK    2  A    between atoms: C13_17  and  O3_3 
REMARK    3  A    between atoms: C13_17  and  C14_18 
REMARK    4  A    between atoms: C14_18  and  C15_19 
ROOT
HETATM    1  O1  UNK     1      11.813   6.473   6.235  1.00  0.00    -0.274 OA
HETATM    2  O2  UNK     1       9.908   6.869   5.017  1.00  0.00    -0.259 OA
HETATM    3  C1  UNK     1       9.177   5.518   9.457  1.00  0.00     0.040 C 
HETATM    4  C2  UNK     1       7.888   5.432   8.630  1.00  0.00     0.009 C 
HETATM    5  C3  UNK     1      10.200   5.824   8.419  1.00  0.00    -0.033 A 
HETATM    6  C4  UNK     1       8.157   6.186   7.323  1.00  0.00     0.046 C 
HETATM    7  C5  UNK     1       9.644   6.185   7.260  1.00  0.00     0.025 A 
HETATM    8  C6  UNK     1      11.639   5.772   8.573  1.00  0.00     0.005 A 
HETATM    9  C7  UNK     1      12.418   6.101   7.460  1.00  0.00     0.092 A 
HETATM   10  C8  UNK     1      10.429   6.538   6.075  1.00  0.00     0.295 A 
HETATM   11  C9  UNK     1      12.284   5.419   9.760  1.00  0.00     0.017 A 
HETATM   12  C10 UNK     1      13.811   6.082   7.504  1.00  0.00     0.075 A 
HETATM   13  C11 UNK     1      13.682   5.395   9.818  1.00  0.00     0.038 A 
HETATM   14  C12 UNK     1      14.442   5.724   8.693  1.00  0.00     0.072 A 
ENDROOT
BRANCH  14  15
HETATM   15  O3  UNK     1      15.802   5.698   8.761  1.00  0.00    -0.344 OA
BRANCH  15  16
HETATM   16  C13 UNK     1      16.396   6.020  10.018  1.00  0.00     0.259 C 
BRANCH  16  17
HETATM   17  C14 UNK     1      16.762   7.491  10.056  1.00  0.00     0.183 C 
HETATM   18  O4  UNK     1      17.904   7.879   9.821  1.00  0.00    -0.290 OA
BRANCH  17  19
HETATM   19  C15 UNK     1      15.701   8.486  10.390  1.00  0.00     0.012 A 
HETATM   20  C16 UNK     1      15.286   8.593  11.698  1.00  0.00     0.015 A 
HETATM   21  C18 UNK     1      14.294   9.523  12.011  1.00  0.00     0.001 A 
HETATM   22  C20 UNK     1      13.745  10.322  11.007  1.00  0.00     0.000 A 
HETATM   23  C19 UNK     1      14.188  10.190   9.691  1.00  0.00     0.001 A 
HETATM   24  C17 UNK     1      15.179   9.260   9.379  1.00  0.00     0.015 A 
ENDBRANCH  17  19
ENDBRANCH  16  17
ENDBRANCH  15  16
ENDBRANCH  14  15
TORSDOF 4
ENDMDL
