MODEL 1
REMARK VINA RESULT:      -9.9      0.000      0.000
REMARK  6 active torsions:
REMARK  status: ('A' for Active; 'I' for Inactive)
REMARK       I    between atoms: C12_18  and  N2_6 
REMARK    1  A    between atoms: C6_12  and  N2_6 
REMARK    2  A    between atoms: C1_7  and  C2_8 
REMARK    3  A    between atoms: C2_8  and  C6_12 
REMARK    4  A    between atoms: C12_18  and  C13_19 
REMARK    5  A    between atoms: C16_22  and  C18_24 
REMARK    6  A    between atoms: C18_24  and  C23_29 
ROOT
HETATM    1  O2  UNK     1      18.145   2.420  28.447  1.00  0.00    -0.267 OA
HETATM    2  N2  UNK     1      19.050   3.811  30.085  1.00  0.00    -0.356 N 
HETATM    3  C12 UNK     1      18.664   2.596  29.548  1.00  0.00     0.257 C 
HETATM    4  H10 UNK     1      19.446   3.855  31.019  1.00  0.00     0.162 HD
ENDROOT
BRANCH   2   5
HETATM    5  C6  UNK     1      18.882   5.068  29.390  1.00  0.00     0.127 C 
BRANCH   5   6
HETATM    6  C2  UNK     1      19.739   6.164  30.024  1.00  0.00     0.061 C 
BRANCH   6   7
HETATM    7  C1  UNK     1      19.314   6.520  31.420  1.00  0.00    -0.022 A 
HETATM    8  C3  UNK     1      18.034   6.974  31.793  1.00  0.00     0.001 A 
HETATM    9  C5  UNK     1      18.080   7.184  33.173  1.00  0.00     0.065 A 
HETATM   10  C7  UNK     1      16.830   7.232  31.108  1.00  0.00     0.014 A 
HETATM   11  C9  UNK     1      16.978   7.641  33.905  1.00  0.00     0.061 A 
HETATM   12  N1  UNK     1      19.352   6.862  33.590  1.00  0.00    -0.357 N 
HETATM   13  C11 UNK     1      15.795   7.890  33.204  1.00  0.00     0.026 A 
HETATM   14 Cl1  UNK     1      17.058   7.892  35.602  1.00  0.00    -0.082 Cl
HETATM   15  C10 UNK     1      15.719   7.688  31.826  1.00  0.00     0.003 A 
HETATM   16  C4  UNK     1      20.110   6.456  32.523  1.00  0.00     0.013 A 
HETATM   17  H5  UNK     1      19.676   6.919  34.546  1.00  0.00     0.166 HD
HETATM   18  C8  UNK     1      21.518   6.055  32.701  1.00  0.00     0.068 C 
ENDBRANCH   6   7
ENDBRANCH   5   6
ENDBRANCH   2   5
BRANCH   3  19
HETATM   19  C13 UNK     1      18.940   1.465  30.442  1.00  0.00     0.108 A 
HETATM   20  C17 UNK     1      19.596   0.431  29.902  1.00  0.00     0.037 A 
HETATM   21  C14 UNK     1      19.915  -0.736  30.709  1.00  0.00    -0.000 A 
HETATM   22  C15 UNK     1      19.529  -0.758  32.046  1.00  0.00     0.096 A 
HETATM   23  C20 UNK     1      20.598  -1.838  30.188  1.00  0.00     0.014 A 
HETATM   24  C16 UNK     1      19.804  -1.845  32.872  1.00  0.00    -0.020 A 
HETATM   25  O1  UNK     1      18.839   0.334  32.607  1.00  0.00    -0.273 OA
HETATM   26  C21 UNK     1      20.485  -2.940  32.343  1.00  0.00     0.010 A 
HETATM   27  C22 UNK     1      20.881  -2.937  31.004  1.00  0.00     0.002 A 
HETATM   28  C19 UNK     1      18.519   1.465  31.861  1.00  0.00     0.304 A 
HETATM   29  O3  UNK     1      17.918   2.410  32.359  1.00  0.00    -0.259 OA
BRANCH  24  30
HETATM   30  C18 UNK     1      19.385  -1.858  34.304  1.00  0.00     0.067 C 
BRANCH  30  31
HETATM   31  C23 UNK     1      20.445  -2.405  35.223  1.00  0.00    -0.032 C 
HETATM   32  C24 UNK     1      20.189  -3.052  36.366  1.00  0.00     0.007 C 
ENDBRANCH  30  31
ENDBRANCH  24  30
ENDBRANCH   3  19
TORSDOF 6
ENDMDL
MODEL 2
REMARK VINA RESULT:      -9.9      5.095      8.988
REMARK  6 active torsions:
REMARK  status: ('A' for Active; 'I' for Inactive)
REMARK       I    between atoms: C12_18  and  N2_6 
REMARK    1  A    between atoms: C6_12  and  N2_6 
REMARK    2  A    between atoms: C1_7  and  C2_8 
REMARK    3  A    between atoms: C2_8  and  C6_12 
REMARK    4  A    between atoms: C12_18  and  C13_19 
REMARK    5  A    between atoms: C16_22  and  C18_24 
REMARK    6  A    between atoms: C18_24  and  C23_29 
ROOT
HETATM    1  O2  UNK     1      19.889  -2.573  37.631  1.00  0.00    -0.267 OA
HETATM    2  N2  UNK     1      20.233  -3.448  35.497  1.00  0.00    -0.356 N 
HETATM    3  C12 UNK     1      20.063  -3.521  36.868  1.00  0.00     0.257 C 
HETATM    4  H10 UNK     1      20.399  -4.291  34.957  1.00  0.00     0.162 HD
ENDROOT
BRANCH   2   5
HETATM    5  C6  UNK     1      20.226  -2.199  34.768  1.00  0.00     0.127 C 
BRANCH   5   6
HETATM    6  C2  UNK     1      18.808  -1.820  34.342  1.00  0.00     0.061 C 
BRANCH   6   7
HETATM    7  C1  UNK     1      18.764  -0.702  33.340  1.00  0.00    -0.022 A 
HETATM    8  C3  UNK     1      19.274  -0.761  32.028  1.00  0.00     0.001 A 
HETATM    9  C5  UNK     1      19.023   0.487  31.454  1.00  0.00     0.065 A 
HETATM   10  C7  UNK     1      19.927  -1.743  31.257  1.00  0.00     0.014 A 
HETATM   11  C9  UNK     1      19.393   0.803  30.142  1.00  0.00     0.061 A 
HETATM   12  N1  UNK     1      18.384   1.250  32.406  1.00  0.00    -0.357 N 
HETATM   13  C11 UNK     1      20.039  -0.187  29.397  1.00  0.00     0.026 A 
HETATM   14 Cl1  UNK     1      19.072   2.345  29.457  1.00  0.00    -0.082 Cl
HETATM   15  C10 UNK     1      20.303  -1.441  29.943  1.00  0.00     0.003 A 
HETATM   16  C4  UNK     1      18.223   0.528  33.559  1.00  0.00     0.013 A 
HETATM   17  H5  UNK     1      18.080   2.204  32.269  1.00  0.00     0.166 HD
HETATM   18  C8  UNK     1      17.565   1.120  34.740  1.00  0.00     0.068 C 
ENDBRANCH   6   7
ENDBRANCH   5   6
ENDBRANCH   2   5
BRANCH   3  19
HETATM   19  C13 UNK     1      20.106  -4.898  37.374  1.00  0.00     0.108 A 
HETATM   20  C17 UNK     1      21.156  -5.213  38.142  1.00  0.00     0.037 A 
HETATM   21  C14 UNK     1      21.286  -6.554  38.691  1.00  0.00    -0.000 A 
HETATM   22  C15 UNK     1      20.304  -7.498  38.405  1.00  0.00     0.096 A 
HETATM   23  C20 UNK     1      22.364  -6.928  39.498  1.00  0.00     0.014 A 
HETATM   24  C16 UNK     1      20.369  -8.798  38.900  1.00  0.00    -0.020 A 
HETATM   25  O1  UNK     1      19.201  -7.159  37.597  1.00  0.00    -0.273 OA
HETATM   26  C21 UNK     1      21.448  -9.162  39.703  1.00  0.00     0.010 A 
HETATM   27  C22 UNK     1      22.444  -8.230  40.001  1.00  0.00     0.002 A 
HETATM   28  C19 UNK     1      19.049  -5.884  37.057  1.00  0.00     0.304 A 
HETATM   29  O3  UNK     1      18.086  -5.600  36.354  1.00  0.00    -0.259 OA
BRANCH  24  30
HETATM   30  C18 UNK     1      19.311  -9.803  38.587  1.00  0.00     0.067 C 
BRANCH  30  31
HETATM   31  C23 UNK     1      19.821 -10.962  37.773  1.00  0.00    -0.032 C 
HETATM   32  C24 UNK     1      20.617 -10.838  36.705  1.00  0.00     0.007 C 
ENDBRANCH  30  31
ENDBRANCH  24  30
ENDBRANCH   3  19
TORSDOF 6
ENDMDL
MODEL 3
REMARK VINA RESULT:      -9.8      5.712     11.325
REMARK  6 active torsions:
REMARK  status: ('A' for Active; 'I' for Inactive)
REMARK       I    between atoms: C12_18  and  N2_6 
REMARK    1  A    between atoms: C6_12  and  N2_6 
REMARK    2  A    between atoms: C1_7  and  C2_8 
REMARK    3  A    between atoms: C2_8  and  C6_12 
REMARK    4  A    between atoms: C12_18  and  C13_19 
REMARK    5  A    between atoms: C16_22  and  C18_24 
REMARK    6  A    between atoms: C18_24  and  C23_29 
ROOT
HETATM    1  O2  UNK     1      21.418  -2.085  35.539  1.00  0.00    -0.267 OA
HETATM    2  N2  UNK     1      19.786  -3.630  34.916  1.00  0.00    -0.356 N 
HETATM    3  C12 UNK     1      20.515  -2.460  34.794  1.00  0.00     0.257 C 
HETATM    4  H10 UNK     1      19.037  -3.836  34.262  1.00  0.00     0.162 HD
ENDROOT
BRANCH   2   5
HETATM    5  C6  UNK     1      20.007  -4.588  35.977  1.00  0.00     0.127 C 
BRANCH   5   6
HETATM    6  C2  UNK     1      18.680  -5.132  36.507  1.00  0.00     0.061 C 
BRANCH   6   7
HETATM    7  C1  UNK     1      18.712  -6.607  36.793  1.00  0.00    -0.022 A 
HETATM    8  C3  UNK     1      19.521  -7.234  37.760  1.00  0.00     0.001 A 
HETATM    9  C5  UNK     1      19.233  -8.599  37.686  1.00  0.00     0.065 A 
HETATM   10  C7  UNK     1      20.475  -6.792  38.698  1.00  0.00     0.014 A 
HETATM   11  C9  UNK     1      19.853  -9.547  38.507  1.00  0.00     0.061 A 
HETATM   12  N1  UNK     1      18.282  -8.759  36.703  1.00  0.00    -0.357 N 
HETATM   13  C11 UNK     1      20.795  -9.085  39.430  1.00  0.00     0.026 A 
HETATM   14 Cl1  UNK     1      19.481 -11.221  38.399  1.00  0.00    -0.082 Cl
HETATM   15  C10 UNK     1      21.103  -7.729  39.526  1.00  0.00     0.003 A 
HETATM   16  C4  UNK     1      17.960  -7.546  36.154  1.00  0.00     0.013 A 
HETATM   17  H5  UNK     1      17.883  -9.647  36.429  1.00  0.00     0.166 HD
HETATM   18  C8  UNK     1      16.962  -7.442  35.074  1.00  0.00     0.068 C 
ENDBRANCH   6   7
ENDBRANCH   5   6
ENDBRANCH   2   5
BRANCH   3  19
HETATM   19  C13 UNK     1      20.108  -1.654  33.637  1.00  0.00     0.108 A 
HETATM   20  C17 UNK     1      20.621  -2.015  32.455  1.00  0.00     0.037 A 
HETATM   21  C14 UNK     1      20.277  -1.276  31.250  1.00  0.00    -0.000 A 
HETATM   22  C15 UNK     1      19.408  -0.193  31.348  1.00  0.00     0.096 A 
HETATM   23  C20 UNK     1      20.788  -1.617  29.995  1.00  0.00     0.014 A 
HETATM   24  C16 UNK     1      19.039   0.555  30.233  1.00  0.00    -0.020 A 
HETATM   25  O1  UNK     1      18.871   0.181  32.596  1.00  0.00    -0.273 OA
HETATM   26  C21 UNK     1      19.554   0.208  28.986  1.00  0.00     0.010 A 
HETATM   27  C22 UNK     1      20.427  -0.875  28.866  1.00  0.00     0.002 A 
HETATM   28  C19 UNK     1      19.182  -0.506  33.766  1.00  0.00     0.304 A 
HETATM   29  O3  UNK     1      18.710  -0.172  34.847  1.00  0.00    -0.259 OA
BRANCH  24  30
HETATM   30  C18 UNK     1      18.106   1.714  30.349  1.00  0.00     0.067 C 
BRANCH  30  31
HETATM   31  C23 UNK     1      18.634   2.963  29.693  1.00  0.00    -0.032 C 
HETATM   32  C24 UNK     1      19.021   4.057  30.359  1.00  0.00     0.007 C 
ENDBRANCH  30  31
ENDBRANCH  24  30
ENDBRANCH   3  19
TORSDOF 6
ENDMDL
MODEL 4
REMARK VINA RESULT:      -9.5      3.435      9.631
REMARK  6 active torsions:
REMARK  status: ('A' for Active; 'I' for Inactive)
REMARK       I    between atoms: C12_18  and  N2_6 
REMARK    1  A    between atoms: C6_12  and  N2_6 
REMARK    2  A    between atoms: C1_7  and  C2_8 
REMARK    3  A    between atoms: C2_8  and  C6_12 
REMARK    4  A    between atoms: C12_18  and  C13_19 
REMARK    5  A    between atoms: C16_22  and  C18_24 
REMARK    6  A    between atoms: C18_24  and  C23_29 
ROOT
HETATM    1  O2  UNK     1      19.750   5.536  33.128  1.00  0.00    -0.267 OA
HETATM    2  N2  UNK     1      18.425   5.395  31.215  1.00  0.00    -0.356 N 
HETATM    3  C12 UNK     1      18.824   5.935  32.425  1.00  0.00     0.257 C 
HETATM    4  H10 UNK     1      17.626   5.781  30.722  1.00  0.00     0.162 HD
ENDROOT
BRANCH   2   5
HETATM    5  C6  UNK     1      19.072   4.251  30.611  1.00  0.00     0.127 C 
BRANCH   5   6
HETATM    6  C2  UNK     1      18.113   3.064  30.519  1.00  0.00     0.061 C 
BRANCH   6   7
HETATM    7  C1  UNK     1      18.654   1.810  31.144  1.00  0.00    -0.022 A 
HETATM    8  C3  UNK     1      19.278   0.755  30.449  1.00  0.00     0.001 A 
HETATM    9  C5  UNK     1      19.621  -0.198  31.411  1.00  0.00     0.065 A 
HETATM   10  C7  UNK     1      19.592   0.500  29.100  1.00  0.00     0.014 A 
HETATM   11  C9  UNK     1      20.266  -1.397  31.089  1.00  0.00     0.061 A 
HETATM   12  N1  UNK     1      19.208   0.290  32.631  1.00  0.00    -0.357 N 
HETATM   13  C11 UNK     1      20.567  -1.628  29.744  1.00  0.00     0.026 A 
HETATM   14 Cl1  UNK     1      20.679  -2.555  32.289  1.00  0.00    -0.082 Cl
HETATM   15  C10 UNK     1      20.237  -0.695  28.763  1.00  0.00     0.003 A 
HETATM   16  C4  UNK     1      18.617   1.516  32.473  1.00  0.00     0.013 A 
HETATM   17  H5  UNK     1      19.326  -0.191  33.512  1.00  0.00     0.166 HD
HETATM   18  C8  UNK     1      18.085   2.257  33.633  1.00  0.00     0.068 C 
ENDBRANCH   6   7
ENDBRANCH   5   6
ENDBRANCH   2   5
BRANCH   3  19
HETATM   19  C13 UNK     1      18.015   7.091  32.827  1.00  0.00     0.108 A 
HETATM   20  C17 UNK     1      18.690   8.181  33.212  1.00  0.00     0.037 A 
HETATM   21  C14 UNK     1      17.976   9.377  33.629  1.00  0.00    -0.000 A 
HETATM   22  C15 UNK     1      16.584   9.368  33.620  1.00  0.00     0.096 A 
HETATM   23  C20 UNK     1      18.639  10.537  34.038  1.00  0.00     0.014 A 
HETATM   24  C16 UNK     1      15.841  10.481  34.007  1.00  0.00    -0.020 A 
HETATM   25  O1  UNK     1      15.879   8.218  33.213  1.00  0.00    -0.273 OA
HETATM   26  C21 UNK     1      16.510  11.632  34.414  1.00  0.00     0.010 A 
HETATM   27  C22 UNK     1      17.906  11.661  34.430  1.00  0.00     0.002 A 
HETATM   28  C19 UNK     1      16.535   7.058  32.809  1.00  0.00     0.304 A 
HETATM   29  O3  UNK     1      15.913   6.063  32.457  1.00  0.00    -0.259 OA
BRANCH  24  30
HETATM   30  C18 UNK     1      14.348  10.461  33.994  1.00  0.00     0.067 C 
BRANCH  30  31
HETATM   31  C23 UNK     1      13.757  11.322  32.908  1.00  0.00    -0.032 C 
HETATM   32  C24 UNK     1      12.446  11.533  32.746  1.00  0.00     0.007 C 
ENDBRANCH  30  31
ENDBRANCH  24  30
ENDBRANCH   3  19
TORSDOF 6
ENDMDL
MODEL 5
REMARK VINA RESULT:      -9.5      1.452      2.590
REMARK  6 active torsions:
REMARK  status: ('A' for Active; 'I' for Inactive)
REMARK       I    between atoms: C12_18  and  N2_6 
REMARK    1  A    between atoms: C6_12  and  N2_6 
REMARK    2  A    between atoms: C1_7  and  C2_8 
REMARK    3  A    between atoms: C2_8  and  C6_12 
REMARK    4  A    between atoms: C12_18  and  C13_19 
REMARK    5  A    between atoms: C16_22  and  C18_24 
REMARK    6  A    between atoms: C18_24  and  C23_29 
ROOT
HETATM    1  O2  UNK     1      17.609   2.170  29.682  1.00  0.00    -0.267 OA
HETATM    2  N2  UNK     1      19.122   3.649  30.660  1.00  0.00    -0.356 N 
HETATM    3  C12 UNK     1      18.363   2.494  30.596  1.00  0.00     0.257 C 
HETATM    4  H10 UNK     1      19.695   3.840  31.477  1.00  0.00     0.162 HD
ENDROOT
BRANCH   2   5
HETATM    5  C6  UNK     1      19.118   4.653  29.619  1.00  0.00     0.127 C 
BRANCH   5   6
HETATM    6  C2  UNK     1      19.802   5.936  30.092  1.00  0.00     0.061 C 
BRANCH   6   7
HETATM    7  C1  UNK     1      19.378   6.366  31.468  1.00  0.00    -0.022 A 
HETATM    8  C3  UNK     1      18.080   6.775  31.831  1.00  0.00     0.001 A 
HETATM    9  C5  UNK     1      18.134   7.084  33.192  1.00  0.00     0.065 A 
HETATM   10  C7  UNK     1      16.854   6.920  31.151  1.00  0.00     0.014 A 
HETATM   11  C9  UNK     1      17.018   7.531  33.910  1.00  0.00     0.061 A 
HETATM   12  N1  UNK     1      19.427   6.860  33.608  1.00  0.00    -0.357 N 
HETATM   13  C11 UNK     1      15.814   7.667  33.214  1.00  0.00     0.026 A 
HETATM   14 Cl1  UNK     1      17.108   7.905  35.584  1.00  0.00    -0.082 Cl
HETATM   15  C10 UNK     1      15.731   7.366  31.855  1.00  0.00     0.003 A 
HETATM   16  C4  UNK     1      20.191   6.422  32.559  1.00  0.00     0.013 A 
HETATM   17  H5  UNK     1      19.760   7.002  34.552  1.00  0.00     0.166 HD
HETATM   18  C8  UNK     1      21.621   6.109  32.739  1.00  0.00     0.068 C 
ENDBRANCH   6   7
ENDBRANCH   5   6
ENDBRANCH   2   5
BRANCH   3  19
HETATM   19  C13 UNK     1      18.539   1.632  31.770  1.00  0.00     0.108 A 
HETATM   20  C17 UNK     1      18.114   2.128  32.938  1.00  0.00     0.037 A 
HETATM   21  C14 UNK     1      18.246   1.346  34.158  1.00  0.00    -0.000 A 
HETATM   22  C15 UNK     1      18.818   0.080  34.089  1.00  0.00     0.096 A 
HETATM   23  C20 UNK     1      17.815   1.824  35.399  1.00  0.00     0.014 A 
HETATM   24  C16 UNK     1      18.973  -0.718  35.220  1.00  0.00    -0.020 A 
HETATM   25  O1  UNK     1      19.264  -0.436  32.856  1.00  0.00    -0.273 OA
HETATM   26  C21 UNK     1      18.541  -0.234  36.453  1.00  0.00     0.010 A 
HETATM   27  C22 UNK     1      17.964   1.034  36.543  1.00  0.00     0.002 A 
HETATM   28  C19 UNK     1      19.152   0.287  31.672  1.00  0.00     0.304 A 
HETATM   29  O3  UNK     1      19.543  -0.171  30.605  1.00  0.00    -0.259 OA
BRANCH  24  30
HETATM   30  C18 UNK     1      19.589  -2.075  35.135  1.00  0.00     0.067 C 
BRANCH  30  31
HETATM   31  C23 UNK     1      20.445  -2.409  36.328  1.00  0.00    -0.032 C 
HETATM   32  C24 UNK     1      20.274  -3.490  37.098  1.00  0.00     0.007 C 
ENDBRANCH  30  31
ENDBRANCH  24  30
ENDBRANCH   3  19
TORSDOF 6
ENDMDL
MODEL 6
REMARK VINA RESULT:      -9.2      2.147      3.301
REMARK  6 active torsions:
REMARK  status: ('A' for Active; 'I' for Inactive)
REMARK       I    between atoms: C12_18  and  N2_6 
REMARK    1  A    between atoms: C6_12  and  N2_6 
REMARK    2  A    between atoms: C1_7  and  C2_8 
REMARK    3  A    between atoms: C2_8  and  C6_12 
REMARK    4  A    between atoms: C12_18  and  C13_19 
REMARK    5  A    between atoms: C16_22  and  C18_24 
REMARK    6  A    between atoms: C18_24  and  C23_29 
ROOT
HETATM    1  O2  UNK     1      18.810   4.732  30.000  1.00  0.00    -0.267 OA
HETATM    2  N2  UNK     1      17.556   4.677  31.965  1.00  0.00    -0.356 N 
HETATM    3  C12 UNK     1      18.365   4.139  30.980  1.00  0.00     0.257 C 
HETATM    4  H10 UNK     1      17.216   4.093  32.723  1.00  0.00     0.162 HD
ENDROOT
BRANCH   2   5
HETATM    5  C6  UNK     1      17.119   6.056  31.959  1.00  0.00     0.127 C 
BRANCH   5   6
HETATM    6  C2  UNK     1      16.791   6.533  33.373  1.00  0.00     0.061 C 
BRANCH   6   7
HETATM    7  C1  UNK     1      16.926   8.019  33.548  1.00  0.00    -0.022 A 
HETATM    8  C3  UNK     1      18.115   8.697  33.880  1.00  0.00     0.001 A 
HETATM    9  C5  UNK     1      17.787  10.054  33.940  1.00  0.00     0.065 A 
HETATM   10  C7  UNK     1      19.444   8.309  34.138  1.00  0.00     0.014 A 
HETATM   11  C9  UNK     1      18.727  11.045  34.246  1.00  0.00     0.061 A 
HETATM   12  N1  UNK     1      16.445  10.160  33.651  1.00  0.00    -0.357 N 
HETATM   13  C11 UNK     1      20.039  10.636  34.498  1.00  0.00     0.026 A 
HETATM   14 Cl1  UNK     1      18.301  12.708  34.313  1.00  0.00    -0.082 Cl
HETATM   15  C10 UNK     1      20.395   9.289  34.446  1.00  0.00     0.003 A 
HETATM   16  C4  UNK     1      15.914   8.920  33.411  1.00  0.00     0.013 A 
HETATM   17  H5  UNK     1      15.930  11.029  33.622  1.00  0.00     0.166 HD
HETATM   18  C8  UNK     1      14.486   8.756  33.078  1.00  0.00     0.068 C 
ENDBRANCH   6   7
ENDBRANCH   5   6
ENDBRANCH   2   5
BRANCH   3  19
HETATM   19  C13 UNK     1      18.674   2.722  31.208  1.00  0.00     0.108 A 
HETATM   20  C17 UNK     1      19.234   2.067  30.184  1.00  0.00     0.037 A 
HETATM   21  C14 UNK     1      19.577   0.660  30.314  1.00  0.00    -0.000 A 
HETATM   22  C15 UNK     1      19.314   0.010  31.517  1.00  0.00     0.096 A 
HETATM   23  C20 UNK     1      20.162  -0.064  29.273  1.00  0.00     0.014 A 
HETATM   24  C16 UNK     1      19.618  -1.336  31.706  1.00  0.00    -0.020 A 
HETATM   25  O1  UNK     1      18.725   0.706  32.591  1.00  0.00    -0.273 OA
HETATM   26  C21 UNK     1      20.201  -2.050  30.661  1.00  0.00     0.010 A 
HETATM   27  C22 UNK     1      20.473  -1.417  29.447  1.00  0.00     0.002 A 
HETATM   28  C19 UNK     1      18.386   2.053  32.497  1.00  0.00     0.304 A 
HETATM   29  O3  UNK     1      17.873   2.649  33.437  1.00  0.00    -0.259 OA
BRANCH  24  30
HETATM   30  C18 UNK     1      19.333  -2.023  33.000  1.00  0.00     0.067 C 
BRANCH  30  31
HETATM   31  C23 UNK     1      20.573  -2.290  33.812  1.00  0.00    -0.032 C 
HETATM   32  C24 UNK     1      20.591  -2.390  35.145  1.00  0.00     0.007 C 
ENDBRANCH  30  31
ENDBRANCH  24  30
ENDBRANCH   3  19
TORSDOF 6
ENDMDL
MODEL 7
REMARK VINA RESULT:      -9.2      2.124      2.916
REMARK  6 active torsions:
REMARK  status: ('A' for Active; 'I' for Inactive)
REMARK       I    between atoms: C12_18  and  N2_6 
REMARK    1  A    between atoms: C6_12  and  N2_6 
REMARK    2  A    between atoms: C1_7  and  C2_8 
REMARK    3  A    between atoms: C2_8  and  C6_12 
REMARK    4  A    between atoms: C12_18  and  C13_19 
REMARK    5  A    between atoms: C16_22  and  C18_24 
REMARK    6  A    between atoms: C18_24  and  C23_29 
ROOT
HETATM    1  O2  UNK     1      18.835   4.996  30.300  1.00  0.00    -0.267 OA
HETATM    2  N2  UNK     1      17.431   4.775  32.148  1.00  0.00    -0.356 N 
HETATM    3  C12 UNK     1      18.321   4.322  31.191  1.00  0.00     0.257 C 
HETATM    4  H10 UNK     1      17.038   4.130  32.827  1.00  0.00     0.162 HD
ENDROOT
BRANCH   2   5
HETATM    5  C6  UNK     1      16.981   6.148  32.219  1.00  0.00     0.127 C 
BRANCH   5   6
HETATM    6  C2  UNK     1      16.903   6.625  33.669  1.00  0.00     0.061 C 
BRANCH   6   7
HETATM    7  C1  UNK     1      17.150   8.099  33.826  1.00  0.00    -0.022 A 
HETATM    8  C3  UNK     1      16.153   9.093  33.874  1.00  0.00     0.001 A 
HETATM    9  C5  UNK     1      16.821  10.310  34.026  1.00  0.00     0.065 A 
HETATM   10  C7  UNK     1      14.745   9.096  33.803  1.00  0.00     0.014 A 
HETATM   11  C9  UNK     1      16.149  11.534  34.113  1.00  0.00     0.061 A 
HETATM   12  N1  UNK     1      18.168  10.030  34.066  1.00  0.00    -0.357 N 
HETATM   13  C11 UNK     1      14.753  11.512  34.041  1.00  0.00     0.026 A 
HETATM   14 Cl1  UNK     1      16.992  13.019  34.301  1.00  0.00    -0.082 Cl
HETATM   15  C10 UNK     1      14.060  10.313  33.889  1.00  0.00     0.003 A 
HETATM   16  C4  UNK     1      18.375   8.682  33.944  1.00  0.00     0.013 A 
HETATM   17  H5  UNK     1      18.896  10.724  34.170  1.00  0.00     0.166 HD
HETATM   18  C8  UNK     1      19.738   8.118  33.956  1.00  0.00     0.068 C 
ENDBRANCH   6   7
ENDBRANCH   5   6
ENDBRANCH   2   5
BRANCH   3  19
HETATM   19  C13 UNK     1      18.626   2.894  31.327  1.00  0.00     0.108 A 
HETATM   20  C17 UNK     1      19.159   2.297  30.254  1.00  0.00     0.037 A 
HETATM   21  C14 UNK     1      19.496   0.883  30.293  1.00  0.00    -0.000 A 
HETATM   22  C15 UNK     1      19.256   0.165  31.461  1.00  0.00     0.096 A 
HETATM   23  C20 UNK     1      20.054   0.219  29.198  1.00  0.00     0.014 A 
HETATM   24  C16 UNK     1      19.556  -1.192  31.563  1.00  0.00    -0.020 A 
HETATM   25  O1  UNK     1      18.695   0.799  32.587  1.00  0.00    -0.273 OA
HETATM   26  C21 UNK     1      20.112  -1.845  30.465  1.00  0.00     0.010 A 
HETATM   27  C22 UNK     1      20.361  -1.142  29.285  1.00  0.00     0.002 A 
HETATM   28  C19 UNK     1      18.362   2.150  32.580  1.00  0.00     0.304 A 
HETATM   29  O3  UNK     1      17.874   2.692  33.565  1.00  0.00    -0.259 OA
BRANCH  24  30
HETATM   30  C18 UNK     1      19.295  -1.953  32.820  1.00  0.00     0.067 C 
BRANCH  30  31
HETATM   31  C23 UNK     1      20.556  -2.369  33.530  1.00  0.00    -0.032 C 
HETATM   32  C24 UNK     1      20.680  -2.447  34.859  1.00  0.00     0.007 C 
ENDBRANCH  30  31
ENDBRANCH  24  30
ENDBRANCH   3  19
TORSDOF 6
ENDMDL
MODEL 8
REMARK VINA RESULT:      -9.2      5.314     11.053
REMARK  6 active torsions:
REMARK  status: ('A' for Active; 'I' for Inactive)
REMARK       I    between atoms: C12_18  and  N2_6 
REMARK    1  A    between atoms: C6_12  and  N2_6 
REMARK    2  A    between atoms: C1_7  and  C2_8 
REMARK    3  A    between atoms: C2_8  and  C6_12 
REMARK    4  A    between atoms: C12_18  and  C13_19 
REMARK    5  A    between atoms: C16_22  and  C18_24 
REMARK    6  A    between atoms: C18_24  and  C23_29 
ROOT
HETATM    1  O2  UNK     1      17.346  -0.877  36.608  1.00  0.00    -0.267 OA
HETATM    2  N2  UNK     1      19.104  -2.080  35.661  1.00  0.00    -0.356 N 
HETATM    3  C12 UNK     1      18.196  -1.039  35.735  1.00  0.00     0.257 C 
HETATM    4  H10 UNK     1      19.750  -2.140  34.879  1.00  0.00     0.162 HD
ENDROOT
BRANCH   2   5
HETATM    5  C6  UNK     1      19.165  -3.144  36.638  1.00  0.00     0.127 C 
BRANCH   5   6
HETATM    6  C2  UNK     1      19.871  -4.373  36.067  1.00  0.00     0.061 C 
BRANCH   6   7
HETATM    7  C1  UNK     1      19.719  -5.599  36.921  1.00  0.00    -0.022 A 
HETATM    8  C3  UNK     1      20.698  -6.111  37.796  1.00  0.00     0.001 A 
HETATM    9  C5  UNK     1      20.142  -7.250  38.382  1.00  0.00     0.065 A 
HETATM   10  C7  UNK     1      22.006  -5.732  38.158  1.00  0.00     0.014 A 
HETATM   11  C9  UNK     1      20.831  -8.031  39.317  1.00  0.00     0.061 A 
HETATM   12  N1  UNK     1      18.875  -7.396  37.863  1.00  0.00    -0.357 N 
HETATM   13  C11 UNK     1      22.126  -7.635  39.660  1.00  0.00     0.026 A 
HETATM   14 Cl1  UNK     1      20.126  -9.428  40.026  1.00  0.00    -0.082 Cl
HETATM   15  C10 UNK     1      22.707  -6.503  39.091  1.00  0.00     0.003 A 
HETATM   16  C4  UNK     1      18.612  -6.391  36.970  1.00  0.00     0.013 A 
HETATM   17  H5  UNK     1      18.236  -8.140  38.108  1.00  0.00     0.166 HD
HETATM   18  C8  UNK     1      17.316  -6.317  36.269  1.00  0.00     0.068 C 
ENDBRANCH   6   7
ENDBRANCH   5   6
ENDBRANCH   2   5
BRANCH   3  19
HETATM   19  C13 UNK     1      18.332  -0.084  34.629  1.00  0.00     0.108 A 
HETATM   20  C17 UNK     1      18.105   1.201  34.926  1.00  0.00     0.037 A 
HETATM   21  C14 UNK     1      18.216   2.222  33.897  1.00  0.00    -0.000 A 
HETATM   22  C15 UNK     1      18.562   1.841  32.604  1.00  0.00     0.096 A 
HETATM   23  C20 UNK     1      17.989   3.575  34.162  1.00  0.00     0.014 A 
HETATM   24  C16 UNK     1      18.685   2.770  31.573  1.00  0.00    -0.020 A 
HETATM   25  O1  UNK     1      18.801   0.487  32.298  1.00  0.00    -0.273 OA
HETATM   26  C21 UNK     1      18.456   4.117  31.846  1.00  0.00     0.010 A 
HETATM   27  C22 UNK     1      18.108   4.519  33.137  1.00  0.00     0.002 A 
HETATM   28  C19 UNK     1      18.702  -0.513  33.261  1.00  0.00     0.304 A 
HETATM   29  O3  UNK     1      18.910  -1.689  32.984  1.00  0.00    -0.259 OA
BRANCH  24  30
HETATM   30  C18 UNK     1      19.057   2.351  30.190  1.00  0.00     0.067 C 
BRANCH  30  31
HETATM   31  C23 UNK     1      17.870   2.246  29.267  1.00  0.00    -0.032 C 
HETATM   32  C24 UNK     1      17.745   1.327  28.304  1.00  0.00     0.007 C 
ENDBRANCH  30  31
ENDBRANCH  24  30
ENDBRANCH   3  19
TORSDOF 6
ENDMDL
MODEL 9
REMARK VINA RESULT:      -9.0      3.682      9.652
REMARK  6 active torsions:
REMARK  status: ('A' for Active; 'I' for Inactive)
REMARK       I    between atoms: C12_18  and  N2_6 
REMARK    1  A    between atoms: C6_12  and  N2_6 
REMARK    2  A    between atoms: C1_7  and  C2_8 
REMARK    3  A    between atoms: C2_8  and  C6_12 
REMARK    4  A    between atoms: C12_18  and  C13_19 
REMARK    5  A    between atoms: C16_22  and  C18_24 
REMARK    6  A    between atoms: C18_24  and  C23_29 
ROOT
HETATM    1  O2  UNK     1      19.552   5.390  33.550  1.00  0.00    -0.267 OA
HETATM    2  N2  UNK     1      18.558   5.576  31.449  1.00  0.00    -0.356 N 
HETATM    3  C12 UNK     1      18.825   5.972  32.747  1.00  0.00     0.257 C 
HETATM    4  H10 UNK     1      17.918   6.113  30.872  1.00  0.00     0.162 HD
ENDROOT
BRANCH   2   5
HETATM    5  C6  UNK     1      19.123   4.383  30.857  1.00  0.00     0.127 C 
BRANCH   5   6
HETATM    6  C2  UNK     1      18.084   3.265  30.781  1.00  0.00     0.061 C 
BRANCH   6   7
HETATM    7  C1  UNK     1      18.584   1.949  31.306  1.00  0.00    -0.022 A 
HETATM    8  C3  UNK     1      19.176   0.933  30.531  1.00  0.00     0.001 A 
HETATM    9  C5  UNK     1      19.486  -0.103  31.415  1.00  0.00     0.065 A 
HETATM   10  C7  UNK     1      19.485   0.775  29.165  1.00  0.00     0.014 A 
HETATM   11  C9  UNK     1      20.094  -1.293  31.000  1.00  0.00     0.061 A 
HETATM   12  N1  UNK     1      19.087   0.301  32.669  1.00  0.00    -0.357 N 
HETATM   13  C11 UNK     1      20.392  -1.427  29.641  1.00  0.00     0.026 A 
HETATM   14 Cl1  UNK     1      20.468  -2.553  32.106  1.00  0.00    -0.082 Cl
HETATM   15  C10 UNK     1      20.093  -0.411  28.736  1.00  0.00     0.003 A 
HETATM   16  C4  UNK     1      18.534   1.553  32.608  1.00  0.00     0.013 A 
HETATM   17  H5  UNK     1      19.187  -0.251  33.510  1.00  0.00     0.166 HD
HETATM   18  C8  UNK     1      18.023   2.217  33.822  1.00  0.00     0.068 C 
ENDBRANCH   6   7
ENDBRANCH   5   6
ENDBRANCH   2   5
BRANCH   3  19
HETATM   19  C13 UNK     1      18.138   7.215  33.117  1.00  0.00     0.108 A 
HETATM   20  C17 UNK     1      16.827   7.267  32.850  1.00  0.00     0.037 A 
HETATM   21  C14 UNK     1      16.059   8.458  33.180  1.00  0.00    -0.000 A 
HETATM   22  C15 UNK     1      16.708   9.535  33.776  1.00  0.00     0.096 A 
HETATM   23  C20 UNK     1      14.690   8.557  32.920  1.00  0.00     0.014 A 
HETATM   24  C16 UNK     1      16.031  10.704  34.116  1.00  0.00    -0.020 A 
HETATM   25  O1  UNK     1      18.088   9.473  34.054  1.00  0.00    -0.273 OA
HETATM   26  C21 UNK     1      14.666  10.794  33.853  1.00  0.00     0.010 A 
HETATM   27  C22 UNK     1      13.996   9.724  33.256  1.00  0.00     0.002 A 
HETATM   28  C19 UNK     1      18.850   8.348  33.750  1.00  0.00     0.304 A 
HETATM   29  O3  UNK     1      20.050   8.304  33.996  1.00  0.00    -0.259 OA
BRANCH  24  30
HETATM   30  C18 UNK     1      16.736  11.853  34.754  1.00  0.00     0.067 C 
BRANCH  30  31
HETATM   31  C23 UNK     1      15.812  12.756  35.528  1.00  0.00    -0.032 C 
HETATM   32  C24 UNK     1      16.156  13.404  36.647  1.00  0.00     0.007 C 
ENDBRANCH  30  31
ENDBRANCH  24  30
ENDBRANCH   3  19
TORSDOF 6
ENDMDL
MODEL 10
REMARK VINA RESULT:      -8.9     13.925     16.391
REMARK  6 active torsions:
REMARK  status: ('A' for Active; 'I' for Inactive)
REMARK       I    between atoms: C12_18  and  N2_6 
REMARK    1  A    between atoms: C6_12  and  N2_6 
REMARK    2  A    between atoms: C1_7  and  C2_8 
REMARK    3  A    between atoms: C2_8  and  C6_12 
REMARK    4  A    between atoms: C12_18  and  C13_19 
REMARK    5  A    between atoms: C16_22  and  C18_24 
REMARK    6  A    between atoms: C18_24  and  C23_29 
ROOT
HETATM    1  O2  UNK     1      32.449  -4.530  34.884  1.00  0.00    -0.267 OA
HETATM    2  N2  UNK     1      32.790  -6.766  35.449  1.00  0.00    -0.356 N 
HETATM    3  C12 UNK     1      32.276  -5.731  34.688  1.00  0.00     0.257 C 
HETATM    4  H10 UNK     1      32.565  -7.729  35.220  1.00  0.00     0.162 HD
ENDROOT
BRANCH   2   5
HETATM    5  C6  UNK     1      33.623  -6.551  36.611  1.00  0.00     0.127 C 
BRANCH   5   6
HETATM    6  C2  UNK     1      33.174  -7.432  37.777  1.00  0.00     0.061 C 
BRANCH   6   7
HETATM    7  C1  UNK     1      31.686  -7.441  37.980  1.00  0.00    -0.022 A 
HETATM    8  C3  UNK     1      30.890  -6.307  38.235  1.00  0.00     0.001 A 
HETATM    9  C5  UNK     1      29.578  -6.770  38.356  1.00  0.00     0.065 A 
HETATM   10  C7  UNK     1      31.139  -4.927  38.378  1.00  0.00     0.014 A 
HETATM   11  C9  UNK     1      28.498  -5.918  38.614  1.00  0.00     0.061 A 
HETATM   12  N1  UNK     1      29.611  -8.134  38.176  1.00  0.00    -0.357 N 
HETATM   13  C11 UNK     1      28.769  -4.554  38.752  1.00  0.00     0.026 A 
HETATM   14 Cl1  UNK     1      26.891  -6.510  38.758  1.00  0.00    -0.082 Cl
HETATM   15  C10 UNK     1      30.068  -4.064  38.636  1.00  0.00     0.003 A 
HETATM   16  C4  UNK     1      30.896  -8.549  37.946  1.00  0.00     0.013 A 
HETATM   17  H5  UNK     1      28.801  -8.738  38.211  1.00  0.00     0.166 HD
HETATM   18  C8  UNK     1      31.205  -9.974  37.722  1.00  0.00     0.068 C 
ENDBRANCH   6   7
ENDBRANCH   5   6
ENDBRANCH   2   5
BRANCH   3  19
HETATM   19  C13 UNK     1      31.464  -6.202  33.560  1.00  0.00     0.108 A 
HETATM   20  C17 UNK     1      30.154  -5.937  33.623  1.00  0.00     0.037 A 
HETATM   21  C14 UNK     1      29.267  -6.363  32.552  1.00  0.00    -0.000 A 
HETATM   22  C15 UNK     1      29.803  -7.048  31.465  1.00  0.00     0.096 A 
HETATM   23  C20 UNK     1      27.894  -6.108  32.576  1.00  0.00     0.014 A 
HETATM   24  C16 UNK     1      29.009  -7.483  30.407  1.00  0.00    -0.020 A 
HETATM   25  O1  UNK     1      31.184  -7.323  31.405  1.00  0.00    -0.273 OA
HETATM   26  C21 UNK     1      27.640  -7.225  30.440  1.00  0.00     0.010 A 
HETATM   27  C22 UNK     1      27.083  -6.539  31.521  1.00  0.00     0.002 A 
HETATM   28  C19 UNK     1      32.057  -6.928  32.415  1.00  0.00     0.304 A 
HETATM   29  O3  UNK     1      33.257  -7.173  32.353  1.00  0.00    -0.259 OA
BRANCH  24  30
HETATM   30  C18 UNK     1      29.594  -8.216  29.247  1.00  0.00     0.067 C 
BRANCH  30  31
HETATM   31  C23 UNK     1      29.183  -9.665  29.198  1.00  0.00    -0.032 C 
HETATM   32  C24 UNK     1      28.377 -10.187  28.267  1.00  0.00     0.007 C 
ENDBRANCH  30  31
ENDBRANCH  24  30
ENDBRANCH   3  19
TORSDOF 6
ENDMDL
