MODEL 1
REMARK VINA RESULT:      -6.5      0.000      0.000
REMARK  0 active torsions:
REMARK  status: ('A' for Active; 'I' for Inactive)
ROOT
HETATM    1  F1  UNK     1      20.835  -2.828  31.425  1.00  0.00    -0.206 F 
HETATM    2  O1  UNK     1      18.932   1.425  28.499  1.00  0.00    -0.322 OA
HETATM    3  O2  UNK     1      18.512   1.564  32.555  1.00  0.00    -0.287 OA
HETATM    4  C1  UNK     1      19.281   0.369  30.662  1.00  0.00     0.051 A 
HETATM    5  C2  UNK     1      19.393   0.385  29.270  1.00  0.00     0.089 A 
HETATM    6  C3  UNK     1      19.767  -0.715  31.397  1.00  0.00     0.060 A 
HETATM    7  C4  UNK     1      18.643   1.513  31.341  1.00  0.00     0.186 A 
HETATM    8  C5  UNK     1      19.993  -0.685  28.606  1.00  0.00     0.041 A 
HETATM    9  C6  UNK     1      20.366  -1.783  30.729  1.00  0.00     0.117 A 
HETATM   10  C7  UNK     1      20.479  -1.769  29.338  1.00  0.00     0.045 A 
HETATM   11  C8  UNK     1      18.167   2.603  30.467  1.00  0.00     0.080 A 
HETATM   12  C9  UNK     1      18.342   2.482  29.148  1.00  0.00     0.146 A 
ENDROOT
TORSDOF 0
ENDMDL
MODEL 2
REMARK VINA RESULT:      -6.4     10.392     11.721
REMARK  0 active torsions:
REMARK  status: ('A' for Active; 'I' for Inactive)
ROOT
HETATM    1  F1  UNK     1      19.718   0.833  22.321  1.00  0.00    -0.206 F 
HETATM    2  O1  UNK     1      19.032   1.109  16.869  1.00  0.00    -0.322 OA
HETATM    3  O2  UNK     1      20.318   4.466  18.799  1.00  0.00    -0.287 OA
HETATM    4  C1  UNK     1      19.655   2.199  18.952  1.00  0.00     0.051 A 
HETATM    5  C2  UNK     1      19.217   1.086  18.230  1.00  0.00     0.089 A 
HETATM    6  C3  UNK     1      19.827   2.120  20.336  1.00  0.00     0.060 A 
HETATM    7  C4  UNK     1      19.933   3.455  18.230  1.00  0.00     0.186 A 
HETATM    8  C5  UNK     1      18.949  -0.112  18.891  1.00  0.00     0.041 A 
HETATM    9  C6  UNK     1      19.557   0.919  20.993  1.00  0.00     0.117 A 
HETATM   10  C7  UNK     1      19.119  -0.195  20.274  1.00  0.00     0.045 A 
HETATM   11  C8  UNK     1      19.718   3.425  16.770  1.00  0.00     0.080 A 
HETATM   12  C9  UNK     1      19.295   2.287  16.213  1.00  0.00     0.146 A 
ENDROOT
TORSDOF 0
ENDMDL
MODEL 3
REMARK VINA RESULT:      -6.4     10.684     12.159
REMARK  0 active torsions:
REMARK  status: ('A' for Active; 'I' for Inactive)
ROOT
HETATM    1  F1  UNK     1      19.110   2.238  15.328  1.00  0.00    -0.206 F 
HETATM    2  O1  UNK     1      19.894   2.756  20.749  1.00  0.00    -0.322 OA
HETATM    3  O2  UNK     1      18.790  -0.905  19.326  1.00  0.00    -0.287 OA
HETATM    4  C1  UNK     1      19.309   1.355  18.849  1.00  0.00     0.051 A 
HETATM    5  C2  UNK     1      19.688   2.581  19.402  1.00  0.00     0.089 A 
HETATM    6  C3  UNK     1      19.112   1.232  17.472  1.00  0.00     0.060 A 
HETATM    7  C4  UNK     1      19.121   0.196  19.742  1.00  0.00     0.186 A 
HETATM    8  C5  UNK     1      19.872   3.690  18.578  1.00  0.00     0.041 A 
HETATM    9  C6  UNK     1      19.297   2.345  16.651  1.00  0.00     0.117 A 
HETATM   10  C7  UNK     1      19.676   3.571  17.201  1.00  0.00     0.045 A 
HETATM   11  C8  UNK     1      19.356   0.439  21.179  1.00  0.00     0.080 A 
HETATM   12  C9  UNK     1      19.715   1.666  21.565  1.00  0.00     0.146 A 
ENDROOT
TORSDOF 0
ENDMDL
MODEL 4
REMARK VINA RESULT:      -6.2      2.323      3.837
REMARK  0 active torsions:
REMARK  status: ('A' for Active; 'I' for Inactive)
ROOT
HETATM    1  F1  UNK     1      18.017   3.496  32.430  1.00  0.00    -0.206 F 
HETATM    2  O1  UNK     1      19.286   0.227  28.191  1.00  0.00    -0.322 OA
HETATM    3  O2  UNK     1      20.479  -0.935  31.916  1.00  0.00    -0.287 OA
HETATM    4  C1  UNK     1      19.369   0.674  30.580  1.00  0.00     0.051 A 
HETATM    5  C2  UNK     1      18.991   1.013  29.279  1.00  0.00     0.089 A 
HETATM    6  C3  UNK     1      19.042   1.509  31.651  1.00  0.00     0.060 A 
HETATM    7  C4  UNK     1      20.117  -0.578  30.804  1.00  0.00     0.186 A 
HETATM    8  C5  UNK     1      18.283   2.191  29.043  1.00  0.00     0.041 A 
HETATM    9  C6  UNK     1      18.334   2.687  31.410  1.00  0.00     0.117 A 
HETATM   10  C7  UNK     1      17.955   3.028  30.110  1.00  0.00     0.045 A 
HETATM   11  C8  UNK     1      20.407  -1.384  29.602  1.00  0.00     0.080 A 
HETATM   12  C9  UNK     1      19.983  -0.934  28.418  1.00  0.00     0.146 A 
ENDROOT
TORSDOF 0
ENDMDL
MODEL 5
REMARK VINA RESULT:      -6.1      6.804      8.142
REMARK  0 active torsions:
REMARK  status: ('A' for Active; 'I' for Inactive)
ROOT
HETATM    1  F1  UNK     1      20.393   5.565  30.683  1.00  0.00    -0.206 F 
HETATM    2  O1  UNK     1      17.621   8.138  34.679  1.00  0.00    -0.322 OA
HETATM    3  O2  UNK     1      16.076   8.263  30.904  1.00  0.00    -0.287 OA
HETATM    4  C1  UNK     1      17.806   7.513  32.335  1.00  0.00     0.051 A 
HETATM    5  C2  UNK     1      18.280   7.509  33.650  1.00  0.00     0.089 A 
HETATM    6  C3  UNK     1      18.516   6.857  31.327  1.00  0.00     0.060 A 
HETATM    7  C4  UNK     1      16.547   8.219  32.032  1.00  0.00     0.186 A 
HETATM    8  C5  UNK     1      19.467   6.848  33.961  1.00  0.00     0.041 A 
HETATM    9  C6  UNK     1      19.704   6.197  31.643  1.00  0.00     0.117 A 
HETATM   10  C7  UNK     1      20.179   6.192  32.956  1.00  0.00     0.045 A 
HETATM   11  C8  UNK     1      15.880   8.877  33.173  1.00  0.00     0.080 A 
HETATM   12  C9  UNK     1      16.451   8.790  34.378  1.00  0.00     0.146 A 
ENDROOT
TORSDOF 0
ENDMDL
MODEL 6
REMARK VINA RESULT:      -6.1      6.223      7.047
REMARK  0 active torsions:
REMARK  status: ('A' for Active; 'I' for Inactive)
ROOT
HETATM    1  F1  UNK     1      22.279   5.746  31.330  1.00  0.00    -0.206 F 
HETATM    2  O1  UNK     1      16.895   6.795  31.765  1.00  0.00    -0.322 OA
HETATM    3  O2  UNK     1      19.237   7.468  35.038  1.00  0.00    -0.287 OA
HETATM    4  C1  UNK     1      19.103   6.756  32.785  1.00  0.00     0.051 A 
HETATM    5  C2  UNK     1      18.245   6.547  31.702  1.00  0.00     0.089 A 
HETATM    6  C3  UNK     1      20.469   6.487  32.665  1.00  0.00     0.060 A 
HETATM    7  C4  UNK     1      18.544   7.263  34.052  1.00  0.00     0.186 A 
HETATM    8  C5  UNK     1      18.751   6.068  30.493  1.00  0.00     0.041 A 
HETATM    9  C6  UNK     1      20.971   6.008  31.455  1.00  0.00     0.117 A 
HETATM   10  C7  UNK     1      20.115   5.799  30.371  1.00  0.00     0.045 A 
HETATM   11  C8  UNK     1      17.090   7.513  34.065  1.00  0.00     0.080 A 
HETATM   12  C9  UNK     1      16.392   7.267  32.952  1.00  0.00     0.146 A 
ENDROOT
TORSDOF 0
ENDMDL
MODEL 7
REMARK VINA RESULT:      -6.1      2.480      4.561
REMARK  0 active torsions:
REMARK  status: ('A' for Active; 'I' for Inactive)
ROOT
HETATM    1  F1  UNK     1      18.203   3.717  28.938  1.00  0.00    -0.206 F 
HETATM    2  O1  UNK     1      19.594  -0.528  32.150  1.00  0.00    -0.322 OA
HETATM    3  O2  UNK     1      20.220  -0.893  28.134  1.00  0.00    -0.287 OA
HETATM    4  C1  UNK     1      19.450   0.447  29.926  1.00  0.00     0.051 A 
HETATM    5  C2  UNK     1      19.261   0.507  31.310  1.00  0.00     0.089 A 
HETATM    6  C3  UNK     1      19.094   1.530  29.119  1.00  0.00     0.060 A 
HETATM    7  C4  UNK     1      20.029  -0.774  29.336  1.00  0.00     0.186 A 
HETATM    8  C5  UNK     1      18.716   1.651  31.891  1.00  0.00     0.041 A 
HETATM    9  C6  UNK     1      18.548   2.673  29.704  1.00  0.00     0.117 A 
HETATM   10  C7  UNK     1      18.359   2.734  31.086  1.00  0.00     0.045 A 
HETATM   11  C8  UNK     1      20.368  -1.854  30.282  1.00  0.00     0.080 A 
HETATM   12  C9  UNK     1      20.132  -1.657  31.582  1.00  0.00     0.146 A 
ENDROOT
TORSDOF 0
ENDMDL
MODEL 8
REMARK VINA RESULT:      -6.0     23.301     24.879
REMARK  0 active torsions:
REMARK  status: ('A' for Active; 'I' for Inactive)
ROOT
HETATM    1  F1  UNK     1       7.599   5.527   8.224  1.00  0.00    -0.206 F 
HETATM    2  O1  UNK     1      12.637   6.757   6.386  1.00  0.00    -0.322 OA
HETATM    3  O2  UNK     1      12.211   5.912  10.355  1.00  0.00    -0.287 OA
HETATM    4  C1  UNK     1      11.182   6.145   8.237  1.00  0.00     0.051 A 
HETATM    5  C2  UNK     1      11.397   6.444   6.889  1.00  0.00     0.089 A 
HETATM    6  C3  UNK     1       9.899   5.834   8.694  1.00  0.00     0.060 A 
HETATM    7  C4  UNK     1      12.328   6.163   9.164  1.00  0.00     0.186 A 
HETATM    8  C5  UNK     1      10.328   6.433   5.993  1.00  0.00     0.041 A 
HETATM    9  C6  UNK     1       8.833   5.823   7.795  1.00  0.00     0.117 A 
HETATM   10  C7  UNK     1       9.046   6.122   6.448  1.00  0.00     0.045 A 
HETATM   11  C8  UNK     1      13.637   6.504   8.573  1.00  0.00     0.080 A 
HETATM   12  C9  UNK     1      13.692   6.769   7.264  1.00  0.00     0.146 A 
ENDROOT
TORSDOF 0
ENDMDL
MODEL 9
REMARK VINA RESULT:      -6.0     23.561     25.233
REMARK  0 active torsions:
REMARK  status: ('A' for Active; 'I' for Inactive)
ROOT
HETATM    1  F1  UNK     1       8.862   6.782   4.933  1.00  0.00    -0.206 F 
HETATM    2  O1  UNK     1      11.428   5.712   9.680  1.00  0.00    -0.322 OA
HETATM    3  O2  UNK     1      13.709   6.869   6.501  1.00  0.00    -0.287 OA
HETATM    4  C1  UNK     1      11.551   6.390   7.347  1.00  0.00     0.051 A 
HETATM    5  C2  UNK     1      10.830   5.990   8.475  1.00  0.00     0.089 A 
HETATM    6  C3  UNK     1      10.891   6.660   6.146  1.00  0.00     0.060 A 
HETATM    7  C4  UNK     1      13.017   6.524   7.447  1.00  0.00     0.186 A 
HETATM    8  C5  UNK     1       9.443   5.857   8.405  1.00  0.00     0.041 A 
HETATM    9  C6  UNK     1       9.504   6.526   6.081  1.00  0.00     0.117 A 
HETATM   10  C7  UNK     1       8.781   6.126   7.206  1.00  0.00     0.045 A 
HETATM   11  C8  UNK     1      13.608   6.214   8.764  1.00  0.00     0.080 A 
HETATM   12  C9  UNK     1      12.794   5.842   9.755  1.00  0.00     0.146 A 
ENDROOT
TORSDOF 0
ENDMDL
MODEL 10
REMARK VINA RESULT:      -5.9     10.547     12.015
REMARK  0 active torsions:
REMARK  status: ('A' for Active; 'I' for Inactive)
ROOT
HETATM    1  F1  UNK     1      19.265  -0.664  21.583  1.00  0.00    -0.206 F 
HETATM    2  O1  UNK     1      19.652   3.478  17.982  1.00  0.00    -0.322 OA
HETATM    3  O2  UNK     1      18.929  -0.260  16.515  1.00  0.00    -0.287 OA
HETATM    4  C1  UNK     1      19.301   1.109  18.409  1.00  0.00     0.051 A 
HETATM    5  C2  UNK     1      19.547   2.414  18.845  1.00  0.00     0.089 A 
HETATM    6  C3  UNK     1      19.204   0.064  19.331  1.00  0.00     0.060 A 
HETATM    7  C4  UNK     1      19.145   0.856  16.965  1.00  0.00     0.186 A 
HETATM    8  C5  UNK     1      19.698   2.678  20.206  1.00  0.00     0.041 A 
HETATM    9  C6  UNK     1      19.355   0.332  20.692  1.00  0.00     0.117 A 
HETATM   10  C7  UNK     1      19.601   1.635  21.129  1.00  0.00     0.045 A 
HETATM   11  C8  UNK     1      19.266   2.033  16.083  1.00  0.00     0.080 A 
HETATM   12  C9  UNK     1      19.504   3.224  16.641  1.00  0.00     0.146 A 
ENDROOT
TORSDOF 0
ENDMDL
