MODEL 1
REMARK VINA RESULT:      -9.5      0.000      0.000
REMARK  4 active torsions:
REMARK  status: ('A' for Active; 'I' for Inactive)
REMARK       I    between atoms: C10_18  and  N1_7 
REMARK    1  A    between atoms: N1_7  and  N2_8 
REMARK    2  A    between atoms: C1_9  and  C2_10 
REMARK    3  A    between atoms: C10_18  and  C6_14 
REMARK    4  A    between atoms: C12_20  and  C18_26 
ROOT
HETATM    1  N2  UNK     1      18.643   4.912  30.836  1.00  0.00    -0.183 NA
HETATM    2  C18 UNK     1      18.384   5.194  32.073  1.00  0.00     0.156 C 
ENDROOT
BRANCH   2   3
HETATM    3  C12 UNK     1      17.764   6.456  32.476  1.00  0.00     0.056 A 
HETATM    4  C11 UNK     1      18.521   7.601  33.029  1.00  0.00     0.198 A 
HETATM    5  C8  UNK     1      17.726   8.793  33.377  1.00  0.00     0.052 A 
HETATM    6  O2  UNK     1      19.734   7.565  33.186  1.00  0.00    -0.286 OA
HETATM    7  C13 UNK     1      18.341   9.931  33.904  1.00  0.00     0.042 A 
HETATM    8  C9  UNK     1      16.344   8.771  33.173  1.00  0.00     0.111 A 
HETATM    9  C16 UNK     1      17.566  11.046  34.224  1.00  0.00     0.036 A 
HETATM   10  C17 UNK     1      16.185  11.025  34.021  1.00  0.00     0.050 A 
HETATM   11 Cl2  UNK     1      18.316  12.454  34.874  1.00  0.00    -0.084 Cl
HETATM   12  C14 UNK     1      15.573   9.887  33.495  1.00  0.00     0.070 A 
HETATM   13 Cl1  UNK     1      13.863   9.903  33.259  1.00  0.00    -0.081 Cl
HETATM   14  O1  UNK     1      15.687   7.681  32.657  1.00  0.00    -0.319 OA
HETATM   15  C15 UNK     1      16.440   6.576  32.335  1.00  0.00     0.159 A 
ENDBRANCH   2   3
BRANCH   1  16
HETATM   16  N1  UNK     1      19.216   3.697  30.656  1.00  0.00    -0.243 N 
HETATM   17  C10 UNK     1      18.393   2.593  30.495  1.00  0.00     0.272 C 
HETATM   18  O3  UNK     1      17.164   2.662  30.509  1.00  0.00    -0.266 OA
HETATM   19  H14 UNK     1      20.229   3.651  30.620  1.00  0.00     0.192 HD
BRANCH  17  20
HETATM   20  C6  UNK     1      19.085   1.315  30.276  1.00  0.00     0.041 A 
HETATM   21  C5  UNK     1      19.536   0.468  31.304  1.00  0.00     0.032 A 
HETATM   22  C2  UNK     1      20.146  -0.654  30.789  1.00  0.00    -0.013 A 
HETATM   23  S1  UNK     1      20.156  -0.651  29.076  1.00  0.00    -0.105 SA
HETATM   24  C7  UNK     1      19.343   0.855  29.021  1.00  0.00     0.067 A 
BRANCH  22  25
HETATM   25  C1  UNK     1      20.754  -1.789  31.518  1.00  0.00     0.017 C 
HETATM   26  C3  UNK     1      20.866  -3.066  30.657  1.00  0.00     0.015 C 
HETATM   27  C4  UNK     1      20.018  -2.122  32.835  1.00  0.00     0.015 C 
ENDBRANCH  22  25
ENDBRANCH  17  20
ENDBRANCH   1  16
TORSDOF 4
ENDMDL
MODEL 2
REMARK VINA RESULT:      -9.1      5.794      7.981
REMARK  4 active torsions:
REMARK  status: ('A' for Active; 'I' for Inactive)
REMARK       I    between atoms: C10_18  and  N1_7 
REMARK    1  A    between atoms: N1_7  and  N2_8 
REMARK    2  A    between atoms: C1_9  and  C2_10 
REMARK    3  A    between atoms: C10_18  and  C6_14 
REMARK    4  A    between atoms: C12_20  and  C18_26 
ROOT
HETATM    1  N2  UNK     1      19.658  -1.369  35.516  1.00  0.00    -0.183 NA
HETATM    2  C18 UNK     1      18.562  -0.986  34.944  1.00  0.00     0.156 C 
ENDROOT
BRANCH   2   3
HETATM    3  C12 UNK     1      18.497   0.198  34.086  1.00  0.00     0.056 A 
HETATM    4  C11 UNK     1      18.305   1.572  34.600  1.00  0.00     0.198 A 
HETATM    5  C8  UNK     1      18.267   2.641  33.585  1.00  0.00     0.052 A 
HETATM    6  O2  UNK     1      18.187   1.810  35.794  1.00  0.00    -0.286 OA
HETATM    7  C13 UNK     1      18.093   3.975  33.962  1.00  0.00     0.042 A 
HETATM    8  C9  UNK     1      18.407   2.302  32.237  1.00  0.00     0.111 A 
HETATM    9  C16 UNK     1      18.062   4.968  32.982  1.00  0.00     0.036 A 
HETATM   10  C17 UNK     1      18.202   4.631  31.634  1.00  0.00     0.050 A 
HETATM   11 Cl2  UNK     1      17.848   6.615  33.436  1.00  0.00    -0.084 Cl
HETATM   12  C14 UNK     1      18.375   3.298  31.261  1.00  0.00     0.070 A 
HETATM   13 Cl1  UNK     1      18.545   2.924  29.583  1.00  0.00    -0.081 Cl
HETATM   14  O1  UNK     1      18.582   1.009  31.809  1.00  0.00    -0.319 OA
HETATM   15  C15 UNK     1      18.617   0.022  32.766  1.00  0.00     0.159 A 
ENDBRANCH   2   3
BRANCH   1  16
HETATM   16  N1  UNK     1      19.525  -2.487  36.271  1.00  0.00    -0.243 N 
HETATM   17  C10 UNK     1      19.941  -3.698  35.739  1.00  0.00     0.272 C 
HETATM   18  O3  UNK     1      20.425  -3.807  34.613  1.00  0.00    -0.266 OA
HETATM   19  H14 UNK     1      19.149  -2.385  37.208  1.00  0.00     0.192 HD
BRANCH  17  20
HETATM   20  C6  UNK     1      19.792  -4.861  36.625  1.00  0.00     0.041 A 
HETATM   21  C5  UNK     1      20.697  -5.206  37.645  1.00  0.00     0.032 A 
HETATM   22  C2  UNK     1      20.290  -6.344  38.304  1.00  0.00    -0.013 A 
HETATM   23  S1  UNK     1      18.826  -6.965  37.670  1.00  0.00    -0.105 SA
HETATM   24  C7  UNK     1      18.733  -5.709  36.509  1.00  0.00     0.067 A 
BRANCH  22  25
HETATM   25  C1  UNK     1      20.949  -7.041  39.431  1.00  0.00     0.017 C 
HETATM   26  C3  UNK     1      22.485  -6.884  39.419  1.00  0.00     0.015 C 
HETATM   27  C4  UNK     1      20.588  -8.541  39.504  1.00  0.00     0.015 C 
ENDBRANCH  22  25
ENDBRANCH  17  20
ENDBRANCH   1  16
TORSDOF 4
ENDMDL
MODEL 3
REMARK VINA RESULT:      -9.1      0.662      2.193
REMARK  4 active torsions:
REMARK  status: ('A' for Active; 'I' for Inactive)
REMARK       I    between atoms: C10_18  and  N1_7 
REMARK    1  A    between atoms: N1_7  and  N2_8 
REMARK    2  A    between atoms: C1_9  and  C2_10 
REMARK    3  A    between atoms: C10_18  and  C6_14 
REMARK    4  A    between atoms: C12_20  and  C18_26 
ROOT
HETATM    1  N2  UNK     1      18.673   5.039  30.904  1.00  0.00    -0.183 NA
HETATM    2  C18 UNK     1      18.828   5.445  32.123  1.00  0.00     0.156 C 
ENDROOT
BRANCH   2   3
HETATM    3  C12 UNK     1      18.317   6.733  32.593  1.00  0.00     0.056 A 
HETATM    4  C11 UNK     1      16.890   7.118  32.536  1.00  0.00     0.198 A 
HETATM    5  C8  UNK     1      16.561   8.457  33.058  1.00  0.00     0.052 A 
HETATM    6  O2  UNK     1      16.031   6.372  32.086  1.00  0.00    -0.286 OA
HETATM    7  C13 UNK     1      15.243   8.920  33.055  1.00  0.00     0.042 A 
HETATM    8  C9  UNK     1      17.588   9.261  33.559  1.00  0.00     0.111 A 
HETATM    9  C16 UNK     1      14.959  10.191  33.556  1.00  0.00     0.036 A 
HETATM   10  C17 UNK     1      15.984  10.995  34.057  1.00  0.00     0.050 A 
HETATM   11 Cl2  UNK     1      13.337  10.770  33.557  1.00  0.00    -0.084 Cl
HETATM   12  C14 UNK     1      17.300  10.531  34.058  1.00  0.00     0.070 A 
HETATM   13 Cl1  UNK     1      18.538  11.558  34.687  1.00  0.00    -0.081 Cl
HETATM   14  O1  UNK     1      18.901   8.858  33.589  1.00  0.00    -0.319 OA
HETATM   15  C15 UNK     1      19.193   7.606  33.099  1.00  0.00     0.159 A 
ENDBRANCH   2   3
BRANCH   1  16
HETATM   16  N1  UNK     1      19.211   3.821  30.655  1.00  0.00    -0.243 N 
HETATM   17  C10 UNK     1      18.365   2.726  30.579  1.00  0.00     0.272 C 
HETATM   18  O3  UNK     1      17.146   2.805  30.727  1.00  0.00    -0.266 OA
HETATM   19  H14 UNK     1      20.214   3.766  30.508  1.00  0.00     0.192 HD
BRANCH  17  20
HETATM   20  C6  UNK     1      19.017   1.443  30.277  1.00  0.00     0.041 A 
HETATM   21  C5  UNK     1      19.550   0.574  31.247  1.00  0.00     0.032 A 
HETATM   22  C2  UNK     1      20.095  -0.546  30.660  1.00  0.00    -0.013 A 
HETATM   23  S1  UNK     1      19.947  -0.516  28.955  1.00  0.00    -0.105 SA
HETATM   24  C7  UNK     1      19.152   1.000  28.997  1.00  0.00     0.067 A 
BRANCH  22  25
HETATM   25  C1  UNK     1      20.753  -1.699  31.314  1.00  0.00     0.017 C 
HETATM   26  C3  UNK     1      20.860  -2.933  30.390  1.00  0.00     0.015 C 
HETATM   27  C4  UNK     1      20.073  -2.109  32.638  1.00  0.00     0.015 C 
ENDBRANCH  22  25
ENDBRANCH  17  20
ENDBRANCH   1  16
TORSDOF 4
ENDMDL
MODEL 4
REMARK VINA RESULT:      -8.8      1.697      2.964
REMARK  4 active torsions:
REMARK  status: ('A' for Active; 'I' for Inactive)
REMARK       I    between atoms: C10_18  and  N1_7 
REMARK    1  A    between atoms: N1_7  and  N2_8 
REMARK    2  A    between atoms: C1_9  and  C2_10 
REMARK    3  A    between atoms: C10_18  and  C6_14 
REMARK    4  A    between atoms: C12_20  and  C18_26 
ROOT
HETATM    1  N2  UNK     1      17.465   5.307  32.822  1.00  0.00    -0.183 NA
HETATM    2  C18 UNK     1      16.905   6.301  32.211  1.00  0.00     0.156 C 
ENDROOT
BRANCH   2   3
HETATM    3  C12 UNK     1      16.717   7.607  32.844  1.00  0.00     0.056 A 
HETATM    4  C11 UNK     1      15.430   8.064  33.413  1.00  0.00     0.198 A 
HETATM    5  C8  UNK     1      15.432   9.410  34.013  1.00  0.00     0.052 A 
HETATM    6  O2  UNK     1      14.424   7.368  33.390  1.00  0.00    -0.286 OA
HETATM    7  C13 UNK     1      14.270   9.938  34.582  1.00  0.00     0.042 A 
HETATM    8  C9  UNK     1      16.613  10.155  34.008  1.00  0.00     0.111 A 
HETATM    9  C16 UNK     1      14.298  11.215  35.145  1.00  0.00     0.036 A 
HETATM   10  C17 UNK     1      15.478  11.960  35.139  1.00  0.00     0.050 A 
HETATM   11 Cl2  UNK     1      12.871  11.874  35.848  1.00  0.00    -0.084 Cl
HETATM   12  C14 UNK     1      16.637  11.431  34.571  1.00  0.00     0.070 A 
HETATM   13 Cl1  UNK     1      18.076  12.385  34.586  1.00  0.00    -0.081 Cl
HETATM   14  O1  UNK     1      17.785   9.686  33.465  1.00  0.00    -0.319 OA
HETATM   15  C15 UNK     1      17.770   8.428  32.909  1.00  0.00     0.159 A 
ENDBRANCH   2   3
BRANCH   1  16
HETATM   16  N1  UNK     1      17.554   4.180  32.076  1.00  0.00    -0.243 N 
HETATM   17  C10 UNK     1      18.610   4.055  31.187  1.00  0.00     0.272 C 
HETATM   18  O3  UNK     1      19.473   4.920  31.041  1.00  0.00    -0.266 OA
HETATM   19  H14 UNK     1      16.854   3.459  32.220  1.00  0.00     0.192 HD
BRANCH  17  20
HETATM   20  C6  UNK     1      18.656   2.793  30.433  1.00  0.00     0.041 A 
HETATM   21  C5  UNK     1      19.304   1.625  30.875  1.00  0.00     0.032 A 
HETATM   22  C2  UNK     1      19.174   0.610  29.954  1.00  0.00    -0.013 A 
HETATM   23  S1  UNK     1      18.273   1.097  28.582  1.00  0.00    -0.105 SA
HETATM   24  C7  UNK     1      18.055   2.672  29.218  1.00  0.00     0.067 A 
BRANCH  22  25
HETATM   25  C1  UNK     1      19.701  -0.771  30.027  1.00  0.00     0.017 C 
HETATM   26  C3  UNK     1      20.158  -1.166  31.448  1.00  0.00     0.015 C 
HETATM   27  C4  UNK     1      20.851  -1.029  29.028  1.00  0.00     0.015 C 
ENDBRANCH  22  25
ENDBRANCH  17  20
ENDBRANCH   1  16
TORSDOF 4
ENDMDL
MODEL 5
REMARK VINA RESULT:      -8.7      1.585      2.015
REMARK  4 active torsions:
REMARK  status: ('A' for Active; 'I' for Inactive)
REMARK       I    between atoms: C10_18  and  N1_7 
REMARK    1  A    between atoms: N1_7  and  N2_8 
REMARK    2  A    between atoms: C1_9  and  C2_10 
REMARK    3  A    between atoms: C10_18  and  C6_14 
REMARK    4  A    between atoms: C12_20  and  C18_26 
ROOT
HETATM    1  N2  UNK     1      17.640   4.452  33.009  1.00  0.00    -0.183 NA
HETATM    2  C18 UNK     1      17.525   5.420  32.158  1.00  0.00     0.156 C 
ENDROOT
BRANCH   2   3
HETATM    3  C12 UNK     1      17.038   6.746  32.538  1.00  0.00     0.056 A 
HETATM    4  C11 UNK     1      17.904   7.809  33.094  1.00  0.00     0.198 A 
HETATM    5  C8  UNK     1      17.235   9.083  33.417  1.00  0.00     0.052 A 
HETATM    6  O2  UNK     1      19.103   7.644  33.274  1.00  0.00    -0.286 OA
HETATM    7  C13 UNK     1      17.961  10.154  33.945  1.00  0.00     0.042 A 
HETATM    8  C9  UNK     1      15.863   9.207  33.188  1.00  0.00     0.111 A 
HETATM    9  C16 UNK     1      17.305  11.350  34.240  1.00  0.00     0.036 A 
HETATM   10  C17 UNK     1      15.933  11.474  34.012  1.00  0.00     0.050 A 
HETATM   11 Cl2  UNK     1      18.190  12.676  34.891  1.00  0.00    -0.084 Cl
HETATM   12  C14 UNK     1      15.211  10.403  33.486  1.00  0.00     0.070 A 
HETATM   13 Cl1  UNK     1      13.517  10.600  33.218  1.00  0.00    -0.081 Cl
HETATM   14  O1  UNK     1      15.101   8.188  32.670  1.00  0.00    -0.319 OA
HETATM   15  C15 UNK     1      15.737   7.006  32.372  1.00  0.00     0.159 A 
ENDBRANCH   2   3
BRANCH   1  16
HETATM   16  N1  UNK     1      18.110   3.299  32.474  1.00  0.00    -0.243 N 
HETATM   17  C10 UNK     1      18.219   2.185  33.292  1.00  0.00     0.272 C 
HETATM   18  O3  UNK     1      17.911   2.192  34.483  1.00  0.00    -0.266 OA
HETATM   19  H14 UNK     1      18.337   3.293  31.485  1.00  0.00     0.192 HD
BRANCH  17  20
HETATM   20  C6  UNK     1      18.709   0.964  32.635  1.00  0.00     0.041 A 
HETATM   21  C5  UNK     1      19.335   0.935  31.376  1.00  0.00     0.032 A 
HETATM   22  C2  UNK     1      19.682  -0.351  31.026  1.00  0.00    -0.013 A 
HETATM   23  S1  UNK     1      19.239  -1.487  32.229  1.00  0.00    -0.105 SA
HETATM   24  C7  UNK     1      18.581  -0.257  33.223  1.00  0.00     0.067 A 
BRANCH  22  25
HETATM   25  C1  UNK     1      20.354  -0.821  29.795  1.00  0.00     0.017 C 
HETATM   26  C3  UNK     1      19.604  -0.414  28.507  1.00  0.00     0.015 C 
HETATM   27  C4  UNK     1      20.597  -2.346  29.786  1.00  0.00     0.015 C 
ENDBRANCH  22  25
ENDBRANCH  17  20
ENDBRANCH   1  16
TORSDOF 4
ENDMDL
MODEL 6
REMARK VINA RESULT:      -8.6      5.992      8.350
REMARK  4 active torsions:
REMARK  status: ('A' for Active; 'I' for Inactive)
REMARK       I    between atoms: C10_18  and  N1_7 
REMARK    1  A    between atoms: N1_7  and  N2_8 
REMARK    2  A    between atoms: C1_9  and  C2_10 
REMARK    3  A    between atoms: C10_18  and  C6_14 
REMARK    4  A    between atoms: C12_20  and  C18_26 
ROOT
HETATM    1  N2  UNK     1      18.908  -1.371  36.195  1.00  0.00    -0.183 NA
HETATM    2  C18 UNK     1      18.306  -1.136  35.074  1.00  0.00     0.156 C 
ENDROOT
BRANCH   2   3
HETATM    3  C12 UNK     1      18.305   0.185  34.446  1.00  0.00     0.056 A 
HETATM    4  C11 UNK     1      18.458   0.401  32.990  1.00  0.00     0.198 A 
HETATM    5  C8  UNK     1      18.429   1.804  32.539  1.00  0.00     0.052 A 
HETATM    6  O2  UNK     1      18.598  -0.528  32.206  1.00  0.00    -0.286 OA
HETATM    7  C13 UNK     1      18.562   2.120  31.185  1.00  0.00     0.042 A 
HETATM    8  C9  UNK     1      18.266   2.818  33.485  1.00  0.00     0.111 A 
HETATM    9  C16 UNK     1      18.531   3.456  30.783  1.00  0.00     0.036 A 
HETATM   10  C17 UNK     1      18.368   4.470  31.728  1.00  0.00     0.050 A 
HETATM   11 Cl2  UNK     1      18.694   3.855  29.116  1.00  0.00    -0.084 Cl
HETATM   12  C14 UNK     1      18.236   4.153  33.080  1.00  0.00     0.070 A 
HETATM   13 Cl1  UNK     1      18.037   5.438  34.216  1.00  0.00    -0.081 Cl
HETATM   14  O1  UNK     1      18.129   2.567  34.828  1.00  0.00    -0.319 OA
HETATM   15  C15 UNK     1      18.157   1.253  35.236  1.00  0.00     0.159 A 
ENDBRANCH   2   3
BRANCH   1  16
HETATM   16  N1  UNK     1      18.802  -2.654  36.621  1.00  0.00    -0.243 N 
HETATM   17  C10 UNK     1      19.925  -3.464  36.567  1.00  0.00     0.272 C 
HETATM   18  O3  UNK     1      21.016  -3.076  36.151  1.00  0.00    -0.266 OA
HETATM   19  H14 UNK     1      17.906  -2.959  36.987  1.00  0.00     0.192 HD
BRANCH  17  20
HETATM   20  C6  UNK     1      19.741  -4.833  37.071  1.00  0.00     0.041 A 
HETATM   21  C5  UNK     1      20.470  -5.394  38.135  1.00  0.00     0.032 A 
HETATM   22  C2  UNK     1      20.074  -6.691  38.377  1.00  0.00    -0.013 A 
HETATM   23  S1  UNK     1      18.832  -7.193  37.310  1.00  0.00    -0.105 SA
HETATM   24  C7  UNK     1      18.822  -5.673  36.520  1.00  0.00     0.067 A 
BRANCH  22  25
HETATM   25  C1  UNK     1      20.580  -7.633  39.399  1.00  0.00     0.017 C 
HETATM   26  C3  UNK     1      22.113  -7.559  39.577  1.00  0.00     0.015 C 
HETATM   27  C4  UNK     1      20.167  -9.096  39.126  1.00  0.00     0.015 C 
ENDBRANCH  22  25
ENDBRANCH  17  20
ENDBRANCH   1  16
TORSDOF 4
ENDMDL
MODEL 7
REMARK VINA RESULT:      -8.6      8.494     13.359
REMARK  4 active torsions:
REMARK  status: ('A' for Active; 'I' for Inactive)
REMARK       I    between atoms: C10_18  and  N1_7 
REMARK    1  A    between atoms: N1_7  and  N2_8 
REMARK    2  A    between atoms: C1_9  and  C2_10 
REMARK    3  A    between atoms: C10_18  and  C6_14 
REMARK    4  A    between atoms: C12_20  and  C18_26 
ROOT
HETATM    1  N2  UNK     1      20.281  -3.324  34.736  1.00  0.00    -0.183 NA
HETATM    2  C18 UNK     1      19.837  -3.577  35.925  1.00  0.00     0.156 C 
ENDROOT
BRANCH   2   3
HETATM    3  C12 UNK     1      20.210  -4.785  36.662  1.00  0.00     0.056 A 
HETATM    4  C11 UNK     1      19.624  -6.118  36.399  1.00  0.00     0.198 A 
HETATM    5  C8  UNK     1      20.125  -7.220  37.241  1.00  0.00     0.052 A 
HETATM    6  O2  UNK     1      18.777  -6.299  35.535  1.00  0.00    -0.286 OA
HETATM    7  C13 UNK     1      19.642  -8.520  37.075  1.00  0.00     0.042 A 
HETATM    8  C9  UNK     1      21.093  -6.948  38.211  1.00  0.00     0.111 A 
HETATM    9  C16 UNK     1      20.133  -9.545  37.884  1.00  0.00     0.036 A 
HETATM   10  C17 UNK     1      21.100  -9.274  38.853  1.00  0.00     0.050 A 
HETATM   11 Cl2  UNK     1      19.543 -11.151  37.686  1.00  0.00    -0.084 Cl
HETATM   12  C14 UNK     1      21.581  -7.975  39.018  1.00  0.00     0.070 A 
HETATM   13 Cl1  UNK     1      22.778  -7.683  40.228  1.00  0.00    -0.081 Cl
HETATM   14  O1  UNK     1      21.605  -5.690  38.417  1.00  0.00    -0.319 OA
HETATM   15  C15 UNK     1      21.130  -4.671  37.624  1.00  0.00     0.159 A 
ENDBRANCH   2   3
BRANCH   1  16
HETATM   16  N1  UNK     1      19.828  -2.158  34.214  1.00  0.00    -0.243 N 
HETATM   17  C10 UNK     1      20.069  -1.895  32.875  1.00  0.00     0.272 C 
HETATM   18  O3  UNK     1      20.675  -2.668  32.135  1.00  0.00    -0.266 OA
HETATM   19  H14 UNK     1      19.307  -1.536  34.824  1.00  0.00     0.192 HD
BRANCH  17  20
HETATM   20  C6  UNK     1      19.523  -0.625  32.373  1.00  0.00     0.041 A 
HETATM   21  C5  UNK     1      19.693  -0.148  31.061  1.00  0.00     0.032 A 
HETATM   22  C2  UNK     1      19.068   1.067  30.891  1.00  0.00    -0.013 A 
HETATM   23  S1  UNK     1      18.293   1.597  32.323  1.00  0.00    -0.105 SA
HETATM   24  C7  UNK     1      18.794   0.200  33.176  1.00  0.00     0.067 A 
BRANCH  22  25
HETATM   25  C1  UNK     1      19.003   1.906  29.674  1.00  0.00     0.017 C 
HETATM   26  C3  UNK     1      18.734   3.395  29.984  1.00  0.00     0.015 C 
HETATM   27  C4  UNK     1      17.962   1.401  28.650  1.00  0.00     0.015 C 
ENDBRANCH  22  25
ENDBRANCH  17  20
ENDBRANCH   1  16
TORSDOF 4
ENDMDL
MODEL 8
REMARK VINA RESULT:      -8.2      4.791     10.249
REMARK  4 active torsions:
REMARK  status: ('A' for Active; 'I' for Inactive)
REMARK       I    between atoms: C10_18  and  N1_7 
REMARK    1  A    between atoms: N1_7  and  N2_8 
REMARK    2  A    between atoms: C1_9  and  C2_10 
REMARK    3  A    between atoms: C10_18  and  C6_14 
REMARK    4  A    between atoms: C12_20  and  C18_26 
ROOT
HETATM    1  N2  UNK     1      18.609   6.213  32.684  1.00  0.00    -0.183 NA
HETATM    2  C18 UNK     1      17.729   5.282  32.505  1.00  0.00     0.156 C 
ENDROOT
BRANCH   2   3
HETATM    3  C12 UNK     1      18.099   3.883  32.287  1.00  0.00     0.056 A 
HETATM    4  C11 UNK     1      18.605   3.360  30.999  1.00  0.00     0.198 A 
HETATM    5  C8  UNK     1      18.929   1.922  30.969  1.00  0.00     0.052 A 
HETATM    6  O2  UNK     1      18.749   4.076  30.017  1.00  0.00    -0.286 OA
HETATM    7  C13 UNK     1      19.418   1.326  29.803  1.00  0.00     0.042 A 
HETATM    8  C9  UNK     1      18.743   1.160  32.124  1.00  0.00     0.111 A 
HETATM    9  C16 UNK     1      19.718  -0.037  29.801  1.00  0.00     0.036 A 
HETATM   10  C17 UNK     1      19.531  -0.799  30.955  1.00  0.00     0.050 A 
HETATM   11 Cl2  UNK     1      20.321  -0.780  28.369  1.00  0.00    -0.084 Cl
HETATM   12  C14 UNK     1      19.043  -0.202  32.118  1.00  0.00     0.070 A 
HETATM   13 Cl1  UNK     1      18.828  -1.182  33.523  1.00  0.00    -0.081 Cl
HETATM   14  O1  UNK     1      18.268   1.692  33.297  1.00  0.00    -0.319 OA
HETATM   15  C15 UNK     1      17.970   3.035  33.312  1.00  0.00     0.159 A 
ENDBRANCH   2   3
BRANCH   1  16
HETATM   16  N1  UNK     1      18.078   7.446  32.871  1.00  0.00    -0.243 N 
HETATM   17  C10 UNK     1      18.663   8.283  33.809  1.00  0.00     0.272 C 
HETATM   18  O3  UNK     1      19.641   7.961  34.482  1.00  0.00    -0.266 OA
HETATM   19  H14 UNK     1      17.288   7.714  32.294  1.00  0.00     0.192 HD
BRANCH  17  20
HETATM   20  C6  UNK     1      18.050   9.614  33.936  1.00  0.00     0.041 A 
HETATM   21  C5  UNK     1      18.768  10.823  33.939  1.00  0.00     0.032 A 
HETATM   22  C2  UNK     1      17.921  11.901  34.073  1.00  0.00    -0.013 A 
HETATM   23  S1  UNK     1      16.281  11.419  34.192  1.00  0.00    -0.105 SA
HETATM   24  C7  UNK     1      16.703   9.764  34.065  1.00  0.00     0.067 A 
BRANCH  22  25
HETATM   25  C1  UNK     1      18.262  13.339  34.122  1.00  0.00     0.017 C 
HETATM   26  C3  UNK     1      17.073  14.225  34.558  1.00  0.00     0.015 C 
HETATM   27  C4  UNK     1      18.831  13.868  32.787  1.00  0.00     0.015 C 
ENDBRANCH  22  25
ENDBRANCH  17  20
ENDBRANCH   1  16
TORSDOF 4
ENDMDL
MODEL 9
REMARK VINA RESULT:      -8.1      4.804     10.050
REMARK  4 active torsions:
REMARK  status: ('A' for Active; 'I' for Inactive)
REMARK       I    between atoms: C10_18  and  N1_7 
REMARK    1  A    between atoms: N1_7  and  N2_8 
REMARK    2  A    between atoms: C1_9  and  C2_10 
REMARK    3  A    between atoms: C10_18  and  C6_14 
REMARK    4  A    between atoms: C12_20  and  C18_26 
ROOT
HETATM    1  N2  UNK     1      18.646   6.143  32.567  1.00  0.00    -0.183 NA
HETATM    2  C18 UNK     1      17.766   5.199  32.477  1.00  0.00     0.156 C 
ENDROOT
BRANCH   2   3
HETATM    3  C12 UNK     1      18.137   3.798  32.270  1.00  0.00     0.056 A 
HETATM    4  C11 UNK     1      18.652   3.268  30.988  1.00  0.00     0.198 A 
HETATM    5  C8  UNK     1      18.975   1.830  30.968  1.00  0.00     0.052 A 
HETATM    6  O2  UNK     1      18.803   3.978  30.004  1.00  0.00    -0.286 OA
HETATM    7  C13 UNK     1      19.471   1.227  29.809  1.00  0.00     0.042 A 
HETATM    8  C9  UNK     1      18.780   1.074  32.126  1.00  0.00     0.111 A 
HETATM    9  C16 UNK     1      19.770  -0.136  29.817  1.00  0.00     0.036 A 
HETATM   10  C17 UNK     1      19.575  -0.892  30.974  1.00  0.00     0.050 A 
HETATM   11 Cl2  UNK     1      20.382  -0.888  28.394  1.00  0.00    -0.084 Cl
HETATM   12  C14 UNK     1      19.079  -0.288  32.130  1.00  0.00     0.070 A 
HETATM   13 Cl1  UNK     1      18.853  -1.260  33.539  1.00  0.00    -0.081 Cl
HETATM   14  O1  UNK     1      18.297   1.613  33.293  1.00  0.00    -0.319 OA
HETATM   15  C15 UNK     1      18.000   2.956  33.299  1.00  0.00     0.159 A 
ENDBRANCH   2   3
BRANCH   1  16
HETATM   16  N1  UNK     1      18.115   7.375  32.760  1.00  0.00    -0.243 N 
HETATM   17  C10 UNK     1      18.519   8.104  33.868  1.00  0.00     0.272 C 
HETATM   18  O3  UNK     1      19.338   7.687  34.687  1.00  0.00    -0.266 OA
HETATM   19  H14 UNK     1      17.461   7.724  32.067  1.00  0.00     0.192 HD
BRANCH  17  20
HETATM   20  C6  UNK     1      17.922   9.442  33.995  1.00  0.00     0.041 A 
HETATM   21  C5  UNK     1      16.547   9.688  34.154  1.00  0.00     0.032 A 
HETATM   22  C2  UNK     1      16.293  11.038  34.246  1.00  0.00    -0.013 A 
HETATM   23  S1  UNK     1      17.725  11.971  34.137  1.00  0.00    -0.105 SA
HETATM   24  C7  UNK     1      18.691  10.566  33.966  1.00  0.00     0.067 A 
BRANCH  22  25
HETATM   25  C1  UNK     1      14.992  11.721  34.417  1.00  0.00     0.017 C 
HETATM   26  C3  UNK     1      14.168  11.157  35.596  1.00  0.00     0.015 C 
HETATM   27  C4  UNK     1      14.129  11.703  33.136  1.00  0.00     0.015 C 
ENDBRANCH  22  25
ENDBRANCH  17  20
ENDBRANCH   1  16
TORSDOF 4
ENDMDL
MODEL 10
REMARK VINA RESULT:      -8.1      8.731     13.508
REMARK  4 active torsions:
REMARK  status: ('A' for Active; 'I' for Inactive)
REMARK       I    between atoms: C10_18  and  N1_7 
REMARK    1  A    between atoms: N1_7  and  N2_8 
REMARK    2  A    between atoms: C1_9  and  C2_10 
REMARK    3  A    between atoms: C10_18  and  C6_14 
REMARK    4  A    between atoms: C12_20  and  C18_26 
ROOT
HETATM    1  N2  UNK     1      19.289  -2.611  36.409  1.00  0.00    -0.183 NA
HETATM    2  C18 UNK     1      20.121  -3.493  35.959  1.00  0.00     0.156 C 
ENDROOT
BRANCH   2   3
HETATM    3  C12 UNK     1      20.403  -4.741  36.671  1.00  0.00     0.056 A 
HETATM    4  C11 UNK     1      19.815  -6.047  36.299  1.00  0.00     0.198 A 
HETATM    5  C8  UNK     1      20.217  -7.196  37.131  1.00  0.00     0.052 A 
HETATM    6  O2  UNK     1      19.043  -6.169  35.358  1.00  0.00    -0.286 OA
HETATM    7  C13 UNK     1      19.722  -8.475  36.866  1.00  0.00     0.042 A 
HETATM    8  C9  UNK     1      21.102  -6.989  38.192  1.00  0.00     0.111 A 
HETATM    9  C16 UNK     1      20.120  -9.546  37.667  1.00  0.00     0.036 A 
HETATM   10  C17 UNK     1      21.004  -9.340  38.728  1.00  0.00     0.050 A 
HETATM   11 Cl2  UNK     1      19.515 -11.127  37.348  1.00  0.00    -0.084 Cl
HETATM   12  C14 UNK     1      21.496  -8.062  38.991  1.00  0.00     0.070 A 
HETATM   13 Cl1  UNK     1      22.588  -7.852  40.312  1.00  0.00    -0.081 Cl
HETATM   14  O1  UNK     1      21.620  -5.755  38.498  1.00  0.00    -0.319 OA
HETATM   15  C15 UNK     1      21.238  -4.692  37.713  1.00  0.00     0.159 A 
ENDBRANCH   2   3
BRANCH   1  16
HETATM   16  N1  UNK     1      19.156  -1.521  35.613  1.00  0.00    -0.243 N 
HETATM   17  C10 UNK     1      18.537  -0.395  36.130  1.00  0.00     0.272 C 
HETATM   18  O3  UNK     1      18.100  -0.334  37.279  1.00  0.00    -0.266 OA
HETATM   19  H14 UNK     1      19.542  -1.569  34.675  1.00  0.00     0.192 HD
BRANCH  17  20
HETATM   20  C6  UNK     1      18.455   0.756  35.218  1.00  0.00     0.041 A 
HETATM   21  C5  UNK     1      18.324   0.657  33.821  1.00  0.00     0.032 A 
HETATM   22  C2  UNK     1      18.274   1.904  33.240  1.00  0.00    -0.013 A 
HETATM   23  S1  UNK     1      18.387   3.159  34.399  1.00  0.00    -0.105 SA
HETATM   24  C7  UNK     1      18.504   2.034  35.685  1.00  0.00     0.067 A 
BRANCH  22  25
HETATM   25  C1  UNK     1      18.140   2.246  31.807  1.00  0.00     0.017 C 
HETATM   26  C3  UNK     1      19.082   1.422  30.902  1.00  0.00     0.015 C 
HETATM   27  C4  UNK     1      18.348   3.751  31.525  1.00  0.00     0.015 C 
ENDBRANCH  22  25
ENDBRANCH  17  20
ENDBRANCH   1  16
TORSDOF 4
ENDMDL
