MODEL 1
REMARK VINA RESULT:      -8.8      0.000      0.000
REMARK  6 active torsions:
REMARK  status: ('A' for Active; 'I' for Inactive)
REMARK    1  A    between atoms: C17_23  and  O2_3 
REMARK    2  A    between atoms: C22_28  and  O2_3 
REMARK    3  A    between atoms: C5_11  and  N1_5 
REMARK    4  A    between atoms: C6_12  and  N2_6 
REMARK    5  A    between atoms: C5_11  and  C7_13 
REMARK    6  A    between atoms: C6_12  and  C8_14 
ROOT
HETATM    1  C5  UNK     1      18.203   2.929  30.503  1.00  0.00     0.312 C 
ENDROOT
BRANCH   1   2
HETATM    2  N1  UNK     1      18.851   3.865  31.420  1.00  0.00     0.096 N 
HETATM    3  C1  UNK     1      17.914   4.309  32.460  1.00  0.00     0.303 C 
HETATM    4  C3  UNK     1      18.593   5.291  33.422  1.00  0.00     0.303 C 
HETATM    5  N2  UNK     1      19.135   6.445  32.693  1.00  0.00     0.096 N 
HETATM    6  C4  UNK     1      20.070   6.002  31.652  1.00  0.00     0.303 C 
HETATM    7  C2  UNK     1      19.392   5.019  30.692  1.00  0.00     0.303 C 
BRANCH   5   8
HETATM    8  C6  UNK     1      19.784   7.379  33.611  1.00  0.00     0.311 C 
BRANCH   8   9
HETATM    9  C8  UNK     1      18.974   8.634  33.799  1.00  0.00    -0.030 A 
HETATM   10  C12 UNK     1      17.587   8.597  33.655  1.00  0.00     0.010 A 
HETATM   11  C18 UNK     1      16.836   9.759  33.830  1.00  0.00     0.024 A 
HETATM   12  C21 UNK     1      17.472  10.958  34.149  1.00  0.00     0.034 A 
HETATM   13  C19 UNK     1      18.858  10.996  34.294  1.00  0.00     0.024 A 
HETATM   14 Cl1  UNK     1      16.545  12.392  34.364  1.00  0.00    -0.084 Cl
HETATM   15  C13 UNK     1      19.609   9.834  34.119  1.00  0.00     0.010 A 
ENDBRANCH   8   9
ENDBRANCH   5   8
ENDBRANCH   1   2
BRANCH   1  16
HETATM   16  C7  UNK     1      18.850   1.588  30.519  1.00  0.00    -0.011 A 
HETATM   17  C10 UNK     1      19.480   1.111  29.435  1.00  0.00     0.092 A 
HETATM   18  C15 UNK     1      20.133  -0.208  29.402  1.00  0.00     0.288 A 
HETATM   19  O1  UNK     1      20.074  -0.963  30.563  1.00  0.00    -0.275 OA
HETATM   20  O3  UNK     1      20.700  -0.611  28.392  1.00  0.00    -0.260 OA
HETATM   21  C11 UNK     1      19.419  -0.487  31.717  1.00  0.00     0.090 A 
HETATM   22  C9  UNK     1      18.803   0.765  31.734  1.00  0.00     0.009 A 
HETATM   23  C16 UNK     1      19.421  -1.333  32.829  1.00  0.00     0.041 A 
HETATM   24  C14 UNK     1      18.172   1.162  32.920  1.00  0.00     0.051 A 
HETATM   25  C17 UNK     1      18.166   0.326  34.043  1.00  0.00     0.069 A 
HETATM   26  C20 UNK     1      18.789  -0.920  33.997  1.00  0.00     0.039 A 
BRANCH  25  27
HETATM   27  O2  UNK     1      17.547   0.732  35.185  1.00  0.00    -0.351 OA
BRANCH  27  28
HETATM   28  C22 UNK     1      18.354   1.385  36.164  1.00  0.00     0.171 C 
HETATM   29  C23 UNK     1      17.625   1.375  37.490  1.00  0.00     0.034 C 
ENDBRANCH  27  28
ENDBRANCH  25  27
ENDBRANCH   1  16
TORSDOF 6
ENDMDL
MODEL 2
REMARK VINA RESULT:      -8.7     11.229     15.154
REMARK  6 active torsions:
REMARK  status: ('A' for Active; 'I' for Inactive)
REMARK    1  A    between atoms: C17_23  and  O2_3 
REMARK    2  A    between atoms: C22_28  and  O2_3 
REMARK    3  A    between atoms: C5_11  and  N1_5 
REMARK    4  A    between atoms: C6_12  and  N2_6 
REMARK    5  A    between atoms: C5_11  and  C7_13 
REMARK    6  A    between atoms: C6_12  and  C8_14 
ROOT
HETATM    1  C5  UNK     1      22.684  -9.341  36.178  1.00  0.00     0.312 C 
ENDROOT
BRANCH   1   2
HETATM    2  N1  UNK     1      23.752  -9.375  37.175  1.00  0.00     0.096 N 
HETATM    3  C1  UNK     1      23.801  -8.118  37.931  1.00  0.00     0.303 C 
HETATM    4  C3  UNK     1      24.922  -8.153  38.976  1.00  0.00     0.303 C 
HETATM    5  N2  UNK     1      26.219  -8.420  38.342  1.00  0.00     0.096 N 
HETATM    6  C4  UNK     1      26.171  -9.676  37.584  1.00  0.00     0.303 C 
HETATM    7  C2  UNK     1      25.049  -9.642  36.540  1.00  0.00     0.303 C 
BRANCH   5   8
HETATM    8  C6  UNK     1      27.287  -8.456  39.340  1.00  0.00     0.311 C 
BRANCH   8   9
HETATM    9  C8  UNK     1      28.421  -7.534  38.980  1.00  0.00    -0.030 A 
HETATM   10  C12 UNK     1      28.341  -6.176  39.287  1.00  0.00     0.010 A 
HETATM   11  C18 UNK     1      29.392  -5.322  38.955  1.00  0.00     0.024 A 
HETATM   12  C21 UNK     1      30.524  -5.826  38.314  1.00  0.00     0.034 A 
HETATM   13  C19 UNK     1      30.605  -7.184  38.006  1.00  0.00     0.024 A 
HETATM   14 Cl1  UNK     1      31.820  -4.772  37.902  1.00  0.00    -0.084 Cl
HETATM   15  C13 UNK     1      29.553  -8.038  38.339  1.00  0.00     0.010 A 
ENDBRANCH   8   9
ENDBRANCH   5   8
ENDBRANCH   1   2
BRANCH   1  16
HETATM   16  C7  UNK     1      21.333  -9.417  36.800  1.00  0.00    -0.011 A 
HETATM   17  C10 UNK     1      20.921 -10.529  37.427  1.00  0.00     0.092 A 
HETATM   18  C15 UNK     1      19.595 -10.651  38.055  1.00  0.00     0.288 A 
HETATM   19  O1  UNK     1      18.762  -9.546  37.976  1.00  0.00    -0.275 OA
HETATM   20  O3  UNK     1      19.252 -11.685  38.620  1.00  0.00    -0.260 OA
HETATM   21  C11 UNK     1      19.168  -8.364  37.324  1.00  0.00     0.090 A 
HETATM   22  C9  UNK     1      20.428  -8.262  36.732  1.00  0.00     0.009 A 
HETATM   23  C16 UNK     1      18.248  -7.314  37.305  1.00  0.00     0.041 A 
HETATM   24  C14 UNK     1      20.754  -7.053  36.102  1.00  0.00     0.051 A 
HETATM   25  C17 UNK     1      19.842  -5.992  36.074  1.00  0.00     0.069 A 
HETATM   26  C20 UNK     1      18.590  -6.123  36.674  1.00  0.00     0.039 A 
BRANCH  25  27
HETATM   27  O2  UNK     1      20.179  -4.826  35.457  1.00  0.00    -0.351 OA
BRANCH  27  28
HETATM   28  C22 UNK     1      19.977  -3.621  36.193  1.00  0.00     0.171 C 
HETATM   29  C23 UNK     1      20.178  -2.439  35.268  1.00  0.00     0.034 C 
ENDBRANCH  27  28
ENDBRANCH  25  27
ENDBRANCH   1  16
TORSDOF 6
ENDMDL
MODEL 3
REMARK VINA RESULT:      -8.7     13.576     16.948
REMARK  6 active torsions:
REMARK  status: ('A' for Active; 'I' for Inactive)
REMARK    1  A    between atoms: C17_23  and  O2_3 
REMARK    2  A    between atoms: C22_28  and  O2_3 
REMARK    3  A    between atoms: C5_11  and  N1_5 
REMARK    4  A    between atoms: C6_12  and  N2_6 
REMARK    5  A    between atoms: C5_11  and  C7_13 
REMARK    6  A    between atoms: C6_12  and  C8_14 
ROOT
HETATM    1  C5  UNK     1      25.484  -8.960  37.516  1.00  0.00     0.312 C 
ENDROOT
BRANCH   1   2
HETATM    2  N1  UNK     1      26.869  -9.426  37.542  1.00  0.00     0.096 N 
HETATM    3  C1  UNK     1      27.409  -9.380  38.907  1.00  0.00     0.303 C 
HETATM    4  C3  UNK     1      28.862  -9.869  38.934  1.00  0.00     0.303 C 
HETATM    5  N2  UNK     1      29.697  -9.075  38.025  1.00  0.00     0.096 N 
HETATM    6  C4  UNK     1      29.157  -9.118  36.661  1.00  0.00     0.303 C 
HETATM    7  C2  UNK     1      27.704  -8.631  36.633  1.00  0.00     0.303 C 
BRANCH   5   8
HETATM    8  C6  UNK     1      31.082  -9.544  38.051  1.00  0.00     0.311 C 
BRANCH   8   9
HETATM    9  C8  UNK     1      32.041  -8.482  37.582  1.00  0.00    -0.030 A 
HETATM   10  C12 UNK     1      32.773  -8.671  36.409  1.00  0.00     0.010 A 
HETATM   11  C18 UNK     1      33.660  -7.687  35.975  1.00  0.00     0.024 A 
HETATM   12  C21 UNK     1      33.818  -6.515  36.713  1.00  0.00     0.034 A 
HETATM   13  C19 UNK     1      33.086  -6.325  37.885  1.00  0.00     0.024 A 
HETATM   14 Cl1  UNK     1      34.914  -5.302  36.177  1.00  0.00    -0.084 Cl
HETATM   15  C13 UNK     1      32.199  -7.309  38.320  1.00  0.00     0.010 A 
ENDBRANCH   8   9
ENDBRANCH   5   8
ENDBRANCH   1   2
BRANCH   1  16
HETATM   16  C7  UNK     1      24.588  -9.899  36.787  1.00  0.00    -0.011 A 
HETATM   17  C10 UNK     1      25.035 -11.088  36.354  1.00  0.00     0.092 A 
HETATM   18  C15 UNK     1      24.187 -12.048  35.629  1.00  0.00     0.288 A 
HETATM   19  O1  UNK     1      22.873 -11.673  35.402  1.00  0.00    -0.275 OA
HETATM   20  O3  UNK     1      24.632 -13.126  35.249  1.00  0.00    -0.260 OA
HETATM   21  C11 UNK     1      22.375 -10.431  35.844  1.00  0.00     0.090 A 
HETATM   22  C9  UNK     1      23.190  -9.529  36.530  1.00  0.00     0.009 A 
HETATM   23  C16 UNK     1      21.035 -10.158  35.559  1.00  0.00     0.041 A 
HETATM   24  C14 UNK     1      22.619  -8.315  36.934  1.00  0.00     0.051 A 
HETATM   25  C17 UNK     1      21.278  -8.027  36.656  1.00  0.00     0.069 A 
HETATM   26  C20 UNK     1      20.487  -8.947  35.969  1.00  0.00     0.039 A 
BRANCH  25  27
HETATM   27  O2  UNK     1      20.743  -6.841  37.058  1.00  0.00    -0.351 OA
BRANCH  27  28
HETATM   28  C22 UNK     1      21.127  -6.360  38.345  1.00  0.00     0.171 C 
HETATM   29  C23 UNK     1      20.130  -6.852  39.372  1.00  0.00     0.034 C 
ENDBRANCH  27  28
ENDBRANCH  25  27
ENDBRANCH   1  16
TORSDOF 6
ENDMDL
MODEL 4
REMARK VINA RESULT:      -8.6      4.804      9.621
REMARK  6 active torsions:
REMARK  status: ('A' for Active; 'I' for Inactive)
REMARK    1  A    between atoms: C17_23  and  O2_3 
REMARK    2  A    between atoms: C22_28  and  O2_3 
REMARK    3  A    between atoms: C5_11  and  N1_5 
REMARK    4  A    between atoms: C6_12  and  N2_6 
REMARK    5  A    between atoms: C5_11  and  C7_13 
REMARK    6  A    between atoms: C6_12  and  C8_14 
ROOT
HETATM    1  C5  UNK     1      17.988   6.886  32.464  1.00  0.00     0.312 C 
ENDROOT
BRANCH   1   2
HETATM    2  N1  UNK     1      17.914   5.755  31.541  1.00  0.00     0.096 N 
HETATM    3  C1  UNK     1      17.908   4.483  32.274  1.00  0.00     0.303 C 
HETATM    4  C3  UNK     1      17.831   3.297  31.305  1.00  0.00     0.303 C 
HETATM    5  N2  UNK     1      18.944   3.332  30.347  1.00  0.00     0.096 N 
HETATM    6  C4  UNK     1      18.951   4.605  29.616  1.00  0.00     0.303 C 
HETATM    7  C2  UNK     1      19.026   5.790  30.584  1.00  0.00     0.303 C 
BRANCH   5   8
HETATM    8  C6  UNK     1      18.867   2.202  29.423  1.00  0.00     0.311 C 
BRANCH   8   9
HETATM    9  C8  UNK     1      19.399   0.936  30.041  1.00  0.00    -0.030 A 
HETATM   10  C12 UNK     1      19.049   0.597  31.348  1.00  0.00     0.010 A 
HETATM   11  C18 UNK     1      19.540  -0.575  31.920  1.00  0.00     0.024 A 
HETATM   12  C21 UNK     1      20.383  -1.409  31.186  1.00  0.00     0.034 A 
HETATM   13  C19 UNK     1      20.734  -1.071  29.879  1.00  0.00     0.024 A 
HETATM   14 Cl1  UNK     1      20.991  -2.856  31.893  1.00  0.00    -0.084 Cl
HETATM   15  C13 UNK     1      20.242   0.102  29.307  1.00  0.00     0.010 A 
ENDBRANCH   8   9
ENDBRANCH   5   8
ENDBRANCH   1   2
BRANCH   1  16
HETATM   16  C7  UNK     1      16.663   7.536  32.664  1.00  0.00    -0.011 A 
HETATM   17  C10 UNK     1      15.525   6.902  32.342  1.00  0.00     0.092 A 
HETATM   18  C15 UNK     1      14.194   7.504  32.521  1.00  0.00     0.288 A 
HETATM   19  O1  UNK     1      14.153   8.785  33.048  1.00  0.00    -0.275 OA
HETATM   20  O3  UNK     1      13.174   6.894  32.215  1.00  0.00    -0.260 OA
HETATM   21  C11 UNK     1      15.332   9.475  33.396  1.00  0.00     0.090 A 
HETATM   22  C9  UNK     1      16.588   8.893  33.220  1.00  0.00     0.009 A 
HETATM   23  C16 UNK     1      15.172  10.761  33.919  1.00  0.00     0.041 A 
HETATM   24  C14 UNK     1      17.711   9.647  33.589  1.00  0.00     0.051 A 
HETATM   25  C17 UNK     1      17.566  10.936  34.114  1.00  0.00     0.069 A 
HETATM   26  C20 UNK     1      16.298  11.492  34.278  1.00  0.00     0.039 A 
BRANCH  25  27
HETATM   27  O2  UNK     1      18.670  11.651  34.466  1.00  0.00    -0.351 OA
BRANCH  27  28
HETATM   28  C22 UNK     1      18.559  13.073  34.432  1.00  0.00     0.171 C 
HETATM   29  C23 UNK     1      18.775  13.550  33.012  1.00  0.00     0.034 C 
ENDBRANCH  27  28
ENDBRANCH  25  27
ENDBRANCH   1  16
TORSDOF 6
ENDMDL
MODEL 5
REMARK VINA RESULT:      -8.4     23.196     25.423
REMARK  6 active torsions:
REMARK  status: ('A' for Active; 'I' for Inactive)
REMARK    1  A    between atoms: C17_23  and  O2_3 
REMARK    2  A    between atoms: C22_28  and  O2_3 
REMARK    3  A    between atoms: C5_11  and  N1_5 
REMARK    4  A    between atoms: C6_12  and  N2_6 
REMARK    5  A    between atoms: C5_11  and  C7_13 
REMARK    6  A    between atoms: C6_12  and  C8_14 
ROOT
HETATM    1  C5  UNK     1      13.171   6.956   7.181  1.00  0.00     0.312 C 
ENDROOT
BRANCH   1   2
HETATM    2  N1  UNK     1      11.892   6.287   7.410  1.00  0.00     0.096 N 
HETATM    3  C1  UNK     1      10.863   6.802   6.498  1.00  0.00     0.303 C 
HETATM    4  C3  UNK     1       9.522   6.101   6.738  1.00  0.00     0.303 C 
HETATM    5  N2  UNK     1       9.093   6.257   8.134  1.00  0.00     0.096 N 
HETATM    6  C4  UNK     1      10.122   5.745   9.047  1.00  0.00     0.303 C 
HETATM    7  C2  UNK     1      11.464   6.444   8.806  1.00  0.00     0.303 C 
BRANCH   5   8
HETATM    8  C6  UNK     1       7.815   5.586   8.362  1.00  0.00     0.311 C 
BRANCH   8   9
HETATM    9  C8  UNK     1       7.253   5.899   9.724  1.00  0.00    -0.030 A 
HETATM   10  C12 UNK     1       6.953   4.863  10.609  1.00  0.00     0.010 A 
HETATM   11  C18 UNK     1       6.434   5.153  11.871  1.00  0.00     0.024 A 
HETATM   12  C21 UNK     1       6.216   6.478  12.248  1.00  0.00     0.034 A 
HETATM   13  C19 UNK     1       6.516   7.513  11.363  1.00  0.00     0.024 A 
HETATM   14 Cl1  UNK     1       5.574   6.835  13.804  1.00  0.00    -0.084 Cl
HETATM   15  C13 UNK     1       7.035   7.224  10.101  1.00  0.00     0.010 A 
ENDBRANCH   8   9
ENDBRANCH   5   8
ENDBRANCH   1   2
BRANCH   1  16
HETATM   16  C7  UNK     1      14.151   6.682   8.268  1.00  0.00    -0.011 A 
HETATM   17  C10 UNK     1      14.565   5.433   8.528  1.00  0.00     0.092 A 
HETATM   18  C15 UNK     1      15.531   5.113   9.592  1.00  0.00     0.288 A 
HETATM   19  O1  UNK     1      16.014   6.177  10.337  1.00  0.00    -0.275 OA
HETATM   20  O3  UNK     1      15.887   3.958   9.801  1.00  0.00    -0.260 OA
HETATM   21  C11 UNK     1      15.597   7.500  10.087  1.00  0.00     0.090 A 
HETATM   22  C9  UNK     1      14.680   7.789   9.076  1.00  0.00     0.009 A 
HETATM   23  C16 UNK     1      16.148   8.493  10.900  1.00  0.00     0.041 A 
HETATM   24  C14 UNK     1      14.316   9.130   8.893  1.00  0.00     0.051 A 
HETATM   25  C17 UNK     1      14.859  10.136   9.700  1.00  0.00     0.069 A 
HETATM   26  C20 UNK     1      15.774   9.817  10.702  1.00  0.00     0.039 A 
BRANCH  25  27
HETATM   27  O2  UNK     1      14.492  11.432   9.505  1.00  0.00    -0.351 OA
BRANCH  27  28
HETATM   28  C22 UNK     1      15.500  12.329   9.041  1.00  0.00     0.171 C 
HETATM   29  C23 UNK     1      15.607  12.213   7.535  1.00  0.00     0.034 C 
ENDBRANCH  27  28
ENDBRANCH  25  27
ENDBRANCH   1  16
TORSDOF 6
ENDMDL
MODEL 6
REMARK VINA RESULT:      -8.4      1.989      4.413
REMARK  6 active torsions:
REMARK  status: ('A' for Active; 'I' for Inactive)
REMARK    1  A    between atoms: C17_23  and  O2_3 
REMARK    2  A    between atoms: C22_28  and  O2_3 
REMARK    3  A    between atoms: C5_11  and  N1_5 
REMARK    4  A    between atoms: C6_12  and  N2_6 
REMARK    5  A    between atoms: C5_11  and  C7_13 
REMARK    6  A    between atoms: C6_12  and  C8_14 
ROOT
HETATM    1  C5  UNK     1      17.731   0.304  34.180  1.00  0.00     0.312 C 
ENDROOT
BRANCH   1   2
HETATM    2  N1  UNK     1      18.386   1.573  33.868  1.00  0.00     0.096 N 
HETATM    3  C1  UNK     1      18.294   2.500  35.002  1.00  0.00     0.303 C 
HETATM    4  C3  UNK     1      18.980   3.831  34.675  1.00  0.00     0.303 C 
HETATM    5  N2  UNK     1      18.399   4.436  33.470  1.00  0.00     0.096 N 
HETATM    6  C4  UNK     1      18.489   3.509  32.336  1.00  0.00     0.303 C 
HETATM    7  C2  UNK     1      17.804   2.178  32.663  1.00  0.00     0.303 C 
BRANCH   5   8
HETATM    8  C6  UNK     1      19.057   5.705  33.158  1.00  0.00     0.311 C 
BRANCH   8   9
HETATM    9  C8  UNK     1      18.216   6.886  33.566  1.00  0.00    -0.030 A 
HETATM   10  C12 UNK     1      18.805   8.141  33.717  1.00  0.00     0.010 A 
HETATM   11  C18 UNK     1      18.026   9.236  34.093  1.00  0.00     0.024 A 
HETATM   12  C21 UNK     1      16.660   9.074  34.319  1.00  0.00     0.034 A 
HETATM   13  C19 UNK     1      16.071   7.819  34.168  1.00  0.00     0.024 A 
HETATM   14 Cl1  UNK     1      15.700  10.424  34.785  1.00  0.00    -0.084 Cl
HETATM   15  C13 UNK     1      16.849   6.725  33.792  1.00  0.00     0.010 A 
ENDBRANCH   8   9
ENDBRANCH   5   8
ENDBRANCH   1   2
BRANCH   1  16
HETATM   16  C7  UNK     1      18.709  -0.805  34.355  1.00  0.00    -0.011 A 
HETATM   17  C10 UNK     1      18.974  -1.308  35.570  1.00  0.00     0.092 A 
HETATM   18  C15 UNK     1      19.933  -2.403  35.793  1.00  0.00     0.288 A 
HETATM   19  O1  UNK     1      20.570  -2.912  34.673  1.00  0.00    -0.275 OA
HETATM   20  O3  UNK     1      20.150  -2.838  36.919  1.00  0.00    -0.260 OA
HETATM   21  C11 UNK     1      20.312  -2.403  33.384  1.00  0.00     0.090 A 
HETATM   22  C9  UNK     1      19.401  -1.364  33.187  1.00  0.00     0.009 A 
HETATM   23  C16 UNK     1      21.012  -2.991  32.328  1.00  0.00     0.041 A 
HETATM   24  C14 UNK     1      19.203  -0.914  31.875  1.00  0.00     0.051 A 
HETATM   25  C17 UNK     1      19.897  -1.494  30.807  1.00  0.00     0.069 A 
HETATM   26  C20 UNK     1      20.801  -2.531  31.034  1.00  0.00     0.039 A 
BRANCH  25  27
HETATM   27  O2  UNK     1      19.689  -1.042  29.540  1.00  0.00    -0.351 OA
BRANCH  27  28
HETATM   28  C22 UNK     1      19.886   0.352  29.308  1.00  0.00     0.171 C 
HETATM   29  C23 UNK     1      18.617   0.939  28.727  1.00  0.00     0.034 C 
ENDBRANCH  27  28
ENDBRANCH  25  27
ENDBRANCH   1  16
TORSDOF 6
ENDMDL
MODEL 7
REMARK VINA RESULT:      -8.4      7.917     13.109
REMARK  6 active torsions:
REMARK  status: ('A' for Active; 'I' for Inactive)
REMARK    1  A    between atoms: C17_23  and  O2_3 
REMARK    2  A    between atoms: C22_28  and  O2_3 
REMARK    3  A    between atoms: C5_11  and  N1_5 
REMARK    4  A    between atoms: C6_12  and  N2_6 
REMARK    5  A    between atoms: C5_11  and  C7_13 
REMARK    6  A    between atoms: C6_12  and  C8_14 
ROOT
HETATM    1  C5  UNK     1      20.550  -2.774  36.685  1.00  0.00     0.312 C 
ENDROOT
BRANCH   1   2
HETATM    2  N1  UNK     1      20.138  -4.160  36.900  1.00  0.00     0.096 N 
HETATM    3  C1  UNK     1      20.986  -4.806  37.910  1.00  0.00     0.303 C 
HETATM    4  C3  UNK     1      20.554  -6.260  38.134  1.00  0.00     0.303 C 
HETATM    5  N2  UNK     1      20.591  -7.015  36.875  1.00  0.00     0.096 N 
HETATM    6  C4  UNK     1      19.745  -6.369  35.864  1.00  0.00     0.303 C 
HETATM    7  C2  UNK     1      20.175  -4.915  35.641  1.00  0.00     0.303 C 
BRANCH   5   8
HETATM    8  C6  UNK     1      20.177  -8.401  37.091  1.00  0.00     0.311 C 
BRANCH   8   9
HETATM    9  C8  UNK     1      21.252  -9.375  36.689  1.00  0.00    -0.030 A 
HETATM   10  C12 UNK     1      20.907 -10.594  36.105  1.00  0.00     0.010 A 
HETATM   11  C18 UNK     1      21.903 -11.496  35.731  1.00  0.00     0.024 A 
HETATM   12  C21 UNK     1      23.244 -11.179  35.943  1.00  0.00     0.034 A 
HETATM   13  C19 UNK     1      23.591  -9.961  36.526  1.00  0.00     0.024 A 
HETATM   14 Cl1  UNK     1      24.473 -12.293  35.483  1.00  0.00    -0.084 Cl
HETATM   15  C13 UNK     1      22.594  -9.059  36.900  1.00  0.00     0.010 A 
ENDBRANCH   8   9
ENDBRANCH   5   8
ENDBRANCH   1   2
BRANCH   1  16
HETATM   16  C7  UNK     1      19.419  -1.915  36.237  1.00  0.00    -0.011 A 
HETATM   17  C10 UNK     1      18.528  -1.429  37.115  1.00  0.00     0.092 A 
HETATM   18  C15 UNK     1      17.395  -0.577  36.720  1.00  0.00     0.288 A 
HETATM   19  O1  UNK     1      17.275  -0.284  35.370  1.00  0.00    -0.275 OA
HETATM   20  O3  UNK     1      16.600  -0.151  37.551  1.00  0.00    -0.260 OA
HETATM   21  C11 UNK     1      18.196  -0.781  34.425  1.00  0.00     0.090 A 
HETATM   22  C9  UNK     1      19.265  -1.588  34.814  1.00  0.00     0.009 A 
HETATM   23  C16 UNK     1      17.977  -0.422  33.093  1.00  0.00     0.041 A 
HETATM   24  C14 UNK     1      20.134  -2.042  33.812  1.00  0.00     0.051 A 
HETATM   25  C17 UNK     1      19.928  -1.691  32.473  1.00  0.00     0.069 A 
HETATM   26  C20 UNK     1      18.851  -0.883  32.114  1.00  0.00     0.039 A 
BRANCH  25  27
HETATM   27  O2  UNK     1      20.784  -2.143  31.516  1.00  0.00    -0.351 OA
BRANCH  27  28
HETATM   28  C22 UNK     1      20.278  -2.237  30.185  1.00  0.00     0.171 C 
HETATM   29  C23 UNK     1      20.897  -1.141  29.344  1.00  0.00     0.034 C 
ENDBRANCH  27  28
ENDBRANCH  25  27
ENDBRANCH   1  16
TORSDOF 6
ENDMDL
MODEL 8
REMARK VINA RESULT:      -8.3      6.015     10.379
REMARK  6 active torsions:
REMARK  status: ('A' for Active; 'I' for Inactive)
REMARK    1  A    between atoms: C17_23  and  O2_3 
REMARK    2  A    between atoms: C22_28  and  O2_3 
REMARK    3  A    between atoms: C5_11  and  N1_5 
REMARK    4  A    between atoms: C6_12  and  N2_6 
REMARK    5  A    between atoms: C5_11  and  C7_13 
REMARK    6  A    between atoms: C6_12  and  C8_14 
ROOT
HETATM    1  C5  UNK     1      18.084  -0.350  34.231  1.00  0.00     0.312 C 
ENDROOT
BRANCH   1   2
HETATM    2  N1  UNK     1      18.952  -1.052  35.175  1.00  0.00     0.096 N 
HETATM    3  C1  UNK     1      19.678  -2.139  34.506  1.00  0.00     0.303 C 
HETATM    4  C3  UNK     1      20.588  -2.875  35.496  1.00  0.00     0.303 C 
HETATM    5  N2  UNK     1      19.813  -3.398  36.628  1.00  0.00     0.096 N 
HETATM    6  C4  UNK     1      19.085  -2.312  37.296  1.00  0.00     0.303 C 
HETATM    7  C2  UNK     1      18.177  -1.574  36.307  1.00  0.00     0.303 C 
BRANCH   5   8
HETATM    8  C6  UNK     1      20.683  -4.098  37.572  1.00  0.00     0.311 C 
BRANCH   8   9
HETATM    9  C8  UNK     1      20.236  -5.518  37.798  1.00  0.00    -0.030 A 
HETATM   10  C12 UNK     1      19.320  -6.107  36.927  1.00  0.00     0.010 A 
HETATM   11  C18 UNK     1      18.906  -7.423  37.136  1.00  0.00     0.024 A 
HETATM   12  C21 UNK     1      19.409  -8.149  38.215  1.00  0.00     0.034 A 
HETATM   13  C19 UNK     1      20.325  -7.560  39.086  1.00  0.00     0.024 A 
HETATM   14 Cl1  UNK     1      18.897  -9.771  38.474  1.00  0.00    -0.084 Cl
HETATM   15  C13 UNK     1      20.738  -6.245  38.878  1.00  0.00     0.010 A 
ENDBRANCH   8   9
ENDBRANCH   5   8
ENDBRANCH   1   2
BRANCH   1  16
HETATM   16  C7  UNK     1      18.671  -0.292  32.864  1.00  0.00    -0.011 A 
HETATM   17  C10 UNK     1      19.211  -1.381  32.296  1.00  0.00     0.092 A 
HETATM   18  C15 UNK     1      19.803  -1.372  30.948  1.00  0.00     0.288 A 
HETATM   19  O1  UNK     1      19.784  -0.166  30.266  1.00  0.00    -0.275 OA
HETATM   20  O3  UNK     1      20.288  -2.388  30.460  1.00  0.00    -0.260 OA
HETATM   21  C11 UNK     1      19.224   0.995  30.838  1.00  0.00     0.090 A 
HETATM   22  C9  UNK     1      18.666   0.972  32.117  1.00  0.00     0.009 A 
HETATM   23  C16 UNK     1      19.260   2.154  30.059  1.00  0.00     0.041 A 
HETATM   24  C14 UNK     1      18.132   2.169  32.613  1.00  0.00     0.051 A 
HETATM   25  C17 UNK     1      18.160   3.338  31.845  1.00  0.00     0.069 A 
HETATM   26  C20 UNK     1      18.724   3.331  30.571  1.00  0.00     0.039 A 
BRANCH  25  27
HETATM   27  O2  UNK     1      17.635   4.490  32.347  1.00  0.00    -0.351 OA
BRANCH  27  28
HETATM   28  C22 UNK     1      18.230   5.010  33.536  1.00  0.00     0.171 C 
HETATM   29  C23 UNK     1      19.358   5.944  33.154  1.00  0.00     0.034 C 
ENDBRANCH  27  28
ENDBRANCH  25  27
ENDBRANCH   1  16
TORSDOF 6
ENDMDL
MODEL 9
REMARK VINA RESULT:      -8.3      2.481      3.613
REMARK  6 active torsions:
REMARK  status: ('A' for Active; 'I' for Inactive)
REMARK    1  A    between atoms: C17_23  and  O2_3 
REMARK    2  A    between atoms: C22_28  and  O2_3 
REMARK    3  A    between atoms: C5_11  and  N1_5 
REMARK    4  A    between atoms: C6_12  and  N2_6 
REMARK    5  A    between atoms: C5_11  and  C7_13 
REMARK    6  A    between atoms: C6_12  and  C8_14 
ROOT
HETATM    1  C5  UNK     1      18.562   5.601  32.467  1.00  0.00     0.312 C 
ENDROOT
BRANCH   1   2
HETATM    2  N1  UNK     1      17.256   6.247  32.582  1.00  0.00     0.096 N 
HETATM    3  C1  UNK     1      17.141   7.363  31.635  1.00  0.00     0.303 C 
HETATM    4  C3  UNK     1      15.771   8.040  31.756  1.00  0.00     0.303 C 
HETATM    5  N2  UNK     1      15.540   8.508  33.129  1.00  0.00     0.096 N 
HETATM    6  C4  UNK     1      15.657   7.394  34.077  1.00  0.00     0.303 C 
HETATM    7  C2  UNK     1      17.025   6.715  33.954  1.00  0.00     0.303 C 
BRANCH   5   8
HETATM    8  C6  UNK     1      14.232   9.152  33.243  1.00  0.00     0.311 C 
BRANCH   8   9
HETATM    9  C8  UNK     1      14.348  10.653  33.267  1.00  0.00    -0.030 A 
HETATM   10  C12 UNK     1      13.373  11.438  32.652  1.00  0.00     0.010 A 
HETATM   11  C18 UNK     1      13.479  12.829  32.676  1.00  0.00     0.024 A 
HETATM   12  C21 UNK     1      14.562  13.434  33.313  1.00  0.00     0.034 A 
HETATM   13  C19 UNK     1      15.537  12.650  33.928  1.00  0.00     0.024 A 
HETATM   14 Cl1  UNK     1      14.694  15.150  33.340  1.00  0.00    -0.084 Cl
HETATM   15  C13 UNK     1      15.430  11.260  33.905  1.00  0.00     0.010 A 
ENDBRANCH   8   9
ENDBRANCH   5   8
ENDBRANCH   1   2
BRANCH   1  16
HETATM   16  C7  UNK     1      18.463   4.233  31.887  1.00  0.00    -0.011 A 
HETATM   17  C10 UNK     1      18.424   4.044  30.560  1.00  0.00     0.092 A 
HETATM   18  C15 UNK     1      18.326   2.712  29.941  1.00  0.00     0.288 A 
HETATM   19  O1  UNK     1      18.274   1.627  30.801  1.00  0.00    -0.275 OA
HETATM   20  O3  UNK     1      18.292   2.579  28.722  1.00  0.00    -0.260 OA
HETATM   21  C11 UNK     1      18.313   1.794  32.201  1.00  0.00     0.090 A 
HETATM   22  C9  UNK     1      18.405   3.063  32.774  1.00  0.00     0.009 A 
HETATM   23  C16 UNK     1      18.253   0.630  32.970  1.00  0.00     0.041 A 
HETATM   24  C14 UNK     1      18.437   3.143  34.172  1.00  0.00     0.051 A 
HETATM   25  C17 UNK     1      18.378   1.986  34.957  1.00  0.00     0.069 A 
HETATM   26  C20 UNK     1      18.286   0.732  34.357  1.00  0.00     0.039 A 
BRANCH  25  27
HETATM   27  O2  UNK     1      18.410   2.087  36.314  1.00  0.00    -0.351 OA
BRANCH  27  28
HETATM   28  C22 UNK     1      17.245   1.668  37.023  1.00  0.00     0.171 C 
HETATM   29  C23 UNK     1      17.669   0.929  38.275  1.00  0.00     0.034 C 
ENDBRANCH  27  28
ENDBRANCH  25  27
ENDBRANCH   1  16
TORSDOF 6
ENDMDL
MODEL 10
REMARK VINA RESULT:      -8.2     16.325     18.961
REMARK  6 active torsions:
REMARK  status: ('A' for Active; 'I' for Inactive)
REMARK    1  A    between atoms: C17_23  and  O2_3 
REMARK    2  A    between atoms: C22_28  and  O2_3 
REMARK    3  A    between atoms: C5_11  and  N1_5 
REMARK    4  A    between atoms: C6_12  and  N2_6 
REMARK    5  A    between atoms: C5_11  and  C7_13 
REMARK    6  A    between atoms: C6_12  and  C8_14 
ROOT
HETATM    1  C5  UNK     1      30.000  -6.033  35.573  1.00  0.00     0.312 C 
ENDROOT
BRANCH   1   2
HETATM    2  N1  UNK     1      31.461  -6.085  35.559  1.00  0.00     0.096 N 
HETATM    3  C1  UNK     1      32.007  -5.105  34.611  1.00  0.00     0.303 C 
HETATM    4  C3  UNK     1      33.539  -5.159  34.595  1.00  0.00     0.303 C 
HETATM    5  N2  UNK     1      34.011  -6.509  34.264  1.00  0.00     0.096 N 
HETATM    6  C4  UNK     1      33.463  -7.490  35.209  1.00  0.00     0.303 C 
HETATM    7  C2  UNK     1      31.932  -7.435  35.227  1.00  0.00     0.303 C 
BRANCH   5   8
HETATM    8  C6  UNK     1      35.472  -6.560  34.252  1.00  0.00     0.311 C 
BRANCH   8   9
HETATM    9  C8  UNK     1      35.987  -7.651  33.351  1.00  0.00    -0.030 A 
HETATM   10  C12 UNK     1      35.391  -7.869  32.109  1.00  0.00     0.010 A 
HETATM   11  C18 UNK     1      35.868  -8.879  31.274  1.00  0.00     0.024 A 
HETATM   12  C21 UNK     1      36.941  -9.671  31.681  1.00  0.00     0.034 A 
HETATM   13  C19 UNK     1      37.538  -9.453  32.923  1.00  0.00     0.024 A 
HETATM   14 Cl1  UNK     1      37.529 -10.918  30.652  1.00  0.00    -0.084 Cl
HETATM   15  C13 UNK     1      37.060  -8.443  33.758  1.00  0.00     0.010 A 
ENDBRANCH   8   9
ENDBRANCH   5   8
ENDBRANCH   1   2
BRANCH   1  16
HETATM   16  C7  UNK     1      29.455  -5.931  36.956  1.00  0.00    -0.011 A 
HETATM   17  C10 UNK     1      29.798  -4.915  37.761  1.00  0.00     0.092 A 
HETATM   18  C15 UNK     1      29.287  -4.772  39.134  1.00  0.00     0.288 A 
HETATM   19  O1  UNK     1      28.412  -5.751  39.579  1.00  0.00    -0.275 OA
HETATM   20  O3  UNK     1      29.623  -3.829  39.843  1.00  0.00    -0.260 OA
HETATM   21  C11 UNK     1      28.034  -6.830  38.755  1.00  0.00     0.090 A 
HETATM   22  C9  UNK     1      28.527  -6.954  37.456  1.00  0.00     0.009 A 
HETATM   23  C16 UNK     1      27.148  -7.757  39.308  1.00  0.00     0.041 A 
HETATM   24  C14 UNK     1      28.103  -8.057  36.702  1.00  0.00     0.051 A 
HETATM   25  C17 UNK     1      27.216  -8.994  37.242  1.00  0.00     0.069 A 
HETATM   26  C20 UNK     1      26.739  -8.844  38.544  1.00  0.00     0.039 A 
BRANCH  25  27
HETATM   27  O2  UNK     1      26.816 -10.058  36.493  1.00  0.00    -0.351 OA
BRANCH  27  28
HETATM   28  C22 UNK     1      25.434 -10.409  36.550  1.00  0.00     0.171 C 
HETATM   29  C23 UNK     1      25.282 -11.870  36.182  1.00  0.00     0.034 C 
ENDBRANCH  27  28
ENDBRANCH  25  27
ENDBRANCH   1  16
TORSDOF 6
ENDMDL
