MODEL 1
REMARK VINA RESULT:      -9.3      0.000      0.000
REMARK  6 active torsions:
REMARK  status: ('A' for Active; 'I' for Inactive)
REMARK    1  A    between atoms: C10_19  and  O2_6 
REMARK    2  A    between atoms: C17_26  and  O2_6 
REMARK    3  A    between atoms: C9_18  and  O3_7 
REMARK    4  A    between atoms: C1_10  and  C6_15 
REMARK    5  A    between atoms: C11_20  and  C4_13 
REMARK    6  A    between atoms: C17_26  and  C18_27 
ROOT
HETATM    1  O1  UNK     1      20.296  -5.323  34.759  1.00  0.00    -0.304 OA
HETATM    2  O4  UNK     1      19.950  -4.725  38.767  1.00  0.00    -0.286 OA
HETATM    3  C1  UNK     1      20.309  -6.263  36.988  1.00  0.00     0.067 A 
HETATM    4  C2  UNK     1      19.938  -3.800  36.607  1.00  0.00     0.049 A 
HETATM    5  C3  UNK     1      20.067  -4.067  35.249  1.00  0.00     0.093 A 
HETATM    6  C4  UNK     1      20.412  -6.385  35.647  1.00  0.00     0.174 A 
HETATM    7  C5  UNK     1      20.055  -4.910  37.562  1.00  0.00     0.198 A 
HETATM    8  C7  UNK     1      19.704  -2.495  37.050  1.00  0.00     0.021 A 
HETATM    9  C8  UNK     1      19.960  -3.030  34.321  1.00  0.00     0.075 A 
HETATM   10  C10 UNK     1      19.726  -1.726  34.758  1.00  0.00     0.082 A 
HETATM   11  C13 UNK     1      19.598  -1.459  36.121  1.00  0.00     0.038 A 
ENDROOT
BRANCH  10  12
HETATM   12  O2  UNK     1      19.623  -0.714  33.854  1.00  0.00    -0.275 OA
BRANCH  12  13
HETATM   13  C17 UNK     1      18.721  -0.959  32.816  1.00  0.00     0.301 C 
HETATM   14  O5  UNK     1      17.530  -1.201  32.950  1.00  0.00    -0.259 OA
BRANCH  13  15
HETATM   15  C18 UNK     1      19.389  -0.878  31.493  1.00  0.00     0.078 A 
HETATM   16  C20 UNK     1      19.452   0.340  30.847  1.00  0.00     0.132 A 
HETATM   17  F4  UNK     1      18.924   1.449  31.385  1.00  0.00    -0.205 F 
HETATM   18  C22 UNK     1      20.082   0.411  29.604  1.00  0.00     0.043 A 
HETATM   19  C24 UNK     1      20.634  -0.735  29.035  1.00  0.00     0.003 A 
HETATM   20  C23 UNK     1      20.558  -1.955  29.708  1.00  0.00     0.001 A 
HETATM   21  C21 UNK     1      19.929  -2.027  30.950  1.00  0.00     0.021 A 
ENDBRANCH  13  15
ENDBRANCH  12  13
ENDBRANCH  10  12
BRANCH   6  22
HETATM   22  C11 UNK     1      20.665  -7.678  34.923  1.00  0.00     0.440 C 
HETATM   23  F1  UNK     1      19.648  -8.538  35.114  1.00  0.00    -0.164 F 
HETATM   24  F2  UNK     1      20.792  -7.468  33.599  1.00  0.00    -0.164 F 
HETATM   25  F3  UNK     1      21.796  -8.262  35.363  1.00  0.00    -0.164 F 
ENDBRANCH   6  22
BRANCH   3  26
HETATM   26  C6  UNK     1      20.436  -7.404  37.883  1.00  0.00     0.014 A 
HETATM   27  C12 UNK     1      19.300  -8.154  38.186  1.00  0.00     0.015 A 
HETATM   28  C15 UNK     1      19.397  -9.252  39.042  1.00  0.00     0.001 A 
HETATM   29  C16 UNK     1      20.629  -9.599  39.596  1.00  0.00     0.003 A 
HETATM   30  C14 UNK     1      21.764  -8.846  39.294  1.00  0.00     0.037 A 
HETATM   31  C9  UNK     1      21.668  -7.750  38.438  1.00  0.00     0.079 A 
BRANCH  31  32
HETATM   32  O3  UNK     1      22.794  -7.032  38.159  1.00  0.00    -0.355 OA
HETATM   33  C19 UNK     1      23.369  -6.290  39.232  1.00  0.00     0.210 C 
ENDBRANCH  31  32
ENDBRANCH   3  26
TORSDOF 6
ENDMDL
MODEL 2
REMARK VINA RESULT:      -9.2      6.761     10.783
REMARK  6 active torsions:
REMARK  status: ('A' for Active; 'I' for Inactive)
REMARK    1  A    between atoms: C10_19  and  O2_6 
REMARK    2  A    between atoms: C17_26  and  O2_6 
REMARK    3  A    between atoms: C9_18  and  O3_7 
REMARK    4  A    between atoms: C1_10  and  C6_15 
REMARK    5  A    between atoms: C11_20  and  C4_13 
REMARK    6  A    between atoms: C17_26  and  C18_27 
ROOT
HETATM    1  O1  UNK     1      28.071  -5.684  38.592  1.00  0.00    -0.304 OA
HETATM    2  O4  UNK     1      29.286  -8.238  35.670  1.00  0.00    -0.286 OA
HETATM    3  C1  UNK     1      29.757  -6.304  36.973  1.00  0.00     0.067 A 
HETATM    4  C2  UNK     1      27.642  -7.648  37.241  1.00  0.00     0.049 A 
HETATM    5  C3  UNK     1      27.282  -6.742  38.233  1.00  0.00     0.093 A 
HETATM    6  C4  UNK     1      29.289  -5.499  37.950  1.00  0.00     0.174 A 
HETATM    7  C5  UNK     1      28.924  -7.467  36.549  1.00  0.00     0.198 A 
HETATM    8  C7  UNK     1      26.795  -8.710  36.915  1.00  0.00     0.021 A 
HETATM    9  C8  UNK     1      26.069  -6.891  38.906  1.00  0.00     0.075 A 
HETATM   10  C10 UNK     1      25.219  -7.950  38.585  1.00  0.00     0.082 A 
HETATM   11  C13 UNK     1      25.582  -8.858  37.590  1.00  0.00     0.038 A 
ENDROOT
BRANCH  10  12
HETATM   12  O2  UNK     1      24.036  -8.097  39.241  1.00  0.00    -0.275 OA
BRANCH  12  13
HETATM   13  C17 UNK     1      22.933  -7.572  38.564  1.00  0.00     0.301 C 
HETATM   14  O5  UNK     1      22.832  -6.427  38.147  1.00  0.00    -0.259 OA
BRANCH  13  15
HETATM   15  C18 UNK     1      21.871  -8.595  38.392  1.00  0.00     0.078 A 
HETATM   16  C20 UNK     1      21.819  -9.316  37.217  1.00  0.00     0.132 A 
HETATM   17  F4  UNK     1      22.702  -9.114  36.229  1.00  0.00    -0.205 F 
HETATM   18  C22 UNK     1      20.820 -10.278  37.060  1.00  0.00     0.043 A 
HETATM   19  C24 UNK     1      19.895 -10.496  38.081  1.00  0.00     0.003 A 
HETATM   20  C23 UNK     1      19.969  -9.753  39.259  1.00  0.00     0.001 A 
HETATM   21  C21 UNK     1      20.968  -8.793  39.417  1.00  0.00     0.021 A 
ENDBRANCH  13  15
ENDBRANCH  12  13
ENDBRANCH  10  12
BRANCH   6  22
HETATM   22  C11 UNK     1      30.010  -4.292  38.483  1.00  0.00     0.440 C 
HETATM   23  F1  UNK     1      30.186  -3.375  37.514  1.00  0.00    -0.164 F 
HETATM   24  F2  UNK     1      29.309  -3.718  39.480  1.00  0.00    -0.164 F 
HETATM   25  F3  UNK     1      31.220  -4.630  38.965  1.00  0.00    -0.164 F 
ENDBRANCH   6  22
BRANCH   3  26
HETATM   26  C6  UNK     1      31.040  -6.073  36.325  1.00  0.00     0.014 A 
HETATM   27  C12 UNK     1      31.083  -5.285  35.175  1.00  0.00     0.015 A 
HETATM   28  C15 UNK     1      32.301  -5.049  34.536  1.00  0.00     0.001 A 
HETATM   29  C16 UNK     1      33.475  -5.602  35.046  1.00  0.00     0.003 A 
HETATM   30  C14 UNK     1      33.431  -6.392  36.195  1.00  0.00     0.037 A 
HETATM   31  C9  UNK     1      32.214  -6.627  36.834  1.00  0.00     0.079 A 
BRANCH  31  32
HETATM   32  O3  UNK     1      32.200  -7.401  37.957  1.00  0.00    -0.355 OA
HETATM   33  C19 UNK     1      32.107  -8.811  37.768  1.00  0.00     0.210 C 
ENDBRANCH  31  32
ENDBRANCH   3  26
TORSDOF 6
ENDMDL
MODEL 3
REMARK VINA RESULT:      -9.2      6.080      9.966
REMARK  6 active torsions:
REMARK  status: ('A' for Active; 'I' for Inactive)
REMARK    1  A    between atoms: C10_19  and  O2_6 
REMARK    2  A    between atoms: C17_26  and  O2_6 
REMARK    3  A    between atoms: C9_18  and  O3_7 
REMARK    4  A    between atoms: C1_10  and  C6_15 
REMARK    5  A    between atoms: C11_20  and  C4_13 
REMARK    6  A    between atoms: C17_26  and  C18_27 
ROOT
HETATM    1  O1  UNK     1      27.539  -5.247  38.849  1.00  0.00    -0.304 OA
HETATM    2  O4  UNK     1      28.624  -8.829  37.257  1.00  0.00    -0.286 OA
HETATM    3  C1  UNK     1      29.282  -6.640  37.915  1.00  0.00     0.067 A 
HETATM    4  C2  UNK     1      26.922  -7.488  38.166  1.00  0.00     0.049 A 
HETATM    5  C3  UNK     1      26.613  -6.244  38.704  1.00  0.00     0.093 A 
HETATM    6  C4  UNK     1      28.849  -5.479  38.451  1.00  0.00     0.174 A 
HETATM    7  C5  UNK     1      28.302  -7.750  37.736  1.00  0.00     0.198 A 
HETATM    8  C7  UNK     1      25.934  -8.467  38.041  1.00  0.00     0.021 A 
HETATM    9  C8  UNK     1      25.310  -5.968  39.121  1.00  0.00     0.075 A 
HETATM   10  C10 UNK     1      24.319  -6.943  38.998  1.00  0.00     0.082 A 
HETATM   11  C13 UNK     1      24.631  -8.191  38.458  1.00  0.00     0.038 A 
ENDROOT
BRANCH  10  12
HETATM   12  O2  UNK     1      23.048  -6.677  39.405  1.00  0.00    -0.275 OA
BRANCH  12  13
HETATM   13  C17 UNK     1      22.206  -6.210  38.393  1.00  0.00     0.301 C 
HETATM   14  O5  UNK     1      22.283  -5.117  37.851  1.00  0.00    -0.259 OA
BRANCH  13  15
HETATM   15  C18 UNK     1      21.184  -7.225  38.033  1.00  0.00     0.078 A 
HETATM   16  C20 UNK     1      20.052  -7.341  38.814  1.00  0.00     0.132 A 
HETATM   17  F4  UNK     1      19.855  -6.563  39.887  1.00  0.00    -0.205 F 
HETATM   18  C22 UNK     1      19.093  -8.295  38.470  1.00  0.00     0.043 A 
HETATM   19  C24 UNK     1      19.288  -9.111  37.357  1.00  0.00     0.003 A 
HETATM   20  C23 UNK     1      20.440  -8.973  36.584  1.00  0.00     0.001 A 
HETATM   21  C21 UNK     1      21.399  -8.019  36.926  1.00  0.00     0.021 A 
ENDBRANCH  13  15
ENDBRANCH  12  13
ENDBRANCH  10  12
BRANCH   6  22
HETATM   22  C11 UNK     1      29.715  -4.273  38.692  1.00  0.00     0.440 C 
HETATM   23  F1  UNK     1      30.925  -4.640  39.154  1.00  0.00    -0.164 F 
HETATM   24  F2  UNK     1      29.896  -3.579  37.553  1.00  0.00    -0.164 F 
HETATM   25  F3  UNK     1      29.153  -3.451  39.597  1.00  0.00    -0.164 F 
ENDBRANCH   6  22
BRANCH   3  26
HETATM   26  C6  UNK     1      30.666  -6.840  37.509  1.00  0.00     0.014 A 
HETATM   27  C12 UNK     1      31.550  -7.449  38.400  1.00  0.00     0.015 A 
HETATM   28  C15 UNK     1      32.881  -7.651  38.034  1.00  0.00     0.001 A 
HETATM   29  C16 UNK     1      33.329  -7.242  36.778  1.00  0.00     0.003 A 
HETATM   30  C14 UNK     1      32.445  -6.630  35.888  1.00  0.00     0.037 A 
HETATM   31  C9  UNK     1      31.114  -6.430  36.254  1.00  0.00     0.079 A 
BRANCH  31  32
HETATM   32  O3  UNK     1      30.271  -5.831  35.365  1.00  0.00    -0.355 OA
HETATM   33  C19 UNK     1      29.877  -6.599  34.231  1.00  0.00     0.210 C 
ENDBRANCH  31  32
ENDBRANCH   3  26
TORSDOF 6
ENDMDL
MODEL 4
REMARK VINA RESULT:      -9.1      9.035     12.256
REMARK  6 active torsions:
REMARK  status: ('A' for Active; 'I' for Inactive)
REMARK    1  A    between atoms: C10_19  and  O2_6 
REMARK    2  A    between atoms: C17_26  and  O2_6 
REMARK    3  A    between atoms: C9_18  and  O3_7 
REMARK    4  A    between atoms: C1_10  and  C6_15 
REMARK    5  A    between atoms: C11_20  and  C4_13 
REMARK    6  A    between atoms: C17_26  and  C18_27 
ROOT
HETATM    1  O1  UNK     1      28.502  -6.585  33.105  1.00  0.00    -0.304 OA
HETATM    2  O4  UNK     1      29.099 -10.591  32.724  1.00  0.00    -0.286 OA
HETATM    3  C1  UNK     1      29.134  -8.446  31.694  1.00  0.00     0.067 A 
HETATM    4  C2  UNK     1      28.487  -8.791  34.105  1.00  0.00     0.049 A 
HETATM    5  C3  UNK     1      28.301  -7.414  34.174  1.00  0.00     0.093 A 
HETATM    6  C4  UNK     1      28.916  -7.129  31.895  1.00  0.00     0.174 A 
HETATM    7  C5  UNK     1      28.921  -9.384  32.834  1.00  0.00     0.198 A 
HETATM    8  C7  UNK     1      28.265  -9.589  35.231  1.00  0.00     0.021 A 
HETATM    9  C8  UNK     1      27.889  -6.825  35.370  1.00  0.00     0.075 A 
HETATM   10  C10 UNK     1      27.666  -7.617  36.496  1.00  0.00     0.082 A 
HETATM   11  C13 UNK     1      27.853  -8.998  36.426  1.00  0.00     0.038 A 
ENDROOT
BRANCH  10  12
HETATM   12  O2  UNK     1      27.265  -7.044  37.663  1.00  0.00    -0.275 OA
BRANCH  12  13
HETATM   13  C17 UNK     1      28.113  -7.290  38.746  1.00  0.00     0.301 C 
HETATM   14  O5  UNK     1      27.876  -8.045  39.678  1.00  0.00    -0.259 OA
BRANCH  13  15
HETATM   15  C18 UNK     1      29.375  -6.516  38.627  1.00  0.00     0.078 A 
HETATM   16  C20 UNK     1      30.554  -7.192  38.384  1.00  0.00     0.132 A 
HETATM   17  F4  UNK     1      30.586  -8.526  38.254  1.00  0.00    -0.205 F 
HETATM   18  C22 UNK     1      31.737  -6.461  38.272  1.00  0.00     0.043 A 
HETATM   19  C24 UNK     1      31.716  -5.073  38.406  1.00  0.00     0.003 A 
HETATM   20  C23 UNK     1      30.511  -4.414  38.651  1.00  0.00     0.001 A 
HETATM   21  C21 UNK     1      29.328  -5.144  38.762  1.00  0.00     0.021 A 
ENDBRANCH  13  15
ENDBRANCH  12  13
ENDBRANCH  10  12
BRANCH   6  22
HETATM   22  C11 UNK     1      29.087  -6.064  30.847  1.00  0.00     0.440 C 
HETATM   23  F1  UNK     1      28.112  -6.144  29.924  1.00  0.00    -0.164 F 
HETATM   24  F2  UNK     1      29.040  -4.837  31.400  1.00  0.00    -0.164 F 
HETATM   25  F3  UNK     1      30.270  -6.194  30.219  1.00  0.00    -0.164 F 
ENDBRANCH   6  22
BRANCH   3  26
HETATM   26  C6  UNK     1      29.567  -8.974  30.408  1.00  0.00     0.014 A 
HETATM   27  C12 UNK     1      28.602  -9.309  29.458  1.00  0.00     0.015 A 
HETATM   28  C15 UNK     1      28.992  -9.818  28.218  1.00  0.00     0.001 A 
HETATM   29  C16 UNK     1      30.345  -9.992  27.929  1.00  0.00     0.003 A 
HETATM   30  C14 UNK     1      31.309  -9.658  28.881  1.00  0.00     0.037 A 
HETATM   31  C9  UNK     1      30.919  -9.149  30.120  1.00  0.00     0.079 A 
BRANCH  31  32
HETATM   32  O3  UNK     1      31.882  -8.830  31.032  1.00  0.00    -0.355 OA
HETATM   33  C19 UNK     1      32.991  -8.069  30.560  1.00  0.00     0.210 C 
ENDBRANCH  31  32
ENDBRANCH   3  26
TORSDOF 6
ENDMDL
MODEL 5
REMARK VINA RESULT:      -8.9      5.144      9.397
REMARK  6 active torsions:
REMARK  status: ('A' for Active; 'I' for Inactive)
REMARK    1  A    between atoms: C10_19  and  O2_6 
REMARK    2  A    between atoms: C17_26  and  O2_6 
REMARK    3  A    between atoms: C9_18  and  O3_7 
REMARK    4  A    between atoms: C1_10  and  C6_15 
REMARK    5  A    between atoms: C11_20  and  C4_13 
REMARK    6  A    between atoms: C17_26  and  C18_27 
ROOT
HETATM    1  O1  UNK     1      24.664 -10.123  36.408  1.00  0.00    -0.304 OA
HETATM    2  O4  UNK     1      23.279  -7.259  38.943  1.00  0.00    -0.286 OA
HETATM    3  C1  UNK     1      22.768  -8.963  37.364  1.00  0.00     0.067 A 
HETATM    4  C2  UNK     1      25.129  -8.380  38.025  1.00  0.00     0.049 A 
HETATM    5  C3  UNK     1      25.541  -9.374  37.144  1.00  0.00     0.093 A 
HETATM    6  C4  UNK     1      23.301  -9.895  36.544  1.00  0.00     0.174 A 
HETATM    7  C5  UNK     1      23.691  -8.122  38.179  1.00  0.00     0.198 A 
HETATM    8  C7  UNK     1      26.071  -7.645  38.750  1.00  0.00     0.021 A 
HETATM    9  C8  UNK     1      26.901  -9.639  36.979  1.00  0.00     0.075 A 
HETATM   10  C10 UNK     1      27.845  -8.908  37.700  1.00  0.00     0.082 A 
HETATM   11  C13 UNK     1      27.431  -7.912  38.584  1.00  0.00     0.038 A 
ENDROOT
BRANCH  10  12
HETATM   12  O2  UNK     1      29.172  -9.167  37.541  1.00  0.00    -0.275 OA
BRANCH  12  13
HETATM   13  C17 UNK     1      29.786  -8.422  36.531  1.00  0.00     0.301 C 
HETATM   14  O5  UNK     1      29.820  -8.721  35.346  1.00  0.00    -0.259 OA
BRANCH  13  15
HETATM   15  C18 UNK     1      30.402  -7.185  37.074  1.00  0.00     0.078 A 
HETATM   16  C20 UNK     1      31.485  -7.292  37.923  1.00  0.00     0.132 A 
HETATM   17  F4  UNK     1      31.991  -8.485  38.270  1.00  0.00    -0.205 F 
HETATM   18  C22 UNK     1      32.061  -6.127  38.429  1.00  0.00     0.043 A 
HETATM   19  C24 UNK     1      31.543  -4.882  38.077  1.00  0.00     0.003 A 
HETATM   20  C23 UNK     1      30.448  -4.800  37.217  1.00  0.00     0.001 A 
HETATM   21  C21 UNK     1      29.872  -5.964  36.709  1.00  0.00     0.021 A 
ENDBRANCH  13  15
ENDBRANCH  12  13
ENDBRANCH  10  12
BRANCH   6  22
HETATM   22  C11 UNK     1      22.502 -10.815  35.662  1.00  0.00     0.440 C 
HETATM   23  F1  UNK     1      23.263 -11.835  35.226  1.00  0.00    -0.164 F 
HETATM   24  F2  UNK     1      21.455 -11.331  36.334  1.00  0.00    -0.164 F 
HETATM   25  F3  UNK     1      22.026 -10.158  34.589  1.00  0.00    -0.164 F 
ENDBRANCH   6  22
BRANCH   3  26
HETATM   26  C6  UNK     1      21.331  -8.756  37.474  1.00  0.00     0.014 A 
HETATM   27  C12 UNK     1      20.640  -9.365  38.522  1.00  0.00     0.015 A 
HETATM   28  C15 UNK     1      19.262  -9.181  38.648  1.00  0.00     0.001 A 
HETATM   29  C16 UNK     1      18.576  -8.391  37.726  1.00  0.00     0.003 A 
HETATM   30  C14 UNK     1      19.268  -7.784  36.677  1.00  0.00     0.037 A 
HETATM   31  C9  UNK     1      20.645  -7.967  36.552  1.00  0.00     0.079 A 
BRANCH  31  32
HETATM   32  O3  UNK     1      21.297  -7.361  35.518  1.00  0.00    -0.355 OA
HETATM   33  C19 UNK     1      20.548  -7.133  34.327  1.00  0.00     0.210 C 
ENDBRANCH  31  32
ENDBRANCH   3  26
TORSDOF 6
ENDMDL
MODEL 6
REMARK VINA RESULT:      -8.9      9.055     12.344
REMARK  6 active torsions:
REMARK  status: ('A' for Active; 'I' for Inactive)
REMARK    1  A    between atoms: C10_19  and  O2_6 
REMARK    2  A    between atoms: C17_26  and  O2_6 
REMARK    3  A    between atoms: C9_18  and  O3_7 
REMARK    4  A    between atoms: C1_10  and  C6_15 
REMARK    5  A    between atoms: C11_20  and  C4_13 
REMARK    6  A    between atoms: C17_26  and  C18_27 
ROOT
HETATM    1  O1  UNK     1      28.696  -6.400  33.306  1.00  0.00    -0.304 OA
HETATM    2  O4  UNK     1      29.971 -10.200  32.615  1.00  0.00    -0.286 OA
HETATM    3  C1  UNK     1      29.801  -7.962  31.826  1.00  0.00     0.067 A 
HETATM    4  C2  UNK     1      28.899  -8.692  34.063  1.00  0.00     0.049 A 
HETATM    5  C3  UNK     1      28.488  -7.376  34.242  1.00  0.00     0.093 A 
HETATM    6  C4  UNK     1      29.351  -6.725  32.125  1.00  0.00     0.174 A 
HETATM    7  C5  UNK     1      29.589  -9.055  32.818  1.00  0.00     0.198 A 
HETATM    8  C7  UNK     1      28.657  -9.647  35.054  1.00  0.00     0.021 A 
HETATM    9  C8  UNK     1      27.829  -7.004  35.415  1.00  0.00     0.075 A 
HETATM   10  C10 UNK     1      27.586  -7.954  36.408  1.00  0.00     0.082 A 
HETATM   11  C13 UNK     1      27.999  -9.274  36.227  1.00  0.00     0.038 A 
ENDROOT
BRANCH  10  12
HETATM   12  O2  UNK     1      26.945  -7.593  37.552  1.00  0.00    -0.275 OA
BRANCH  12  13
HETATM   13  C17 UNK     1      27.747  -7.627  38.696  1.00  0.00     0.301 C 
HETATM   14  O5  UNK     1      27.624  -8.407  39.629  1.00  0.00    -0.259 OA
BRANCH  13  15
HETATM   15  C18 UNK     1      28.804  -6.585  38.643  1.00  0.00     0.078 A 
HETATM   16  C20 UNK     1      30.111  -6.967  38.420  1.00  0.00     0.132 A 
HETATM   17  F4  UNK     1      30.448  -8.254  38.252  1.00  0.00    -0.205 F 
HETATM   18  C22 UNK     1      31.100  -5.985  38.370  1.00  0.00     0.043 A 
HETATM   19  C24 UNK     1      30.762  -4.644  38.544  1.00  0.00     0.003 A 
HETATM   20  C23 UNK     1      29.433  -4.283  38.768  1.00  0.00     0.001 A 
HETATM   21  C21 UNK     1      28.443  -5.264  38.818  1.00  0.00     0.021 A 
ENDBRANCH  13  15
ENDBRANCH  12  13
ENDBRANCH  10  12
BRANCH   6  22
HETATM   22  C11 UNK     1      29.489  -5.525  31.229  1.00  0.00     0.440 C 
HETATM   23  F1  UNK     1      28.635  -5.604  30.191  1.00  0.00    -0.164 F 
HETATM   24  F2  UNK     1      29.221  -4.391  31.904  1.00  0.00    -0.164 F 
HETATM   25  F3  UNK     1      30.738  -5.433  30.737  1.00  0.00    -0.164 F 
ENDBRANCH   6  22
BRANCH   3  26
HETATM   26  C6  UNK     1      30.482  -8.259  30.574  1.00  0.00     0.014 A 
HETATM   27  C12 UNK     1      31.868  -8.120  30.510  1.00  0.00     0.015 A 
HETATM   28  C15 UNK     1      32.543  -8.398  29.320  1.00  0.00     0.001 A 
HETATM   29  C16 UNK     1      31.831  -8.814  28.195  1.00  0.00     0.003 A 
HETATM   30  C14 UNK     1      30.444  -8.951  28.260  1.00  0.00     0.037 A 
HETATM   31  C9  UNK     1      29.770  -8.674  29.449  1.00  0.00     0.079 A 
BRANCH  31  32
HETATM   32  O3  UNK     1      28.414  -8.817  29.485  1.00  0.00    -0.355 OA
HETATM   33  C19 UNK     1      27.845  -9.796  28.619  1.00  0.00     0.210 C 
ENDBRANCH  31  32
ENDBRANCH   3  26
TORSDOF 6
ENDMDL
MODEL 7
REMARK VINA RESULT:      -8.8      5.400      9.353
REMARK  6 active torsions:
REMARK  status: ('A' for Active; 'I' for Inactive)
REMARK    1  A    between atoms: C10_19  and  O2_6 
REMARK    2  A    between atoms: C17_26  and  O2_6 
REMARK    3  A    between atoms: C9_18  and  O3_7 
REMARK    4  A    between atoms: C1_10  and  C6_15 
REMARK    5  A    between atoms: C11_20  and  C4_13 
REMARK    6  A    between atoms: C17_26  and  C18_27 
ROOT
HETATM    1  O1  UNK     1      24.147  -9.838  36.427  1.00  0.00    -0.304 OA
HETATM    2  O4  UNK     1      23.079  -6.896  39.025  1.00  0.00    -0.286 OA
HETATM    3  C1  UNK     1      22.412  -8.400  37.307  1.00  0.00     0.067 A 
HETATM    4  C2  UNK     1      24.773  -8.290  38.182  1.00  0.00     0.049 A 
HETATM    5  C3  UNK     1      25.076  -9.298  37.273  1.00  0.00     0.093 A 
HETATM    6  C4  UNK     1      22.839  -9.372  36.473  1.00  0.00     0.174 A 
HETATM    7  C5  UNK     1      23.396  -7.782  38.241  1.00  0.00     0.198 A 
HETATM    8  C7  UNK     1      25.764  -7.775  39.021  1.00  0.00     0.021 A 
HETATM    9  C8  UNK     1      26.377  -9.798  37.196  1.00  0.00     0.075 A 
HETATM   10  C10 UNK     1      27.370  -9.288  38.032  1.00  0.00     0.082 A 
HETATM   11  C13 UNK     1      27.064  -8.277  38.943  1.00  0.00     0.038 A 
ENDROOT
BRANCH  10  12
HETATM   12  O2  UNK     1      28.638  -9.776  37.958  1.00  0.00    -0.275 OA
BRANCH  12  13
HETATM   13  C17 UNK     1      29.394  -9.258  36.903  1.00  0.00     0.301 C 
HETATM   14  O5  UNK     1      29.293  -9.584  35.729  1.00  0.00    -0.259 OA
BRANCH  13  15
HETATM   15  C18 UNK     1      30.352  -8.230  37.382  1.00  0.00     0.078 A 
HETATM   16  C20 UNK     1      30.020  -6.896  37.260  1.00  0.00     0.132 A 
HETATM   17  F4  UNK     1      28.856  -6.508  36.720  1.00  0.00    -0.205 F 
HETATM   18  C22 UNK     1      30.923  -5.934  37.713  1.00  0.00     0.043 A 
HETATM   19  C24 UNK     1      32.137  -6.325  38.275  1.00  0.00     0.003 A 
HETATM   20  C23 UNK     1      32.449  -7.680  38.387  1.00  0.00     0.001 A 
HETATM   21  C21 UNK     1      31.547  -8.643  37.936  1.00  0.00     0.021 A 
ENDBRANCH  13  15
ENDBRANCH  12  13
ENDBRANCH  10  12
BRANCH   6  22
HETATM   22  C11 UNK     1      21.969 -10.087  35.476  1.00  0.00     0.440 C 
HETATM   23  F1  UNK     1      21.549  -9.242  34.517  1.00  0.00    -0.164 F 
HETATM   24  F2  UNK     1      22.646 -11.089  34.883  1.00  0.00    -0.164 F 
HETATM   25  F3  UNK     1      20.885 -10.614  36.076  1.00  0.00    -0.164 F 
ENDBRANCH   6  22
BRANCH   3  26
HETATM   26  C6  UNK     1      21.030  -7.940  37.320  1.00  0.00     0.014 A 
HETATM   27  C12 UNK     1      20.664  -6.882  36.488  1.00  0.00     0.015 A 
HETATM   28  C15 UNK     1      19.346  -6.423  36.483  1.00  0.00     0.001 A 
HETATM   29  C16 UNK     1      18.396  -7.021  37.310  1.00  0.00     0.003 A 
HETATM   30  C14 UNK     1      18.764  -8.078  38.143  1.00  0.00     0.037 A 
HETATM   31  C9  UNK     1      20.081  -8.537  38.147  1.00  0.00     0.079 A 
BRANCH  31  32
HETATM   32  O3  UNK     1      20.413  -9.573  38.970  1.00  0.00    -0.355 OA
HETATM   33  C19 UNK     1      19.485 -10.651  39.059  1.00  0.00     0.210 C 
ENDBRANCH  31  32
ENDBRANCH   3  26
TORSDOF 6
ENDMDL
MODEL 8
REMARK VINA RESULT:      -8.7     17.578     22.333
REMARK  6 active torsions:
REMARK  status: ('A' for Active; 'I' for Inactive)
REMARK    1  A    between atoms: C10_19  and  O2_6 
REMARK    2  A    between atoms: C17_26  and  O2_6 
REMARK    3  A    between atoms: C9_18  and  O3_7 
REMARK    4  A    between atoms: C1_10  and  C6_15 
REMARK    5  A    between atoms: C11_20  and  C4_13 
REMARK    6  A    between atoms: C17_26  and  C18_27 
ROOT
HETATM    1  O1  UNK     1      17.855  -5.402  14.204  1.00  0.00    -0.304 OA
HETATM    2  O4  UNK     1      19.923  -3.799  11.090  1.00  0.00    -0.286 OA
HETATM    3  C1  UNK     1      18.811  -5.694  12.001  1.00  0.00     0.067 A 
HETATM    4  C2  UNK     1      18.995  -3.501  13.228  1.00  0.00     0.049 A 
HETATM    5  C3  UNK     1      18.284  -4.104  14.259  1.00  0.00     0.093 A 
HETATM    6  C4  UNK     1      18.132  -6.158  13.072  1.00  0.00     0.174 A 
HETATM    7  C5  UNK     1      19.300  -4.286  12.025  1.00  0.00     0.198 A 
HETATM    8  C7  UNK     1      19.408  -2.171  13.341  1.00  0.00     0.021 A 
HETATM    9  C8  UNK     1      17.981  -3.382  15.414  1.00  0.00     0.075 A 
HETATM   10  C10 UNK     1      18.391  -2.054  15.532  1.00  0.00     0.082 A 
HETATM   11  C13 UNK     1      19.105  -1.449  14.496  1.00  0.00     0.038 A 
ENDROOT
BRANCH  10  12
HETATM   12  O2  UNK     1      18.096  -1.347  16.657  1.00  0.00    -0.275 OA
BRANCH  12  13
HETATM   13  C17 UNK     1      19.206  -1.019  17.438  1.00  0.00     0.301 C 
HETATM   14  O5  UNK     1      20.210  -1.703  17.572  1.00  0.00    -0.259 OA
BRANCH  13  15
HETATM   15  C18 UNK     1      19.028   0.299  18.099  1.00  0.00     0.078 A 
HETATM   16  C20 UNK     1      19.137   1.448  17.342  1.00  0.00     0.132 A 
HETATM   17  F4  UNK     1      19.400   1.402  16.028  1.00  0.00    -0.205 F 
HETATM   18  C22 UNK     1      18.967   2.684  17.966  1.00  0.00     0.043 A 
HETATM   19  C24 UNK     1      18.694   2.744  19.332  1.00  0.00     0.003 A 
HETATM   20  C23 UNK     1      18.590   1.568  20.076  1.00  0.00     0.001 A 
HETATM   21  C21 UNK     1      18.758   0.332  19.452  1.00  0.00     0.021 A 
ENDBRANCH  13  15
ENDBRANCH  12  13
ENDBRANCH  10  12
BRANCH   6  22
HETATM   22  C11 UNK     1      17.579  -7.551  13.196  1.00  0.00     0.440 C 
HETATM   23  F1  UNK     1      16.643  -7.778  12.255  1.00  0.00    -0.164 F 
HETATM   24  F2  UNK     1      18.554  -8.468  13.045  1.00  0.00    -0.164 F 
HETATM   25  F3  UNK     1      17.014  -7.738  14.402  1.00  0.00    -0.164 F 
ENDBRANCH   6  22
BRANCH   3  26
HETATM   26  C6  UNK     1      19.081  -6.523  10.834  1.00  0.00     0.014 A 
HETATM   27  C12 UNK     1      20.221  -7.326  10.826  1.00  0.00     0.015 A 
HETATM   28  C15 UNK     1      20.501  -8.128   9.719  1.00  0.00     0.001 A 
HETATM   29  C16 UNK     1      19.642  -8.126   8.620  1.00  0.00     0.003 A 
HETATM   30  C14 UNK     1      18.502  -7.320   8.629  1.00  0.00     0.037 A 
HETATM   31  C9  UNK     1      18.222  -6.520   9.736  1.00  0.00     0.079 A 
BRANCH  31  32
HETATM   32  O3  UNK     1      17.101  -5.743   9.719  1.00  0.00    -0.355 OA
HETATM   33  C19 UNK     1      16.853  -4.992   8.533  1.00  0.00     0.210 C 
ENDBRANCH  31  32
ENDBRANCH   3  26
TORSDOF 6
ENDMDL
MODEL 9
REMARK VINA RESULT:      -8.7     10.191     12.702
REMARK  6 active torsions:
REMARK  status: ('A' for Active; 'I' for Inactive)
REMARK    1  A    between atoms: C10_19  and  O2_6 
REMARK    2  A    between atoms: C17_26  and  O2_6 
REMARK    3  A    between atoms: C9_18  and  O3_7 
REMARK    4  A    between atoms: C1_10  and  C6_15 
REMARK    5  A    between atoms: C11_20  and  C4_13 
REMARK    6  A    between atoms: C17_26  and  C18_27 
ROOT
HETATM    1  O1  UNK     1      29.587  -6.082  32.936  1.00  0.00    -0.304 OA
HETATM    2  O4  UNK     1      29.332 -10.141  32.943  1.00  0.00    -0.286 OA
HETATM    3  C1  UNK     1      29.316  -8.128  31.675  1.00  0.00     0.067 A 
HETATM    4  C2  UNK     1      29.600  -8.160  34.179  1.00  0.00     0.049 A 
HETATM    5  C3  UNK     1      29.681  -6.774  34.112  1.00  0.00     0.093 A 
HETATM    6  C4  UNK     1      29.410  -6.783  31.750  1.00  0.00     0.174 A 
HETATM    7  C5  UNK     1      29.408  -8.919  32.936  1.00  0.00     0.198 A 
HETATM    8  C7  UNK     1      29.701  -8.814  35.410  1.00  0.00     0.021 A 
HETATM    9  C8  UNK     1      29.862  -6.029  35.278  1.00  0.00     0.075 A 
HETATM   10  C10 UNK     1      29.964  -6.677  36.509  1.00  0.00     0.082 A 
HETATM   11  C13 UNK     1      29.883  -8.068  36.575  1.00  0.00     0.038 A 
ENDROOT
BRANCH  10  12
HETATM   12  O2  UNK     1      30.142  -5.952  37.647  1.00  0.00    -0.275 OA
BRANCH  12  13
HETATM   13  C17 UNK     1      30.906  -4.795  37.478  1.00  0.00     0.301 C 
HETATM   14  O5  UNK     1      30.494  -3.648  37.578  1.00  0.00    -0.259 OA
BRANCH  13  15
HETATM   15  C18 UNK     1      32.320  -5.125  37.166  1.00  0.00     0.078 A 
HETATM   16  C20 UNK     1      32.918  -4.540  36.069  1.00  0.00     0.132 A 
HETATM   17  F4  UNK     1      32.253  -3.684  35.279  1.00  0.00    -0.205 F 
HETATM   18  C22 UNK     1      34.247  -4.851  35.780  1.00  0.00     0.043 A 
HETATM   19  C24 UNK     1      34.947  -5.741  36.594  1.00  0.00     0.003 A 
HETATM   20  C23 UNK     1      34.321  -6.319  37.697  1.00  0.00     0.001 A 
HETATM   21  C21 UNK     1      32.992  -6.007  37.987  1.00  0.00     0.021 A 
ENDBRANCH  13  15
ENDBRANCH  12  13
ENDBRANCH  10  12
BRANCH   6  22
HETATM   22  C11 UNK     1      29.335  -5.853  30.571  1.00  0.00     0.440 C 
HETATM   23  F1  UNK     1      29.555  -4.581  30.952  1.00  0.00    -0.164 F 
HETATM   24  F2  UNK     1      30.259  -6.179  29.647  1.00  0.00    -0.164 F 
HETATM   25  F3  UNK     1      28.123  -5.912  29.989  1.00  0.00    -0.164 F 
ENDBRANCH   6  22
BRANCH   3  26
HETATM   26  C6  UNK     1      29.128  -8.824  30.410  1.00  0.00     0.014 A 
HETATM   27  C12 UNK     1      27.832  -9.014  29.931  1.00  0.00     0.015 A 
HETATM   28  C15 UNK     1      27.627  -9.678  28.721  1.00  0.00     0.001 A 
HETATM   29  C16 UNK     1      28.716 -10.152  27.991  1.00  0.00     0.003 A 
HETATM   30  C14 UNK     1      30.012  -9.963  28.472  1.00  0.00     0.037 A 
HETATM   31  C9  UNK     1      30.218  -9.298  29.681  1.00  0.00     0.079 A 
BRANCH  31  32
HETATM   32  O3  UNK     1      31.495  -9.125  30.127  1.00  0.00    -0.355 OA
HETATM   33  C19 UNK     1      32.467  -8.725  29.164  1.00  0.00     0.210 C 
ENDBRANCH  31  32
ENDBRANCH   3  26
TORSDOF 6
ENDMDL
MODEL 10
REMARK VINA RESULT:      -8.7      5.228      9.551
REMARK  6 active torsions:
REMARK  status: ('A' for Active; 'I' for Inactive)
REMARK    1  A    between atoms: C10_19  and  O2_6 
REMARK    2  A    between atoms: C17_26  and  O2_6 
REMARK    3  A    between atoms: C9_18  and  O3_7 
REMARK    4  A    between atoms: C1_10  and  C6_15 
REMARK    5  A    between atoms: C11_20  and  C4_13 
REMARK    6  A    between atoms: C17_26  and  C18_27 
ROOT
HETATM    1  O1  UNK     1      24.792  -7.657  38.403  1.00  0.00    -0.304 OA
HETATM    2  O4  UNK     1      23.231 -10.614  36.087  1.00  0.00    -0.286 OA
HETATM    3  C1  UNK     1      22.828  -8.774  37.540  1.00  0.00     0.067 A 
HETATM    4  C2  UNK     1      25.147  -9.535  36.916  1.00  0.00     0.049 A 
HETATM    5  C3  UNK     1      25.621  -8.506  37.721  1.00  0.00     0.093 A 
HETATM    6  C4  UNK     1      23.417  -7.817  38.289  1.00  0.00     0.174 A 
HETATM    7  C5  UNK     1      23.696  -9.723  36.786  1.00  0.00     0.198 A 
HETATM    8  C7  UNK     1      26.042 -10.373  36.244  1.00  0.00     0.021 A 
HETATM    9  C8  UNK     1      26.995  -8.306  37.862  1.00  0.00     0.075 A 
HETATM   10  C10 UNK     1      27.891  -9.139  37.193  1.00  0.00     0.082 A 
HETATM   11  C13 UNK     1      27.415 -10.172  36.385  1.00  0.00     0.038 A 
ENDROOT
BRANCH  10  12
HETATM   12  O2  UNK     1      29.232  -8.945  37.329  1.00  0.00    -0.275 OA
BRANCH  12  13
HETATM   13  C17 UNK     1      29.775  -8.031  36.424  1.00  0.00     0.301 C 
HETATM   14  O5  UNK     1      29.818  -8.171  35.210  1.00  0.00    -0.259 OA
BRANCH  13  15
HETATM   15  C18 UNK     1      30.300  -6.830  37.121  1.00  0.00     0.078 A 
HETATM   16  C20 UNK     1      31.498  -6.921  37.801  1.00  0.00     0.132 A 
HETATM   17  F4  UNK     1      32.195  -8.065  37.848  1.00  0.00    -0.205 F 
HETATM   18  C22 UNK     1      31.988  -5.790  38.454  1.00  0.00     0.043 A 
HETATM   19  C24 UNK     1      31.271  -4.595  38.414  1.00  0.00     0.003 A 
HETATM   20  C23 UNK     1      30.063  -4.529  37.720  1.00  0.00     0.001 A 
HETATM   21  C21 UNK     1      29.573  -5.659  37.066  1.00  0.00     0.021 A 
ENDBRANCH  13  15
ENDBRANCH  12  13
ENDBRANCH  10  12
BRANCH   6  22
HETATM   22  C11 UNK     1      22.678  -6.792  39.103  1.00  0.00     0.440 C 
HETATM   23  F1  UNK     1      23.529  -5.877  39.603  1.00  0.00    -0.164 F 
HETATM   24  F2  UNK     1      21.767  -6.148  38.349  1.00  0.00    -0.164 F 
HETATM   25  F3  UNK     1      22.033  -7.371  40.133  1.00  0.00    -0.164 F 
ENDBRANCH   6  22
BRANCH   3  26
HETATM   26  C6  UNK     1      21.380  -8.907  37.450  1.00  0.00     0.014 A 
HETATM   27  C12 UNK     1      20.713  -9.676  38.404  1.00  0.00     0.015 A 
HETATM   28  C15 UNK     1      19.327  -9.819  38.338  1.00  0.00     0.001 A 
HETATM   29  C16 UNK     1      18.608  -9.195  37.319  1.00  0.00     0.003 A 
HETATM   30  C14 UNK     1      19.277  -8.427  36.364  1.00  0.00     0.037 A 
HETATM   31  C9  UNK     1      20.662  -8.284  36.431  1.00  0.00     0.079 A 
BRANCH  31  32
HETATM   32  O3  UNK     1      21.291  -7.527  35.486  1.00  0.00    -0.355 OA
HETATM   33  C19 UNK     1      20.532  -7.172  34.333  1.00  0.00     0.210 C 
ENDBRANCH  31  32
ENDBRANCH   3  26
TORSDOF 6
ENDMDL
