MODEL 1
REMARK VINA RESULT:      -6.6      0.000      0.000
REMARK  1 active torsions:
REMARK  status: ('A' for Active; 'I' for Inactive)
REMARK    1  A    between atoms: C4_7  and  N1_3 
ROOT
HETATM    1  O1  UNK     1      19.385   2.949  20.214  1.00  0.00    -0.275 OA
HETATM    2  O2  UNK     1      19.368   2.765  22.496  1.00  0.00    -0.260 OA
HETATM    3  C1  UNK     1      19.285   0.926  18.863  1.00  0.00     0.000 A 
HETATM    4  C2  UNK     1      19.356   2.313  18.955  1.00  0.00     0.089 A 
HETATM    5  C3  UNK     1      19.258   0.333  17.599  1.00  0.00     0.043 A 
HETATM    6  C4  UNK     1      19.304   1.132  16.452  1.00  0.00     0.026 A 
HETATM    7  C5  UNK     1      19.403   3.122  17.821  1.00  0.00     0.040 A 
HETATM    8  C6  UNK     1      19.240   0.144  20.088  1.00  0.00     0.020 A 
HETATM    9  C7  UNK     1      19.376   2.522  16.563  1.00  0.00     0.032 A 
HETATM   10  C8  UNK     1      19.267   0.753  21.275  1.00  0.00     0.083 A 
HETATM   11  C9  UNK     1      19.343   2.221  21.398  1.00  0.00     0.288 A 
ENDROOT
BRANCH   6  12
HETATM   12  N1  UNK     1      19.277   0.530  15.176  1.00  0.00    -0.399 N 
HETATM   13  H6  UNK     1      19.772   0.958  14.404  1.00  0.00     0.156 HD
HETATM   14  H7  UNK     1      18.763  -0.328  15.031  1.00  0.00     0.156 HD
ENDBRANCH   6  12
TORSDOF 1
ENDMDL
MODEL 2
REMARK VINA RESULT:      -6.4      3.059      4.867
REMARK  1 active torsions:
REMARK  status: ('A' for Active; 'I' for Inactive)
REMARK    1  A    between atoms: C4_7  and  N1_3 
ROOT
HETATM    1  O1  UNK     1      19.237   0.128  16.881  1.00  0.00    -0.275 OA
HETATM    2  O2  UNK     1      19.338   0.444  14.615  1.00  0.00    -0.260 OA
HETATM    3  C1  UNK     1      19.360   2.063  18.353  1.00  0.00     0.000 A 
HETATM    4  C2  UNK     1      19.245   0.687  18.176  1.00  0.00     0.089 A 
HETATM    5  C3  UNK     1      19.364   2.579  19.651  1.00  0.00     0.043 A 
HETATM    6  C4  UNK     1      19.254   1.717  20.745  1.00  0.00     0.026 A 
HETATM    7  C5  UNK     1      19.134  -0.185  19.257  1.00  0.00     0.040 A 
HETATM    8  C6  UNK     1      19.472   2.913  17.180  1.00  0.00     0.020 A 
HETATM    9  C7  UNK     1      19.139   0.339  20.549  1.00  0.00     0.032 A 
HETATM   10  C8  UNK     1      19.464   2.377  15.958  1.00  0.00     0.083 A 
HETATM   11  C9  UNK     1      19.343   0.922  15.744  1.00  0.00     0.288 A 
ENDROOT
BRANCH   6  12
HETATM   12  N1  UNK     1      19.258   2.240  22.056  1.00  0.00    -0.399 N 
HETATM   13  H6  UNK     1      18.606   1.887  22.744  1.00  0.00     0.156 HD
HETATM   14  H7  UNK     1      19.911   2.970  22.308  1.00  0.00     0.156 HD
ENDBRANCH   6  12
TORSDOF 1
ENDMDL
MODEL 3
REMARK VINA RESULT:      -6.3     10.796     12.055
REMARK  1 active torsions:
REMARK  status: ('A' for Active; 'I' for Inactive)
REMARK    1  A    between atoms: C4_7  and  N1_3 
ROOT
HETATM    1  O1  UNK     1      20.146  -0.796  32.141  1.00  0.00    -0.275 OA
HETATM    2  O2  UNK     1      21.191  -2.759  32.691  1.00  0.00    -0.260 OA
HETATM    3  C1  UNK     1      19.621  -0.349  29.806  1.00  0.00     0.000 A 
HETATM    4  C2  UNK     1      19.602   0.039  31.144  1.00  0.00     0.089 A 
HETATM    5  C3  UNK     1      19.073   0.505  28.847  1.00  0.00     0.043 A 
HETATM    6  C4  UNK     1      18.518   1.728  29.237  1.00  0.00     0.026 A 
HETATM    7  C5  UNK     1      19.053   1.254  31.547  1.00  0.00     0.040 A 
HETATM    8  C6  UNK     1      20.212  -1.631  29.457  1.00  0.00     0.020 A 
HETATM    9  C7  UNK     1      18.508   2.101  30.583  1.00  0.00     0.032 A 
HETATM   10  C8  UNK     1      20.724  -2.416  30.407  1.00  0.00     0.083 A 
HETATM   11  C9  UNK     1      20.716  -2.027  31.830  1.00  0.00     0.288 A 
ENDROOT
BRANCH   6  12
HETATM   12  N1  UNK     1      17.965   2.589  28.266  1.00  0.00    -0.399 N 
HETATM   13  H6  UNK     1      18.473   2.783  27.413  1.00  0.00     0.156 HD
HETATM   14  H7  UNK     1      17.061   3.014  28.422  1.00  0.00     0.156 HD
ENDBRANCH   6  12
TORSDOF 1
ENDMDL
MODEL 4
REMARK VINA RESULT:      -6.3     18.360     20.507
REMARK  1 active torsions:
REMARK  status: ('A' for Active; 'I' for Inactive)
REMARK    1  A    between atoms: C4_7  and  N1_3 
ROOT
HETATM    1  O1  UNK     1      21.287  -8.453  34.451  1.00  0.00    -0.275 OA
HETATM    2  O2  UNK     1      21.082  -6.690  33.003  1.00  0.00    -0.260 OA
HETATM    3  C1  UNK     1      19.723  -8.649  36.306  1.00  0.00     0.000 A 
HETATM    4  C2  UNK     1      20.818  -9.132  35.594  1.00  0.00     0.089 A 
HETATM    5  C3  UNK     1      19.287  -9.349  37.433  1.00  0.00     0.043 A 
HETATM    6  C4  UNK     1      19.949 -10.514  37.830  1.00  0.00     0.026 A 
HETATM    7  C5  UNK     1      21.487 -10.292  35.977  1.00  0.00     0.040 A 
HETATM    8  C6  UNK     1      19.073  -7.431  35.849  1.00  0.00     0.020 A 
HETATM    9  C7  UNK     1      21.046 -10.985  37.104  1.00  0.00     0.032 A 
HETATM   10  C8  UNK     1      19.523  -6.794  34.766  1.00  0.00     0.083 A 
HETATM   11  C9  UNK     1      20.680  -7.287  33.995  1.00  0.00     0.288 A 
ENDROOT
BRANCH   6  12
HETATM   12  N1  UNK     1      19.507 -11.220  38.969  1.00  0.00    -0.399 N 
HETATM   13  H6  UNK     1      18.742 -10.859  39.522  1.00  0.00     0.156 HD
HETATM   14  H7  UNK     1      19.956 -12.087  39.234  1.00  0.00     0.156 HD
ENDBRANCH   6  12
TORSDOF 1
ENDMDL
MODEL 5
REMARK VINA RESULT:      -6.2     11.145     12.398
REMARK  1 active torsions:
REMARK  status: ('A' for Active; 'I' for Inactive)
REMARK    1  A    between atoms: C4_7  and  N1_3 
ROOT
HETATM    1  O1  UNK     1      18.474   1.519  32.007  1.00  0.00    -0.275 OA
HETATM    2  O2  UNK     1      17.702   3.652  31.692  1.00  0.00    -0.260 OA
HETATM    3  C1  UNK     1      19.472   0.332  30.130  1.00  0.00     0.000 A 
HETATM    4  C2  UNK     1      19.087   0.369  31.467  1.00  0.00     0.089 A 
HETATM    5  C3  UNK     1      20.075  -0.825  29.632  1.00  0.00     0.043 A 
HETATM    6  C4  UNK     1      20.283  -1.921  30.474  1.00  0.00     0.026 A 
HETATM    7  C5  UNK     1      19.287  -0.716  32.318  1.00  0.00     0.040 A 
HETATM    8  C6  UNK     1      19.231   1.500  29.299  1.00  0.00     0.020 A 
HETATM    9  C7  UNK     1      19.890  -1.867  31.813  1.00  0.00     0.032 A 
HETATM   10  C8  UNK     1      18.651   2.585  29.817  1.00  0.00     0.083 A 
HETATM   11  C9  UNK     1      18.235   2.648  31.231  1.00  0.00     0.288 A 
ENDROOT
BRANCH   6  12
HETATM   12  N1  UNK     1      20.893  -3.089  29.969  1.00  0.00    -0.399 N 
HETATM   13  H6  UNK     1      20.934  -3.248  28.970  1.00  0.00     0.156 HD
HETATM   14  H7  UNK     1      21.290  -3.769  30.604  1.00  0.00     0.156 HD
ENDBRANCH   6  12
TORSDOF 1
ENDMDL
MODEL 6
REMARK VINA RESULT:      -6.2     12.823     14.563
REMARK  1 active torsions:
REMARK  status: ('A' for Active; 'I' for Inactive)
REMARK    1  A    between atoms: C4_7  and  N1_3 
ROOT
HETATM    1  O1  UNK     1      16.990   6.659  32.094  1.00  0.00    -0.275 OA
HETATM    2  O2  UNK     1      15.323   7.240  33.553  1.00  0.00    -0.260 OA
HETATM    3  C1  UNK     1      19.290   6.591  32.891  1.00  0.00     0.000 A 
HETATM    4  C2  UNK     1      18.363   6.434  31.863  1.00  0.00     0.089 A 
HETATM    5  C3  UNK     1      20.641   6.358  32.624  1.00  0.00     0.043 A 
HETATM    6  C4  UNK     1      21.043   5.977  31.341  1.00  0.00     0.026 A 
HETATM    7  C5  UNK     1      18.749   6.054  30.580  1.00  0.00     0.040 A 
HETATM    8  C6  UNK     1      18.816   6.990  34.206  1.00  0.00     0.020 A 
HETATM    9  C7  UNK     1      20.100   5.824  30.322  1.00  0.00     0.032 A 
HETATM   10  C8  UNK     1      17.515   7.201  34.417  1.00  0.00     0.083 A 
HETATM   11  C9  UNK     1      16.515   7.041  33.344  1.00  0.00     0.288 A 
ENDROOT
BRANCH   6  12
HETATM   12  N1  UNK     1      22.408   5.743  31.073  1.00  0.00    -0.399 N 
HETATM   13  H6  UNK     1      22.901   6.324  30.408  1.00  0.00     0.156 HD
HETATM   14  H7  UNK     1      22.896   4.993  31.546  1.00  0.00     0.156 HD
ENDBRANCH   6  12
TORSDOF 1
ENDMDL
MODEL 7
REMARK VINA RESULT:      -6.2      3.340      4.759
REMARK  1 active torsions:
REMARK  status: ('A' for Active; 'I' for Inactive)
REMARK    1  A    between atoms: C4_7  and  N1_3 
ROOT
HETATM    1  O1  UNK     1      19.244   0.964  15.344  1.00  0.00    -0.275 OA
HETATM    2  O2  UNK     1      19.263  -0.555  13.630  1.00  0.00    -0.260 OA
HETATM    3  C1  UNK     1      18.903   0.175  17.622  1.00  0.00     0.000 A 
HETATM    4  C2  UNK     1      19.120   1.219  16.725  1.00  0.00     0.089 A 
HETATM    5  C3  UNK     1      18.785   0.467  18.982  1.00  0.00     0.043 A 
HETATM    6  C4  UNK     1      18.884   1.790  19.423  1.00  0.00     0.026 A 
HETATM    7  C5  UNK     1      19.220   2.541  17.150  1.00  0.00     0.040 A 
HETATM    8  C6  UNK     1      18.808  -1.181  17.107  1.00  0.00     0.020 A 
HETATM    9  C7  UNK     1      19.101   2.824  18.510  1.00  0.00     0.032 A 
HETATM   10  C8  UNK     1      18.927  -1.414  15.799  1.00  0.00     0.083 A 
HETATM   11  C9  UNK     1      19.157  -0.325  14.830  1.00  0.00     0.288 A 
ENDROOT
BRANCH   6  12
HETATM   12  N1  UNK     1      18.764   2.082  20.799  1.00  0.00    -0.399 N 
HETATM   13  H6  UNK     1      17.895   1.896  21.282  1.00  0.00     0.156 HD
HETATM   14  H7  UNK     1      19.546   2.478  21.302  1.00  0.00     0.156 HD
ENDBRANCH   6  12
TORSDOF 1
ENDMDL
MODEL 8
REMARK VINA RESULT:      -6.0     18.727     20.270
REMARK  1 active torsions:
REMARK  status: ('A' for Active; 'I' for Inactive)
REMARK    1  A    between atoms: C4_7  and  N1_3 
ROOT
HETATM    1  O1  UNK     1      21.710  -9.395  34.957  1.00  0.00    -0.275 OA
HETATM    2  O2  UNK     1      22.862 -11.359  35.202  1.00  0.00    -0.260 OA
HETATM    3  C1  UNK     1      19.947  -8.850  36.545  1.00  0.00     0.000 A 
HETATM    4  C2  UNK     1      20.701  -8.525  35.420  1.00  0.00     0.089 A 
HETATM    5  C3  UNK     1      18.957  -7.964  36.974  1.00  0.00     0.043 A 
HETATM    6  C4  UNK     1      18.736  -6.773  36.276  1.00  0.00     0.026 A 
HETATM    7  C5  UNK     1      20.492  -7.342  34.715  1.00  0.00     0.040 A 
HETATM    8  C6  UNK     1      20.219 -10.102  37.232  1.00  0.00     0.020 A 
HETATM    9  C7  UNK     1      19.501  -6.463  35.150  1.00  0.00     0.032 A 
HETATM   10  C8  UNK     1      21.175 -10.919  36.788  1.00  0.00     0.083 A 
HETATM   11  C9  UNK     1      21.987 -10.597  35.599  1.00  0.00     0.288 A 
ENDROOT
BRANCH   6  12
HETATM   12  N1  UNK     1      17.734  -5.879  36.711  1.00  0.00    -0.399 N 
HETATM   13  H6  UNK     1      17.275  -6.028  37.600  1.00  0.00     0.156 HD
HETATM   14  H7  UNK     1      17.475  -5.090  36.135  1.00  0.00     0.156 HD
ENDBRANCH   6  12
TORSDOF 1
ENDMDL
MODEL 9
REMARK VINA RESULT:      -6.0     11.715     13.902
REMARK  1 active torsions:
REMARK  status: ('A' for Active; 'I' for Inactive)
REMARK    1  A    between atoms: C4_7  and  N1_3 
ROOT
HETATM    1  O1  UNK     1      17.817   3.016  31.576  1.00  0.00    -0.275 OA
HETATM    2  O2  UNK     1      17.543   1.630  29.774  1.00  0.00    -0.260 OA
HETATM    3  C1  UNK     1      19.014   5.115  31.284  1.00  0.00     0.000 A 
HETATM    4  C2  UNK     1      18.326   4.222  32.101  1.00  0.00     0.089 A 
HETATM    5  C3  UNK     1      19.503   6.299  31.839  1.00  0.00     0.043 A 
HETATM    6  C4  UNK     1      19.299   6.571  33.195  1.00  0.00     0.026 A 
HETATM    7  C5  UNK     1      18.114   4.479  33.453  1.00  0.00     0.040 A 
HETATM    8  C6  UNK     1      19.199   4.782  29.881  1.00  0.00     0.020 A 
HETATM    9  C7  UNK     1      18.606   5.663  34.000  1.00  0.00     0.032 A 
HETATM   10  C8  UNK     1      18.714   3.639  29.392  1.00  0.00     0.083 A 
HETATM   11  C9  UNK     1      17.981   2.676  30.238  1.00  0.00     0.288 A 
ENDROOT
BRANCH   6  12
HETATM   12  N1  UNK     1      19.794   7.768  33.755  1.00  0.00    -0.399 N 
HETATM   13  H6  UNK     1      20.639   8.186  33.389  1.00  0.00     0.156 HD
HETATM   14  H7  UNK     1      19.305   8.209  34.522  1.00  0.00     0.156 HD
ENDBRANCH   6  12
TORSDOF 1
ENDMDL
MODEL 10
REMARK VINA RESULT:      -6.0     18.982     20.583
REMARK  1 active torsions:
REMARK  status: ('A' for Active; 'I' for Inactive)
REMARK    1  A    between atoms: C4_7  and  N1_3 
ROOT
HETATM    1  O1  UNK     1      22.066  -7.443  37.032  1.00  0.00    -0.275 OA
HETATM    2  O2  UNK     1      23.761  -7.637  38.560  1.00  0.00    -0.260 OA
HETATM    3  C1  UNK     1      19.787  -7.120  37.826  1.00  0.00     0.000 A 
HETATM    4  C2  UNK     1      20.691  -7.264  36.776  1.00  0.00     0.089 A 
HETATM    5  C3  UNK     1      18.433  -6.944  37.534  1.00  0.00     0.043 A 
HETATM    6  C4  UNK     1      18.005  -6.918  36.203  1.00  0.00     0.026 A 
HETATM    7  C5  UNK     1      20.278  -7.239  35.446  1.00  0.00     0.040 A 
HETATM    8  C6  UNK     1      20.288  -7.157  39.191  1.00  0.00     0.020 A 
HETATM    9  C7  UNK     1      18.924  -7.064  35.162  1.00  0.00     0.032 A 
HETATM   10  C8  UNK     1      21.591  -7.326  39.424  1.00  0.00     0.083 A 
HETATM   11  C9  UNK     1      22.567  -7.481  38.329  1.00  0.00     0.288 A 
ENDROOT
BRANCH   6  12
HETATM   12  N1  UNK     1      16.636  -6.740  35.910  1.00  0.00    -0.399 N 
HETATM   13  H6  UNK     1      16.284  -6.957  34.986  1.00  0.00     0.156 HD
HETATM   14  H7  UNK     1      16.006  -6.396  36.621  1.00  0.00     0.156 HD
ENDBRANCH   6  12
TORSDOF 1
ENDMDL
