MODEL 1
REMARK VINA RESULT:      -6.9      0.000      0.000
REMARK  4 active torsions:
REMARK  status: ('A' for Active; 'I' for Inactive)
REMARK    1  A    between atoms: C3_7  and  O1_2 
REMARK    2  A    between atoms: C6_10  and  O2_3 
REMARK    3  A    between atoms: C1_5  and  C4_8 
REMARK    4  A    between atoms: C7_11  and  C8_12 
ROOT
HETATM    1  N1  UNK     1      22.700  -5.764  38.601  1.00  0.00    -0.191 NA
HETATM    2  C4  UNK     1      20.773  -3.279  37.187  1.00  0.00     0.035 C 
HETATM    3  C8  UNK     1      20.772  -4.636  37.272  1.00  0.00     0.055 C 
HETATM    4  C15 UNK     1      21.844  -5.252  38.010  1.00  0.00     0.100 C 
ENDROOT
BRANCH   3   5
HETATM    5  C7  UNK     1      19.753  -5.483  36.671  1.00  0.00    -0.015 A 
HETATM    6  C10 UNK     1      20.046  -6.220  35.524  1.00  0.00     0.014 A 
HETATM    7  C12 UNK     1      19.069  -7.031  34.947  1.00  0.00     0.024 A 
HETATM    8  C14 UNK     1      17.798  -7.106  35.518  1.00  0.00     0.034 A 
HETATM    9  C13 UNK     1      17.505  -6.369  36.666  1.00  0.00     0.024 A 
HETATM   10 Cl1  UNK     1      16.593  -8.106  34.806  1.00  0.00    -0.084 Cl
HETATM   11  C11 UNK     1      18.483  -5.557  37.241  1.00  0.00     0.014 A 
ENDBRANCH   3   5
BRANCH   2  12
HETATM   12  C1  UNK     1      19.785  -2.464  36.465  1.00  0.00    -0.032 A 
HETATM   13  C2  UNK     1      20.008  -2.141  35.135  1.00  0.00     0.051 A 
HETATM   14  C3  UNK     1      19.071  -1.367  34.452  1.00  0.00     0.102 A 
HETATM   15  C6  UNK     1      17.922  -0.924  35.106  1.00  0.00     0.101 A 
HETATM   16  C9  UNK     1      17.709  -1.255  36.444  1.00  0.00     0.040 A 
HETATM   17  C5  UNK     1      18.646  -2.030  37.128  1.00  0.00     0.014 A 
BRANCH  14  18
HETATM   18  O1  UNK     1      19.290  -1.050  33.144  1.00  0.00    -0.353 OA
HETATM   19  C16 UNK     1      20.007  -1.999  32.358  1.00  0.00     0.210 C 
ENDBRANCH  14  18
BRANCH  15  20
HETATM   20  O2  UNK     1      16.999  -0.168  34.448  1.00  0.00    -0.353 OA
HETATM   21  C17 UNK     1      15.845   0.232  35.186  1.00  0.00     0.210 C 
ENDBRANCH  15  20
ENDBRANCH   2  12
TORSDOF 4
ENDMDL
MODEL 2
REMARK VINA RESULT:      -6.6      1.014      2.403
REMARK  4 active torsions:
REMARK  status: ('A' for Active; 'I' for Inactive)
REMARK    1  A    between atoms: C3_7  and  O1_2 
REMARK    2  A    between atoms: C6_10  and  O2_3 
REMARK    3  A    between atoms: C1_5  and  C4_8 
REMARK    4  A    between atoms: C7_11  and  C8_12 
ROOT
HETATM    1  N1  UNK     1      22.547  -6.287  38.856  1.00  0.00    -0.191 NA
HETATM    2  C4  UNK     1      20.931  -3.623  37.380  1.00  0.00     0.035 C 
HETATM    3  C8  UNK     1      20.803  -4.975  37.443  1.00  0.00     0.055 C 
HETATM    4  C15 UNK     1      21.773  -5.693  38.228  1.00  0.00     0.100 C 
ENDROOT
BRANCH   3   5
HETATM    5  C7  UNK     1      19.748  -5.720  36.775  1.00  0.00    -0.015 A 
HETATM    6  C10 UNK     1      18.461  -5.744  37.313  1.00  0.00     0.014 A 
HETATM    7  C12 UNK     1      17.449  -6.459  36.673  1.00  0.00     0.024 A 
HETATM    8  C14 UNK     1      17.724  -7.151  35.493  1.00  0.00     0.034 A 
HETATM    9  C13 UNK     1      19.011  -7.127  34.954  1.00  0.00     0.024 A 
HETATM   10 Cl1  UNK     1      16.476  -8.034  34.703  1.00  0.00    -0.084 Cl
HETATM   11  C11 UNK     1      20.022  -6.412  35.596  1.00  0.00     0.014 A 
ENDBRANCH   3   5
BRANCH   2  12
HETATM   12  C1  UNK     1      20.062  -2.714  36.618  1.00  0.00    -0.032 A 
HETATM   13  C2  UNK     1      19.043  -2.038  37.272  1.00  0.00     0.051 A 
HETATM   14  C3  UNK     1      18.218  -1.177  36.548  1.00  0.00     0.102 A 
HETATM   15  C6  UNK     1      18.420  -1.003  35.179  1.00  0.00     0.101 A 
HETATM   16  C9  UNK     1      19.448  -1.690  34.533  1.00  0.00     0.040 A 
HETATM   17  C5  UNK     1      20.274  -2.550  35.257  1.00  0.00     0.014 A 
BRANCH  14  18
HETATM   18  O1  UNK     1      17.216  -0.512  37.191  1.00  0.00    -0.353 OA
HETATM   19  C16 UNK     1      17.581   0.652  37.929  1.00  0.00     0.210 C 
ENDBRANCH  14  18
BRANCH  15  20
HETATM   20  O2  UNK     1      17.622  -0.164  34.462  1.00  0.00    -0.353 OA
HETATM   21  C17 UNK     1      18.137   1.136  34.178  1.00  0.00     0.210 C 
ENDBRANCH  15  20
ENDBRANCH   2  12
TORSDOF 4
ENDMDL
MODEL 3
REMARK VINA RESULT:      -6.5     11.843     13.791
REMARK  4 active torsions:
REMARK  status: ('A' for Active; 'I' for Inactive)
REMARK    1  A    between atoms: C3_7  and  O1_2 
REMARK    2  A    between atoms: C6_10  and  O2_3 
REMARK    3  A    between atoms: C1_5  and  C4_8 
REMARK    4  A    between atoms: C7_11  and  C8_12 
ROOT
HETATM    1  N1  UNK     1      30.200  -2.022  31.154  1.00  0.00    -0.191 NA
HETATM    2  C4  UNK     1      30.599  -5.171  29.808  1.00  0.00     0.035 C 
HETATM    3  C8  UNK     1      30.166  -4.615  30.970  1.00  0.00     0.055 C 
HETATM    4  C15 UNK     1      30.188  -3.178  31.063  1.00  0.00     0.100 C 
ENDROOT
BRANCH   3   5
HETATM    5  C7  UNK     1      29.682  -5.386  32.105  1.00  0.00    -0.015 A 
HETATM    6  C10 UNK     1      30.581  -5.863  33.059  1.00  0.00     0.014 A 
HETATM    7  C12 UNK     1      30.117  -6.603  34.146  1.00  0.00     0.024 A 
HETATM    8  C14 UNK     1      28.753  -6.867  34.279  1.00  0.00     0.034 A 
HETATM    9  C13 UNK     1      27.854  -6.390  33.324  1.00  0.00     0.024 A 
HETATM   10 Cl1  UNK     1      28.181  -7.781  35.620  1.00  0.00    -0.084 Cl
HETATM   11  C11 UNK     1      28.319  -5.650  32.237  1.00  0.00     0.014 A 
ENDBRANCH   3   5
BRANCH   2  12
HETATM   12  C1  UNK     1      30.676  -6.611  29.522  1.00  0.00    -0.032 A 
HETATM   13  C2  UNK     1      31.915  -7.233  29.479  1.00  0.00     0.051 A 
HETATM   14  C3  UNK     1      31.987  -8.599  29.207  1.00  0.00     0.102 A 
HETATM   15  C6  UNK     1      30.819  -9.328  28.981  1.00  0.00     0.101 A 
HETATM   16  C9  UNK     1      29.579  -8.690  29.026  1.00  0.00     0.040 A 
HETATM   17  C5  UNK     1      29.507  -7.325  29.299  1.00  0.00     0.014 A 
BRANCH  14  18
HETATM   18  O1  UNK     1      33.204  -9.210  29.165  1.00  0.00    -0.353 OA
HETATM   19  C16 UNK     1      33.789  -9.577  30.413  1.00  0.00     0.210 C 
ENDBRANCH  14  18
BRANCH  15  20
HETATM   20  O2  UNK     1      30.877 -10.662  28.715  1.00  0.00    -0.353 OA
HETATM   21  C17 UNK     1      30.425 -11.547  29.740  1.00  0.00     0.210 C 
ENDBRANCH  15  20
ENDBRANCH   2  12
TORSDOF 4
ENDMDL
MODEL 4
REMARK VINA RESULT:      -6.5     10.655     12.846
REMARK  4 active torsions:
REMARK  status: ('A' for Active; 'I' for Inactive)
REMARK    1  A    between atoms: C3_7  and  O1_2 
REMARK    2  A    between atoms: C6_10  and  O2_3 
REMARK    3  A    between atoms: C1_5  and  C4_8 
REMARK    4  A    between atoms: C7_11  and  C8_12 
ROOT
HETATM    1  N1  UNK     1      29.458  -3.606  39.988  1.00  0.00    -0.191 NA
HETATM    2  C4  UNK     1      28.864  -6.075  37.656  1.00  0.00     0.035 C 
HETATM    3  C8  UNK     1      29.917  -5.346  38.112  1.00  0.00     0.055 C 
HETATM    4  C15 UNK     1      29.653  -4.385  39.151  1.00  0.00     0.100 C 
ENDROOT
BRANCH   3   5
HETATM    5  C7  UNK     1      31.277  -5.492  37.616  1.00  0.00    -0.015 A 
HETATM    6  C10 UNK     1      32.143  -6.408  38.212  1.00  0.00     0.014 A 
HETATM    7  C12 UNK     1      33.447  -6.546  37.737  1.00  0.00     0.024 A 
HETATM    8  C14 UNK     1      33.885  -5.769  36.665  1.00  0.00     0.034 A 
HETATM    9  C13 UNK     1      33.018  -4.853  36.068  1.00  0.00     0.024 A 
HETATM   10 Cl1  UNK     1      35.494  -5.939  36.079  1.00  0.00    -0.084 Cl
HETATM   11  C11 UNK     1      31.715  -4.714  36.544  1.00  0.00     0.014 A 
ENDBRANCH   3   5
BRANCH   2  12
HETATM   12  C1  UNK     1      28.918  -7.087  36.591  1.00  0.00    -0.032 A 
HETATM   13  C2  UNK     1      28.586  -6.729  35.293  1.00  0.00     0.051 A 
HETATM   14  C3  UNK     1      28.636  -7.689  34.283  1.00  0.00     0.102 A 
HETATM   15  C6  UNK     1      29.019  -8.997  34.582  1.00  0.00     0.101 A 
HETATM   16  C9  UNK     1      29.350  -9.345  35.891  1.00  0.00     0.040 A 
HETATM   17  C5  UNK     1      29.300  -8.384  36.901  1.00  0.00     0.014 A 
BRANCH  14  18
HETATM   18  O1  UNK     1      28.310  -7.338  33.007  1.00  0.00    -0.353 OA
HETATM   19  C16 UNK     1      27.746  -6.043  32.815  1.00  0.00     0.210 C 
ENDBRANCH  14  18
BRANCH  15  20
HETATM   20  O2  UNK     1      29.073  -9.944  33.604  1.00  0.00    -0.353 OA
HETATM   21  C17 UNK     1      30.261 -10.730  33.529  1.00  0.00     0.210 C 
ENDBRANCH  15  20
ENDBRANCH   2  12
TORSDOF 4
ENDMDL
MODEL 5
REMARK VINA RESULT:      -6.4     28.373     29.935
REMARK  4 active torsions:
REMARK  status: ('A' for Active; 'I' for Inactive)
REMARK    1  A    between atoms: C3_7  and  O1_2 
REMARK    2  A    between atoms: C6_10  and  O2_3 
REMARK    3  A    between atoms: C1_5  and  C4_8 
REMARK    4  A    between atoms: C7_11  and  C8_12 
ROOT
HETATM    1  N1  UNK     1      18.085   7.386  10.544  1.00  0.00    -0.191 NA
HETATM    2  C4  UNK     1      15.204   6.297   8.995  1.00  0.00     0.035 C 
HETATM    3  C8  UNK     1      15.627   7.381   9.699  1.00  0.00     0.055 C 
HETATM    4  C15 UNK     1      16.990   7.375  10.163  1.00  0.00     0.100 C 
ENDROOT
BRANCH   3   5
HETATM    5  C7  UNK     1      14.788   8.531   9.995  1.00  0.00    -0.015 A 
HETATM    6  C10 UNK     1      13.775   8.429  10.949  1.00  0.00     0.014 A 
HETATM    7  C12 UNK     1      12.970   9.532  11.233  1.00  0.00     0.024 A 
HETATM    8  C14 UNK     1      13.177  10.738  10.561  1.00  0.00     0.034 A 
HETATM    9  C13 UNK     1      14.189  10.839   9.607  1.00  0.00     0.024 A 
HETATM   10 Cl1  UNK     1      12.182  12.098  10.910  1.00  0.00    -0.084 Cl
HETATM   11  C11 UNK     1      14.994   9.736   9.324  1.00  0.00     0.014 A 
ENDBRANCH   3   5
BRANCH   2  12
HETATM   12  C1  UNK     1      13.851   6.101   8.455  1.00  0.00    -0.032 A 
HETATM   13  C2  UNK     1      13.007   5.176   9.050  1.00  0.00     0.051 A 
HETATM   14  C3  UNK     1      11.724   4.989   8.536  1.00  0.00     0.102 A 
HETATM   15  C6  UNK     1      11.300   5.729   7.432  1.00  0.00     0.101 A 
HETATM   16  C9  UNK     1      12.159   6.655   6.842  1.00  0.00     0.040 A 
HETATM   17  C5  UNK     1      13.441   6.843   7.356  1.00  0.00     0.014 A 
BRANCH  14  18
HETATM   18  O1  UNK     1      10.893   4.080   9.122  1.00  0.00    -0.353 OA
HETATM   19  C16 UNK     1      10.139   4.523  10.247  1.00  0.00     0.210 C 
ENDBRANCH  14  18
BRANCH  15  20
HETATM   20  O2  UNK     1      10.048   5.556   6.922  1.00  0.00    -0.353 OA
HETATM   21  C17 UNK     1       9.702   6.335   5.778  1.00  0.00     0.210 C 
ENDBRANCH  15  20
ENDBRANCH   2  12
TORSDOF 4
ENDMDL
MODEL 6
REMARK VINA RESULT:      -6.4     11.060     13.632
REMARK  4 active torsions:
REMARK  status: ('A' for Active; 'I' for Inactive)
REMARK    1  A    between atoms: C3_7  and  O1_2 
REMARK    2  A    between atoms: C6_10  and  O2_3 
REMARK    3  A    between atoms: C1_5  and  C4_8 
REMARK    4  A    between atoms: C7_11  and  C8_12 
ROOT
HETATM    1  N1  UNK     1      29.312  -3.652  39.944  1.00  0.00    -0.191 NA
HETATM    2  C4  UNK     1      31.905  -4.844  38.010  1.00  0.00     0.035 C 
HETATM    3  C8  UNK     1      30.609  -5.161  38.272  1.00  0.00     0.055 C 
HETATM    4  C15 UNK     1      29.899  -4.320  39.199  1.00  0.00     0.100 C 
ENDROOT
BRANCH   3   5
HETATM    5  C7  UNK     1      29.914  -6.286  37.666  1.00  0.00    -0.015 A 
HETATM    6  C10 UNK     1      30.003  -7.554  38.241  1.00  0.00     0.014 A 
HETATM    7  C12 UNK     1      29.337  -8.632  37.659  1.00  0.00     0.024 A 
HETATM    8  C14 UNK     1      28.580  -8.443  36.502  1.00  0.00     0.034 A 
HETATM    9  C13 UNK     1      28.490  -7.175  35.928  1.00  0.00     0.024 A 
HETATM   10 Cl1  UNK     1      27.759  -9.774  35.785  1.00  0.00    -0.084 Cl
HETATM   11  C11 UNK     1      29.158  -6.097  36.510  1.00  0.00     0.014 A 
ENDBRANCH   3   5
BRANCH   2  12
HETATM   12  C1  UNK     1      32.805  -5.585  37.114  1.00  0.00    -0.032 A 
HETATM   13  C2  UNK     1      32.632  -5.491  35.742  1.00  0.00     0.051 A 
HETATM   14  C3  UNK     1      33.486  -6.195  34.893  1.00  0.00     0.102 A 
HETATM   15  C6  UNK     1      34.502  -6.987  35.427  1.00  0.00     0.101 A 
HETATM   16  C9  UNK     1      34.666  -7.075  36.809  1.00  0.00     0.040 A 
HETATM   17  C5  UNK     1      33.813  -6.369  37.658  1.00  0.00     0.014 A 
BRANCH  14  18
HETATM   18  O1  UNK     1      33.316  -6.102  33.544  1.00  0.00    -0.353 OA
HETATM   19  C16 UNK     1      32.265  -6.874  32.968  1.00  0.00     0.210 C 
ENDBRANCH  14  18
BRANCH  15  20
HETATM   20  O2  UNK     1      35.343  -7.679  34.608  1.00  0.00    -0.353 OA
HETATM   21  C17 UNK     1      36.728  -7.340  34.665  1.00  0.00     0.210 C 
ENDBRANCH  15  20
ENDBRANCH   2  12
TORSDOF 4
ENDMDL
MODEL 7
REMARK VINA RESULT:      -6.4     28.331     29.798
REMARK  4 active torsions:
REMARK  status: ('A' for Active; 'I' for Inactive)
REMARK    1  A    between atoms: C3_7  and  O1_2 
REMARK    2  A    between atoms: C6_10  and  O2_3 
REMARK    3  A    between atoms: C1_5  and  C4_8 
REMARK    4  A    between atoms: C7_11  and  C8_12 
ROOT
HETATM    1  N1  UNK     1      15.829   3.842   9.824  1.00  0.00    -0.191 NA
HETATM    2  C4  UNK     1      14.956   7.138  10.332  1.00  0.00     0.035 C 
HETATM    3  C8  UNK     1      14.497   6.066   9.633  1.00  0.00     0.055 C 
HETATM    4  C15 UNK     1      15.241   4.838   9.745  1.00  0.00     0.100 C 
ENDROOT
BRANCH   3   5
HETATM    5  C7  UNK     1      13.307   6.094   8.798  1.00  0.00    -0.015 A 
HETATM    6  C10 UNK     1      12.089   5.638   9.302  1.00  0.00     0.014 A 
HETATM    7  C12 UNK     1      10.948   5.664   8.500  1.00  0.00     0.024 A 
HETATM    8  C14 UNK     1      11.025   6.147   7.193  1.00  0.00     0.034 A 
HETATM    9  C13 UNK     1      12.243   6.603   6.689  1.00  0.00     0.024 A 
HETATM   10 Cl1  UNK     1       9.617   6.178   6.204  1.00  0.00    -0.084 Cl
HETATM   11  C11 UNK     1      13.383   6.576   7.491  1.00  0.00     0.014 A 
ENDBRANCH   3   5
BRANCH   2  12
HETATM   12  C1  UNK     1      14.356   8.480  10.335  1.00  0.00    -0.032 A 
HETATM   13  C2  UNK     1      14.935   9.489   9.580  1.00  0.00     0.051 A 
HETATM   14  C3  UNK     1      14.366  10.762   9.584  1.00  0.00     0.102 A 
HETATM   15  C6  UNK     1      13.224  11.012  10.344  1.00  0.00     0.101 A 
HETATM   16  C9  UNK     1      12.651   9.990  11.101  1.00  0.00     0.040 A 
HETATM   17  C5  UNK     1      13.219   8.716  11.096  1.00  0.00     0.014 A 
BRANCH  14  18
HETATM   18  O1  UNK     1      14.935  11.753   8.841  1.00  0.00    -0.353 OA
HETATM   19  C16 UNK     1      15.631  11.360   7.661  1.00  0.00     0.210 C 
ENDBRANCH  14  18
BRANCH  15  20
HETATM   20  O2  UNK     1      12.658  12.251  10.356  1.00  0.00    -0.353 OA
HETATM   21  C17 UNK     1      11.253  12.320  10.597  1.00  0.00     0.210 C 
ENDBRANCH  15  20
ENDBRANCH   2  12
TORSDOF 4
ENDMDL
MODEL 8
REMARK VINA RESULT:      -6.3     10.396     12.571
REMARK  4 active torsions:
REMARK  status: ('A' for Active; 'I' for Inactive)
REMARK    1  A    between atoms: C3_7  and  O1_2 
REMARK    2  A    between atoms: C6_10  and  O2_3 
REMARK    3  A    between atoms: C1_5  and  C4_8 
REMARK    4  A    between atoms: C7_11  and  C8_12 
ROOT
HETATM    1  N1  UNK     1      30.161  -2.928  30.010  1.00  0.00    -0.191 NA
HETATM    2  C4  UNK     1      30.277  -5.131  32.658  1.00  0.00     0.035 C 
HETATM    3  C8  UNK     1      29.905  -5.140  31.350  1.00  0.00     0.055 C 
HETATM    4  C15 UNK     1      30.050  -3.910  30.616  1.00  0.00     0.100 C 
ENDROOT
BRANCH   3   5
HETATM    5  C7  UNK     1      29.384  -6.312  30.665  1.00  0.00    -0.015 A 
HETATM    6  C10 UNK     1      30.228  -7.090  29.872  1.00  0.00     0.014 A 
HETATM    7  C12 UNK     1      29.727  -8.214  29.214  1.00  0.00     0.024 A 
HETATM    8  C14 UNK     1      28.382  -8.560  29.350  1.00  0.00     0.034 A 
HETATM    9  C13 UNK     1      27.539  -7.781  30.142  1.00  0.00     0.024 A 
HETATM   10 Cl1  UNK     1      27.765  -9.945  28.537  1.00  0.00    -0.084 Cl
HETATM   11  C11 UNK     1      28.039  -6.658  30.799  1.00  0.00     0.014 A 
ENDBRANCH   3   5
BRANCH   2  12
HETATM   12  C1  UNK     1      30.187  -6.271  33.582  1.00  0.00    -0.032 A 
HETATM   13  C2  UNK     1      29.068  -6.409  34.390  1.00  0.00     0.051 A 
HETATM   14  C3  UNK     1      28.984  -7.490  35.267  1.00  0.00     0.102 A 
HETATM   15  C6  UNK     1      30.021  -8.421  35.327  1.00  0.00     0.101 A 
HETATM   16  C9  UNK     1      31.142  -8.271  34.511  1.00  0.00     0.040 A 
HETATM   17  C5  UNK     1      31.225  -7.191  33.633  1.00  0.00     0.014 A 
BRANCH  14  18
HETATM   18  O1  UNK     1      27.884  -7.626  36.060  1.00  0.00    -0.353 OA
HETATM   19  C16 UNK     1      27.834  -6.829  37.241  1.00  0.00     0.210 C 
ENDBRANCH  14  18
BRANCH  15  20
HETATM   20  O2  UNK     1      29.951  -9.482  36.179  1.00  0.00    -0.353 OA
HETATM   21  C17 UNK     1      30.715  -9.400  37.381  1.00  0.00     0.210 C 
ENDBRANCH  15  20
ENDBRANCH   2  12
TORSDOF 4
ENDMDL
MODEL 9
REMARK VINA RESULT:      -6.3     11.012     12.727
REMARK  4 active torsions:
REMARK  status: ('A' for Active; 'I' for Inactive)
REMARK    1  A    between atoms: C3_7  and  O1_2 
REMARK    2  A    between atoms: C6_10  and  O2_3 
REMARK    3  A    between atoms: C1_5  and  C4_8 
REMARK    4  A    between atoms: C7_11  and  C8_12 
ROOT
HETATM    1  N1  UNK     1      30.154  -2.990  30.023  1.00  0.00    -0.191 NA
HETATM    2  C4  UNK     1      30.004  -5.144  32.710  1.00  0.00     0.035 C 
HETATM    3  C8  UNK     1      29.763  -5.177  31.373  1.00  0.00     0.055 C 
HETATM    4  C15 UNK     1      29.982  -3.961  30.633  1.00  0.00     0.100 C 
ENDROOT
BRANCH   3   5
HETATM    5  C7  UNK     1      29.310  -6.362  30.661  1.00  0.00    -0.015 A 
HETATM    6  C10 UNK     1      27.956  -6.701  30.660  1.00  0.00     0.014 A 
HETATM    7  C12 UNK     1      27.522  -7.838  29.979  1.00  0.00     0.024 A 
HETATM    8  C14 UNK     1      28.441  -8.636  29.297  1.00  0.00     0.034 A 
HETATM    9  C13 UNK     1      29.795  -8.296  29.297  1.00  0.00     0.024 A 
HETATM   10 Cl1  UNK     1      27.905 -10.038  28.457  1.00  0.00    -0.084 Cl
HETATM   11  C11 UNK     1      30.228  -7.160  29.980  1.00  0.00     0.014 A 
ENDBRANCH   3   5
BRANCH   2  12
HETATM   12  C1  UNK     1      29.821  -6.267  33.642  1.00  0.00    -0.032 A 
HETATM   13  C2  UNK     1      30.892  -7.101  33.924  1.00  0.00     0.051 A 
HETATM   14  C3  UNK     1      30.718  -8.167  34.807  1.00  0.00     0.102 A 
HETATM   15  C6  UNK     1      29.474  -8.387  35.397  1.00  0.00     0.101 A 
HETATM   16  C9  UNK     1      28.404  -7.541  35.105  1.00  0.00     0.040 A 
HETATM   17  C5  UNK     1      28.578  -6.475  34.223  1.00  0.00     0.014 A 
BRANCH  14  18
HETATM   18  O1  UNK     1      31.771  -8.986  35.084  1.00  0.00    -0.353 OA
HETATM   19  C16 UNK     1      32.741  -8.503  36.010  1.00  0.00     0.210 C 
ENDBRANCH  14  18
BRANCH  15  20
HETATM   20  O2  UNK     1      29.291  -9.423  36.262  1.00  0.00    -0.353 OA
HETATM   21  C17 UNK     1      29.343  -9.121  37.656  1.00  0.00     0.210 C 
ENDBRANCH  15  20
ENDBRANCH   2  12
TORSDOF 4
ENDMDL
MODEL 10
REMARK VINA RESULT:      -6.3     11.729     13.740
REMARK  4 active torsions:
REMARK  status: ('A' for Active; 'I' for Inactive)
REMARK    1  A    between atoms: C3_7  and  O1_2 
REMARK    2  A    between atoms: C6_10  and  O2_3 
REMARK    3  A    between atoms: C1_5  and  C4_8 
REMARK    4  A    between atoms: C7_11  and  C8_12 
ROOT
HETATM    1  N1  UNK     1      30.108  -2.205  30.629  1.00  0.00    -0.191 NA
HETATM    2  C4  UNK     1      30.834  -5.434  29.664  1.00  0.00     0.035 C 
HETATM    3  C8  UNK     1      30.251  -4.799  30.715  1.00  0.00     0.055 C 
HETATM    4  C15 UNK     1      30.176  -3.362  30.658  1.00  0.00     0.100 C 
ENDROOT
BRANCH   3   5
HETATM    5  C7  UNK     1      29.701  -5.487  31.872  1.00  0.00    -0.015 A 
HETATM    6  C10 UNK     1      30.495  -5.704  32.999  1.00  0.00     0.014 A 
HETATM    7  C12 UNK     1      29.967  -6.365  34.108  1.00  0.00     0.024 A 
HETATM    8  C14 UNK     1      28.644  -6.810  34.091  1.00  0.00     0.034 A 
HETATM    9  C13 UNK     1      27.851  -6.593  32.964  1.00  0.00     0.024 A 
HETATM   10 Cl1  UNK     1      27.994  -7.626  35.458  1.00  0.00    -0.084 Cl
HETATM   11  C11 UNK     1      28.379  -5.932  31.856  1.00  0.00     0.014 A 
ENDBRANCH   3   5
BRANCH   2  12
HETATM   12  C1  UNK     1      31.028  -6.886  29.540  1.00  0.00    -0.032 A 
HETATM   13  C2  UNK     1      30.130  -7.632  28.791  1.00  0.00     0.051 A 
HETATM   14  C3  UNK     1      30.314  -9.010  28.675  1.00  0.00     0.102 A 
HETATM   15  C6  UNK     1      31.392  -9.626  29.310  1.00  0.00     0.101 A 
HETATM   16  C9  UNK     1      32.287  -8.865  30.061  1.00  0.00     0.040 A 
HETATM   17  C5  UNK     1      32.105  -7.487  30.177  1.00  0.00     0.014 A 
BRANCH  14  18
HETATM   18  O1  UNK     1      29.432  -9.744  27.938  1.00  0.00    -0.353 OA
HETATM   19  C16 UNK     1      28.149  -9.982  28.512  1.00  0.00     0.210 C 
ENDBRANCH  14  18
BRANCH  15  20
HETATM   20  O2  UNK     1      31.582 -10.971  29.203  1.00  0.00    -0.353 OA
HETATM   21  C17 UNK     1      31.117 -11.779  30.282  1.00  0.00     0.210 C 
ENDBRANCH  15  20
ENDBRANCH   2  12
TORSDOF 4
ENDMDL
