MODEL 1
REMARK VINA RESULT:      -7.8      0.000      0.000
REMARK  6 active torsions:
REMARK  status: ('A' for Active; 'I' for Inactive)
REMARK    1  A    between atoms: C11_14  and  O1_1 
REMARK    2  A    between atoms: C3_6  and  O1_1 
REMARK    3  A    between atoms: C1_4  and  C2_5 
REMARK    4  A    between atoms: C2_5  and  C3_6 
REMARK    5  A    between atoms: C6_9  and  C8_11 
REMARK    6  A    between atoms: C16_19  and  C8_11 
ROOT
HETATM    1  O2  UNK     1      16.068   6.523   9.751  1.00  0.00    -0.274 OA
HETATM    2  O3  UNK     1      14.950   4.548   9.696  1.00  0.00    -0.259 OA
HETATM    3  C4  UNK     1      13.577   7.866   9.824  1.00  0.00    -0.036 A 
HETATM    4  C5  UNK     1      14.845   8.624   9.826  1.00  0.00     0.005 A 
HETATM    5  C6  UNK     1      13.610   6.518   9.750  1.00  0.00     0.029 A 
HETATM    6  C7  UNK     1      16.048   7.925   9.792  1.00  0.00     0.092 A 
HETATM    7  C11 UNK     1      17.341   9.952   9.823  1.00  0.00     0.071 A 
HETATM    8  C12 UNK     1      17.290   8.564   9.792  1.00  0.00     0.075 A 
HETATM    9  C13 UNK     1      14.921  10.025   9.851  1.00  0.00     0.017 A 
HETATM   10  C14 UNK     1      14.903   5.774   9.727  1.00  0.00     0.295 A 
HETATM   11  C15 UNK     1      16.156  10.683   9.852  1.00  0.00     0.038 A 
HETATM   12  C17 UNK     1      12.303   8.667   9.921  1.00  0.00     0.050 C 
ENDROOT
BRANCH   5  13
HETATM   13  C8  UNK     1      12.395   5.628   9.676  1.00  0.00     0.084 C 
BRANCH  13  14
HETATM   14  C16 UNK     1      11.600   5.860   8.425  1.00  0.00    -0.054 A 
HETATM   15  C18 UNK     1      10.216   5.980   8.503  1.00  0.00     0.007 A 
HETATM   16  C20 UNK     1       9.476   6.196   7.341  1.00  0.00     0.001 A 
HETATM   17  C22 UNK     1      10.123   6.290   6.108  1.00  0.00     0.000 A 
HETATM   18  C21 UNK     1      11.510   6.168   6.039  1.00  0.00     0.001 A 
HETATM   19  C19 UNK     1      12.251   5.953   7.200  1.00  0.00     0.007 A 
ENDBRANCH  13  14
ENDBRANCH   5  13
BRANCH   7  20
HETATM   20  O1  UNK     1      18.540  10.594   9.824  1.00  0.00    -0.351 OA
BRANCH  20  21
HETATM   21  C3  UNK     1      18.614  11.837   9.125  1.00  0.00     0.176 C 
BRANCH  21  22
HETATM   22  C2  UNK     1      19.166  11.581   7.729  1.00  0.00     0.030 C 
BRANCH  22  23
HETATM   23  C1  UNK     1      18.247  12.075   6.600  1.00  0.00    -0.021 C 
HETATM   24  C9  UNK     1      17.203  13.041   7.165  1.00  0.00     0.009 C 
HETATM   25  C10 UNK     1      19.024  12.755   5.472  1.00  0.00     0.009 C 
ENDBRANCH  22  23
ENDBRANCH  21  22
ENDBRANCH  20  21
ENDBRANCH   7  20
TORSDOF 6
ENDMDL
MODEL 2
REMARK VINA RESULT:      -7.7     33.814     36.451
REMARK  6 active torsions:
REMARK  status: ('A' for Active; 'I' for Inactive)
REMARK    1  A    between atoms: C11_14  and  O1_1 
REMARK    2  A    between atoms: C3_6  and  O1_1 
REMARK    3  A    between atoms: C1_4  and  C2_5 
REMARK    4  A    between atoms: C2_5  and  C3_6 
REMARK    5  A    between atoms: C6_9  and  C8_11 
REMARK    6  A    between atoms: C16_19  and  C8_11 
ROOT
HETATM    1  O2  UNK     1      28.264  -5.123  39.088  1.00  0.00    -0.274 OA
HETATM    2  O3  UNK     1      29.924  -3.620  39.459  1.00  0.00    -0.259 OA
HETATM    3  C4  UNK     1      30.227  -7.015  38.325  1.00  0.00    -0.036 A 
HETATM    4  C5  UNK     1      28.792  -7.366  38.306  1.00  0.00     0.005 A 
HETATM    5  C6  UNK     1      30.601  -5.766  38.678  1.00  0.00     0.029 A 
HETATM    6  C7  UNK     1      27.859  -6.406  38.690  1.00  0.00     0.092 A 
HETATM    7  C11 UNK     1      26.016  -7.903  38.310  1.00  0.00     0.071 A 
HETATM    8  C12 UNK     1      26.485  -6.655  38.700  1.00  0.00     0.075 A 
HETATM    9  C13 UNK     1      28.295  -8.616  37.909  1.00  0.00     0.017 A 
HETATM   10  C14 UNK     1      29.597  -4.747  39.102  1.00  0.00     0.295 A 
HETATM   11  C15 UNK     1      26.921  -8.884  37.913  1.00  0.00     0.038 A 
HETATM   12  C17 UNK     1      31.201  -8.107  37.956  1.00  0.00     0.050 C 
ENDROOT
BRANCH   5  13
HETATM   13  C8  UNK     1      32.020  -5.260  38.680  1.00  0.00     0.084 C 
BRANCH  13  14
HETATM   14  C16 UNK     1      32.571  -5.113  37.292  1.00  0.00    -0.054 A 
HETATM   15  C18 UNK     1      33.802  -5.677  36.977  1.00  0.00     0.007 A 
HETATM   16  C20 UNK     1      34.315  -5.541  35.688  1.00  0.00     0.001 A 
HETATM   17  C22 UNK     1      33.593  -4.841  34.720  1.00  0.00     0.000 A 
HETATM   18  C21 UNK     1      32.359  -4.278  35.043  1.00  0.00     0.001 A 
HETATM   19  C19 UNK     1      31.846  -4.414  36.333  1.00  0.00     0.007 A 
ENDBRANCH  13  14
ENDBRANCH   5  13
BRANCH   7  20
HETATM   20  O1  UNK     1      24.682  -8.165  38.313  1.00  0.00    -0.351 OA
BRANCH  20  21
HETATM   21  C3  UNK     1      23.847  -7.290  39.072  1.00  0.00     0.176 C 
BRANCH  21  22
HETATM   22  C2  UNK     1      22.566  -8.029  39.436  1.00  0.00     0.030 C 
BRANCH  22  23
HETATM   23  C1  UNK     1      21.310  -7.144  39.400  1.00  0.00    -0.021 C 
HETATM   24  C9  UNK     1      21.363  -6.215  38.184  1.00  0.00     0.009 C 
HETATM   25  C10 UNK     1      20.020  -7.964  39.368  1.00  0.00     0.009 C 
ENDBRANCH  22  23
ENDBRANCH  21  22
ENDBRANCH  20  21
ENDBRANCH   7  20
TORSDOF 6
ENDMDL
MODEL 3
REMARK VINA RESULT:      -7.5     34.127     36.239
REMARK  6 active torsions:
REMARK  status: ('A' for Active; 'I' for Inactive)
REMARK    1  A    between atoms: C11_14  and  O1_1 
REMARK    2  A    between atoms: C3_6  and  O1_1 
REMARK    3  A    between atoms: C1_4  and  C2_5 
REMARK    4  A    between atoms: C2_5  and  C3_6 
REMARK    5  A    between atoms: C6_9  and  C8_11 
REMARK    6  A    between atoms: C16_19  and  C8_11 
ROOT
HETATM    1  O2  UNK     1      29.194  -6.897  35.678  1.00  0.00    -0.274 OA
HETATM    2  O3  UNK     1      30.753  -5.736  34.505  1.00  0.00    -0.259 OA
HETATM    3  C4  UNK     1      29.703  -5.220  37.902  1.00  0.00    -0.036 A 
HETATM    4  C5  UNK     1      28.707  -6.308  37.988  1.00  0.00     0.005 A 
HETATM    5  C6  UNK     1      30.402  -5.050  36.759  1.00  0.00     0.029 A 
HETATM    6  C7  UNK     1      28.485  -7.108  36.870  1.00  0.00     0.092 A 
HETATM    7  C11 UNK     1      26.832  -8.424  38.018  1.00  0.00     0.071 A 
HETATM    8  C12 UNK     1      27.562  -8.156  36.867  1.00  0.00     0.075 A 
HETATM    9  C13 UNK     1      27.963  -6.601  39.141  1.00  0.00     0.017 A 
HETATM   10  C14 UNK     1      30.151  -5.902  35.561  1.00  0.00     0.295 A 
HETATM   11  C15 UNK     1      27.033  -7.648  39.156  1.00  0.00     0.038 A 
HETATM   12  C17 UNK     1      29.864  -4.345  39.120  1.00  0.00     0.050 C 
ENDROOT
BRANCH   5  13
HETATM   13  C8  UNK     1      31.489  -4.024  36.559  1.00  0.00     0.084 C 
BRANCH  13  14
HETATM   14  C16 UNK     1      32.849  -4.651  36.468  1.00  0.00    -0.054 A 
HETATM   15  C18 UNK     1      33.271  -5.525  37.463  1.00  0.00     0.007 A 
HETATM   16  C20 UNK     1      34.536  -6.108  37.378  1.00  0.00     0.001 A 
HETATM   17  C22 UNK     1      35.370  -5.811  36.300  1.00  0.00     0.000 A 
HETATM   18  C21 UNK     1      34.939  -4.933  35.307  1.00  0.00     0.001 A 
HETATM   19  C19 UNK     1      33.675  -4.351  35.390  1.00  0.00     0.007 A 
ENDBRANCH  13  14
ENDBRANCH   5  13
BRANCH   7  20
HETATM   20  O1  UNK     1      25.929  -9.440  38.035  1.00  0.00    -0.351 OA
BRANCH  20  21
HETATM   21  C3  UNK     1      25.330  -9.801  36.789  1.00  0.00     0.176 C 
BRANCH  21  22
HETATM   22  C2  UNK     1      25.790 -11.203  36.413  1.00  0.00     0.030 C 
BRANCH  22  23
HETATM   23  C1  UNK     1      24.697 -12.054  35.747  1.00  0.00    -0.021 C 
HETATM   24  C9  UNK     1      24.677 -13.454  36.367  1.00  0.00     0.009 C 
HETATM   25  C10 UNK     1      23.312 -11.418  35.862  1.00  0.00     0.009 C 
ENDBRANCH  22  23
ENDBRANCH  21  22
ENDBRANCH  20  21
ENDBRANCH   7  20
TORSDOF 6
ENDMDL
MODEL 4
REMARK VINA RESULT:      -7.5      1.476      2.258
REMARK  6 active torsions:
REMARK  status: ('A' for Active; 'I' for Inactive)
REMARK    1  A    between atoms: C11_14  and  O1_1 
REMARK    2  A    between atoms: C3_6  and  O1_1 
REMARK    3  A    between atoms: C1_4  and  C2_5 
REMARK    4  A    between atoms: C2_5  and  C3_6 
REMARK    5  A    between atoms: C6_9  and  C8_11 
REMARK    6  A    between atoms: C16_19  and  C8_11 
ROOT
HETATM    1  O2  UNK     1      13.582   8.995   9.877  1.00  0.00    -0.274 OA
HETATM    2  O3  UNK     1      11.361   8.539   9.755  1.00  0.00    -0.259 OA
HETATM    3  C4  UNK     1      14.105   6.224   9.618  1.00  0.00    -0.036 A 
HETATM    4  C5  UNK     1      15.212   7.192   9.763  1.00  0.00     0.005 A 
HETATM    5  C6  UNK     1      12.829   6.666   9.646  1.00  0.00     0.029 A 
HETATM    6  C7  UNK     1      14.911   8.546   9.886  1.00  0.00     0.092 A 
HETATM    7  C11 UNK     1      17.233   9.148  10.050  1.00  0.00     0.071 A 
HETATM    8  C12 UNK     1      15.896   9.526  10.026  1.00  0.00     0.075 A 
HETATM    9  C13 UNK     1      16.568   6.834   9.796  1.00  0.00     0.017 A 
HETATM   10  C14 UNK     1      12.514   8.120   9.764  1.00  0.00     0.295 A 
HETATM   11  C15 UNK     1      17.570   7.802   9.936  1.00  0.00     0.038 A 
HETATM   12  C17 UNK     1      14.485   4.777   9.430  1.00  0.00     0.050 C 
ENDROOT
BRANCH   5  13
HETATM   13  C8  UNK     1      11.610   5.783   9.573  1.00  0.00     0.084 C 
BRANCH  13  14
HETATM   14  C16 UNK     1      10.895   5.913   8.260  1.00  0.00    -0.054 A 
HETATM   15  C18 UNK     1       9.509   6.035   8.241  1.00  0.00     0.007 A 
HETATM   16  C20 UNK     1       8.844   6.156   7.021  1.00  0.00     0.001 A 
HETATM   17  C22 UNK     1       9.568   6.152   5.828  1.00  0.00     0.000 A 
HETATM   18  C21 UNK     1      10.956   6.028   5.856  1.00  0.00     0.001 A 
HETATM   19  C19 UNK     1      11.622   5.908   7.075  1.00  0.00     0.007 A 
ENDBRANCH  13  14
ENDBRANCH   5  13
BRANCH   7  20
HETATM   20  O1  UNK     1      18.208  10.087  10.186  1.00  0.00    -0.351 OA
BRANCH  20  21
HETATM   21  C3  UNK     1      17.911  11.406   9.724  1.00  0.00     0.176 C 
BRANCH  21  22
HETATM   22  C2  UNK     1      18.744  11.687   8.480  1.00  0.00     0.030 C 
BRANCH  22  23
HETATM   23  C1  UNK     1      17.990  12.472   7.395  1.00  0.00    -0.021 C 
HETATM   24  C9  UNK     1      18.684  12.290   6.043  1.00  0.00     0.009 C 
HETATM   25  C10 UNK     1      16.524  12.051   7.284  1.00  0.00     0.009 C 
ENDBRANCH  22  23
ENDBRANCH  21  22
ENDBRANCH  20  21
ENDBRANCH   7  20
TORSDOF 6
ENDMDL
MODEL 5
REMARK VINA RESULT:      -7.4      1.308      2.264
REMARK  6 active torsions:
REMARK  status: ('A' for Active; 'I' for Inactive)
REMARK    1  A    between atoms: C11_14  and  O1_1 
REMARK    2  A    between atoms: C3_6  and  O1_1 
REMARK    3  A    between atoms: C1_4  and  C2_5 
REMARK    4  A    between atoms: C2_5  and  C3_6 
REMARK    5  A    between atoms: C6_9  and  C8_11 
REMARK    6  A    between atoms: C16_19  and  C8_11 
ROOT
HETATM    1  O2  UNK     1      15.919   6.513   9.799  1.00  0.00    -0.274 OA
HETATM    2  O3  UNK     1      14.820   4.528   9.753  1.00  0.00    -0.259 OA
HETATM    3  C4  UNK     1      13.415   7.834   9.755  1.00  0.00    -0.036 A 
HETATM    4  C5  UNK     1      14.676   8.604   9.782  1.00  0.00     0.005 A 
HETATM    5  C6  UNK     1      13.462   6.485   9.715  1.00  0.00     0.029 A 
HETATM    6  C7  UNK     1      15.885   7.916   9.805  1.00  0.00     0.092 A 
HETATM    7  C11 UNK     1      17.159   9.955   9.832  1.00  0.00     0.071 A 
HETATM    8  C12 UNK     1      17.121   8.566   9.833  1.00  0.00     0.075 A 
HETATM    9  C13 UNK     1      14.739  10.006   9.776  1.00  0.00     0.017 A 
HETATM   10  C14 UNK     1      14.762   5.753   9.753  1.00  0.00     0.295 A 
HETATM   11  C15 UNK     1      15.968  10.676   9.803  1.00  0.00     0.038 A 
HETATM   12  C17 UNK     1      12.132   8.625   9.789  1.00  0.00     0.050 C 
ENDROOT
BRANCH   5  13
HETATM   13  C8  UNK     1      12.259   5.583   9.620  1.00  0.00     0.084 C 
BRANCH  13  14
HETATM   14  C16 UNK     1      11.474   5.816   8.363  1.00  0.00    -0.054 A 
HETATM   15  C18 UNK     1      12.134   5.874   7.141  1.00  0.00     0.007 A 
HETATM   16  C20 UNK     1      11.405   6.090   5.972  1.00  0.00     0.001 A 
HETATM   17  C22 UNK     1      10.020   6.249   6.032  1.00  0.00     0.000 A 
HETATM   18  C21 UNK     1       9.365   6.190   7.262  1.00  0.00     0.001 A 
HETATM   19  C19 UNK     1      10.093   5.973   8.431  1.00  0.00     0.007 A 
ENDBRANCH  13  14
ENDBRANCH   5  13
BRANCH   7  20
HETATM   20  O1  UNK     1      18.352  10.608   9.858  1.00  0.00    -0.351 OA
BRANCH  20  21
HETATM   21  C3  UNK     1      18.323  12.025   9.689  1.00  0.00     0.176 C 
BRANCH  21  22
HETATM   22  C2  UNK     1      19.431  12.641  10.534  1.00  0.00     0.030 C 
BRANCH  22  23
HETATM   23  C1  UNK     1      20.717  11.800  10.576  1.00  0.00    -0.021 C 
HETATM   24  C9  UNK     1      21.603  12.143   9.376  1.00  0.00     0.009 C 
HETATM   25  C10 UNK     1      21.501  12.000  11.873  1.00  0.00     0.009 C 
ENDBRANCH  22  23
ENDBRANCH  21  22
ENDBRANCH  20  21
ENDBRANCH   7  20
TORSDOF 6
ENDMDL
MODEL 6
REMARK VINA RESULT:      -7.4     31.204     33.327
REMARK  6 active torsions:
REMARK  status: ('A' for Active; 'I' for Inactive)
REMARK    1  A    between atoms: C11_14  and  O1_1 
REMARK    2  A    between atoms: C3_6  and  O1_1 
REMARK    3  A    between atoms: C1_4  and  C2_5 
REMARK    4  A    between atoms: C2_5  and  C3_6 
REMARK    5  A    between atoms: C6_9  and  C8_11 
REMARK    6  A    between atoms: C16_19  and  C8_11 
ROOT
HETATM    1  O2  UNK     1      30.098  -8.492  33.951  1.00  0.00    -0.274 OA
HETATM    2  O3  UNK     1      28.570  -9.611  32.701  1.00  0.00    -0.259 OA
HETATM    3  C4  UNK     1      29.716  -6.231  32.289  1.00  0.00    -0.036 A 
HETATM    4  C5  UNK     1      30.676  -6.191  33.412  1.00  0.00     0.005 A 
HETATM    5  C6  UNK     1      29.041  -7.373  32.035  1.00  0.00     0.029 A 
HETATM    6  C7  UNK     1      30.833  -7.324  34.206  1.00  0.00     0.092 A 
HETATM    7  C11 UNK     1      32.482  -6.248  35.587  1.00  0.00     0.071 A 
HETATM    8  C12 UNK     1      31.718  -7.369  35.285  1.00  0.00     0.075 A 
HETATM    9  C13 UNK     1      31.463  -5.074  33.731  1.00  0.00     0.017 A 
HETATM   10  C14 UNK     1      29.203  -8.579  32.898  1.00  0.00     0.295 A 
HETATM   11  C15 UNK     1      32.355  -5.101  34.810  1.00  0.00     0.038 A 
HETATM   12  C17 UNK     1      29.541  -4.961  31.496  1.00  0.00     0.050 C 
ENDROOT
BRANCH   5  13
HETATM   13  C8  UNK     1      28.083  -7.570  30.888  1.00  0.00     0.084 C 
BRANCH  13  14
HETATM   14  C16 UNK     1      28.682  -8.390  29.784  1.00  0.00    -0.054 A 
HETATM   15  C18 UNK     1      27.955  -9.440  29.234  1.00  0.00     0.007 A 
HETATM   16  C20 UNK     1      28.511 -10.202  28.207  1.00  0.00     0.001 A 
HETATM   17  C22 UNK     1      29.793  -9.911  27.738  1.00  0.00     0.000 A 
HETATM   18  C21 UNK     1      30.516  -8.857  28.295  1.00  0.00     0.001 A 
HETATM   19  C19 UNK     1      29.960  -8.094  29.321  1.00  0.00     0.007 A 
ENDBRANCH  13  14
ENDBRANCH   5  13
BRANCH   7  20
HETATM   20  O1  UNK     1      33.349  -6.273  36.634  1.00  0.00    -0.351 OA
BRANCH  20  21
HETATM   21  C3  UNK     1      32.797  -6.489  37.933  1.00  0.00     0.176 C 
BRANCH  21  22
HETATM   22  C2  UNK     1      32.346  -5.150  38.502  1.00  0.00     0.030 C 
BRANCH  22  23
HETATM   23  C1  UNK     1      30.823  -5.030  38.668  1.00  0.00    -0.021 C 
HETATM   24  C9  UNK     1      30.270  -4.006  37.673  1.00  0.00     0.009 C 
HETATM   25  C10 UNK     1      30.109  -6.370  38.482  1.00  0.00     0.009 C 
ENDBRANCH  22  23
ENDBRANCH  21  22
ENDBRANCH  20  21
ENDBRANCH   7  20
TORSDOF 6
ENDMDL
MODEL 7
REMARK VINA RESULT:      -7.4     31.041     33.214
REMARK  6 active torsions:
REMARK  status: ('A' for Active; 'I' for Inactive)
REMARK    1  A    between atoms: C11_14  and  O1_1 
REMARK    2  A    between atoms: C3_6  and  O1_1 
REMARK    3  A    between atoms: C1_4  and  C2_5 
REMARK    4  A    between atoms: C2_5  and  C3_6 
REMARK    5  A    between atoms: C6_9  and  C8_11 
REMARK    6  A    between atoms: C16_19  and  C8_11 
ROOT
HETATM    1  O2  UNK     1      30.588  -5.190  32.659  1.00  0.00    -0.274 OA
HETATM    2  O3  UNK     1      29.482  -4.749  30.726  1.00  0.00    -0.259 OA
HETATM    3  C4  UNK     1      29.429  -7.773  32.664  1.00  0.00    -0.036 A 
HETATM    4  C5  UNK     1      30.339  -7.351  33.749  1.00  0.00     0.005 A 
HETATM    5  C6  UNK     1      29.121  -6.902  31.679  1.00  0.00     0.029 A 
HETATM    6  C7  UNK     1      30.889  -6.073  33.708  1.00  0.00     0.092 A 
HETATM    7  C11 UNK     1      32.090  -6.416  35.762  1.00  0.00     0.071 A 
HETATM    8  C12 UNK     1      31.757  -5.595  34.692  1.00  0.00     0.075 A 
HETATM    9  C13 UNK     1      30.684  -8.159  34.843  1.00  0.00     0.017 A 
HETATM   10  C14 UNK     1      29.725  -5.539  31.633  1.00  0.00     0.295 A 
HETATM   11  C15 UNK     1      31.553  -7.698  35.839  1.00  0.00     0.038 A 
HETATM   12  C17 UNK     1      28.906  -9.187  32.725  1.00  0.00     0.050 C 
ENDROOT
BRANCH   5  13
HETATM   13  C8  UNK     1      28.161  -7.181  30.551  1.00  0.00     0.084 C 
BRANCH  13  14
HETATM   14  C16 UNK     1      28.704  -8.188  29.581  1.00  0.00    -0.054 A 
HETATM   15  C18 UNK     1      29.992  -8.034  29.079  1.00  0.00     0.007 A 
HETATM   16  C20 UNK     1      30.498  -8.969  28.177  1.00  0.00     0.001 A 
HETATM   17  C22 UNK     1      29.712 -10.053  27.782  1.00  0.00     0.000 A 
HETATM   18  C21 UNK     1      28.422 -10.200  28.289  1.00  0.00     0.001 A 
HETATM   19  C19 UNK     1      27.916  -9.265  29.191  1.00  0.00     0.007 A 
ENDBRANCH  13  14
ENDBRANCH   5  13
BRANCH   7  20
HETATM   20  O1  UNK     1      32.934  -5.969  36.731  1.00  0.00    -0.351 OA
BRANCH  20  21
HETATM   21  C3  UNK     1      32.550  -4.787  37.434  1.00  0.00     0.176 C 
BRANCH  21  22
HETATM   22  C2  UNK     1      31.708  -5.186  38.639  1.00  0.00     0.030 C 
BRANCH  22  23
HETATM   23  C1  UNK     1      30.195  -5.028  38.416  1.00  0.00    -0.021 C 
HETATM   24  C9  UNK     1      29.498  -6.378  38.603  1.00  0.00     0.009 C 
HETATM   25  C10 UNK     1      29.574  -3.991  39.352  1.00  0.00     0.009 C 
ENDBRANCH  22  23
ENDBRANCH  21  22
ENDBRANCH  20  21
ENDBRANCH   7  20
TORSDOF 6
ENDMDL
MODEL 8
REMARK VINA RESULT:      -7.4      2.944      5.648
REMARK  6 active torsions:
REMARK  status: ('A' for Active; 'I' for Inactive)
REMARK    1  A    between atoms: C11_14  and  O1_1 
REMARK    2  A    between atoms: C3_6  and  O1_1 
REMARK    3  A    between atoms: C1_4  and  C2_5 
REMARK    4  A    between atoms: C2_5  and  C3_6 
REMARK    5  A    between atoms: C6_9  and  C8_11 
REMARK    6  A    between atoms: C16_19  and  C8_11 
ROOT
HETATM    1  O2  UNK     1      11.170   4.817  10.141  1.00  0.00    -0.274 OA
HETATM    2  O3  UNK     1       9.107   4.313  10.941  1.00  0.00    -0.259 OA
HETATM    3  C4  UNK     1       9.941   6.021   7.892  1.00  0.00    -0.036 A 
HETATM    4  C5  UNK     1      11.413   5.984   8.019  1.00  0.00     0.005 A 
HETATM    5  C6  UNK     1       9.178   5.441   8.844  1.00  0.00     0.029 A 
HETATM    6  C7  UNK     1      11.977   5.384   9.142  1.00  0.00     0.092 A 
HETATM    7  C11 UNK     1      14.213   5.842   8.385  1.00  0.00     0.071 A 
HETATM    8  C12 UNK     1      13.357   5.307   9.340  1.00  0.00     0.075 A 
HETATM    9  C13 UNK     1      12.296   6.511   7.066  1.00  0.00     0.017 A 
HETATM   10  C14 UNK     1       9.788   4.812  10.051  1.00  0.00     0.295 A 
HETATM   11  C15 UNK     1      13.683   6.444   7.247  1.00  0.00     0.038 A 
HETATM   12  C17 UNK     1       9.378   6.732   6.687  1.00  0.00     0.050 C 
ENDROOT
BRANCH   5  13
HETATM   13  C8  UNK     1       7.674   5.352   8.806  1.00  0.00     0.084 C 
BRANCH  13  14
HETATM   14  C16 UNK     1       7.026   6.271   9.799  1.00  0.00    -0.054 A 
HETATM   15  C18 UNK     1       7.499   7.571   9.942  1.00  0.00     0.007 A 
HETATM   16  C20 UNK     1       6.897   8.427  10.865  1.00  0.00     0.001 A 
HETATM   17  C22 UNK     1       5.828   7.976  11.639  1.00  0.00     0.000 A 
HETATM   18  C21 UNK     1       5.360   6.672  11.490  1.00  0.00     0.001 A 
HETATM   19  C19 UNK     1       5.961   5.816  10.568  1.00  0.00     0.007 A 
ENDBRANCH  13  14
ENDBRANCH   5  13
BRANCH   7  20
HETATM   20  O1  UNK     1      15.560   5.777   8.559  1.00  0.00    -0.351 OA
BRANCH  20  21
HETATM   21  C3  UNK     1      16.051   5.911   9.893  1.00  0.00     0.176 C 
BRANCH  21  22
HETATM   22  C2  UNK     1      17.099   7.017   9.920  1.00  0.00     0.030 C 
BRANCH  22  23
HETATM   23  C1  UNK     1      16.592   8.334  10.527  1.00  0.00    -0.021 C 
HETATM   24  C9  UNK     1      15.901   9.172   9.449  1.00  0.00     0.009 C 
HETATM   25  C10 UNK     1      15.635   8.106  11.698  1.00  0.00     0.009 C 
ENDBRANCH  22  23
ENDBRANCH  21  22
ENDBRANCH  20  21
ENDBRANCH   7  20
TORSDOF 6
ENDMDL
MODEL 9
REMARK VINA RESULT:      -7.4     29.306     31.472
REMARK  6 active torsions:
REMARK  status: ('A' for Active; 'I' for Inactive)
REMARK    1  A    between atoms: C11_14  and  O1_1 
REMARK    2  A    between atoms: C3_6  and  O1_1 
REMARK    3  A    between atoms: C1_4  and  C2_5 
REMARK    4  A    between atoms: C2_5  and  C3_6 
REMARK    5  A    between atoms: C6_9  and  C8_11 
REMARK    6  A    between atoms: C16_19  and  C8_11 
ROOT
HETATM    1  O2  UNK     1      20.402  -5.427  34.270  1.00  0.00    -0.274 OA
HETATM    2  O3  UNK     1      20.602  -7.586  33.601  1.00  0.00    -0.259 OA
HETATM    3  C4  UNK     1      19.858  -6.350  36.891  1.00  0.00    -0.036 A 
HETATM    4  C5  UNK     1      19.876  -4.904  36.587  1.00  0.00     0.005 A 
HETATM    5  C6  UNK     1      20.068  -7.239  35.897  1.00  0.00     0.029 A 
HETATM    6  C7  UNK     1      20.150  -4.492  35.286  1.00  0.00     0.092 A 
HETATM    7  C11 UNK     1      19.940  -2.169  35.872  1.00  0.00     0.071 A 
HETATM    8  C12 UNK     1      20.187  -3.146  34.915  1.00  0.00     0.075 A 
HETATM    9  C13 UNK     1      19.623  -3.900  37.535  1.00  0.00     0.017 A 
HETATM   10  C14 UNK     1      20.374  -6.791  34.507  1.00  0.00     0.295 A 
HETATM   11  C15 UNK     1      19.656  -2.546  37.181  1.00  0.00     0.038 A 
HETATM   12  C17 UNK     1      19.614  -6.742  38.327  1.00  0.00     0.050 C 
ENDROOT
BRANCH   5  13
HETATM   13  C8  UNK     1      20.013  -8.737  36.054  1.00  0.00     0.084 C 
BRANCH  13  14
HETATM   14  C16 UNK     1      21.381  -9.348  36.136  1.00  0.00    -0.054 A 
HETATM   15  C18 UNK     1      21.625 -10.574  35.526  1.00  0.00     0.007 A 
HETATM   16  C20 UNK     1      22.896 -11.142  35.601  1.00  0.00     0.001 A 
HETATM   17  C22 UNK     1      23.916 -10.482  36.287  1.00  0.00     0.000 A 
HETATM   18  C21 UNK     1      23.664  -9.254  36.896  1.00  0.00     0.001 A 
HETATM   19  C19 UNK     1      22.393  -8.685  36.821  1.00  0.00     0.007 A 
ENDBRANCH  13  14
ENDBRANCH   5  13
BRANCH   7  20
HETATM   20  O1  UNK     1      19.971  -0.854  35.530  1.00  0.00    -0.351 OA
BRANCH  20  21
HETATM   21  C3  UNK     1      18.716  -0.193  35.363  1.00  0.00     0.176 C 
BRANCH  21  22
HETATM   22  C2  UNK     1      18.757   1.133  36.112  1.00  0.00     0.030 C 
BRANCH  22  23
HETATM   23  C1  UNK     1      17.479   1.433  36.910  1.00  0.00    -0.021 C 
HETATM   24  C9  UNK     1      16.327   0.567  36.393  1.00  0.00     0.009 C 
HETATM   25  C10 UNK     1      17.663   1.206  38.411  1.00  0.00     0.009 C 
ENDBRANCH  22  23
ENDBRANCH  21  22
ENDBRANCH  20  21
ENDBRANCH   7  20
TORSDOF 6
ENDMDL
MODEL 10
REMARK VINA RESULT:      -7.3      1.971      2.864
REMARK  6 active torsions:
REMARK  status: ('A' for Active; 'I' for Inactive)
REMARK    1  A    between atoms: C11_14  and  O1_1 
REMARK    2  A    between atoms: C3_6  and  O1_1 
REMARK    3  A    between atoms: C1_4  and  C2_5 
REMARK    4  A    between atoms: C2_5  and  C3_6 
REMARK    5  A    between atoms: C6_9  and  C8_11 
REMARK    6  A    between atoms: C16_19  and  C8_11 
ROOT
HETATM    1  O2  UNK     1      13.619   9.199   9.625  1.00  0.00    -0.274 OA
HETATM    2  O3  UNK     1      11.389   8.808   9.452  1.00  0.00    -0.259 OA
HETATM    3  C4  UNK     1      14.051   6.401   9.613  1.00  0.00    -0.036 A 
HETATM    4  C5  UNK     1      15.186   7.341   9.722  1.00  0.00     0.005 A 
HETATM    5  C6  UNK     1      12.792   6.885   9.554  1.00  0.00     0.029 A 
HETATM    6  C7  UNK     1      14.930   8.709   9.722  1.00  0.00     0.092 A 
HETATM    7  C11 UNK     1      17.265   9.246   9.929  1.00  0.00     0.071 A 
HETATM    8  C12 UNK     1      15.944   9.664   9.821  1.00  0.00     0.075 A 
HETATM    9  C13 UNK     1      16.526   6.942   9.839  1.00  0.00     0.017 A 
HETATM   10  C14 UNK     1      12.525   8.353   9.541  1.00  0.00     0.295 A 
HETATM   11  C15 UNK     1      17.556   7.885   9.938  1.00  0.00     0.038 A 
HETATM   12  C17 UNK     1      14.385   4.931   9.559  1.00  0.00     0.050 C 
ENDROOT
BRANCH   5  13
HETATM   13  C8  UNK     1      11.545   6.040   9.505  1.00  0.00     0.084 C 
BRANCH  13  14
HETATM   14  C16 UNK     1      10.882   6.085   8.160  1.00  0.00    -0.054 A 
HETATM   15  C18 UNK     1       9.498   6.185   8.078  1.00  0.00     0.007 A 
HETATM   16  C20 UNK     1       8.881   6.227   6.828  1.00  0.00     0.001 A 
HETATM   17  C22 UNK     1       9.653   6.169   5.667  1.00  0.00     0.000 A 
HETATM   18  C21 UNK     1      11.040   6.069   5.757  1.00  0.00     0.001 A 
HETATM   19  C19 UNK     1      11.658   6.027   7.007  1.00  0.00     0.007 A 
ENDBRANCH  13  14
ENDBRANCH   5  13
BRANCH   7  20
HETATM   20  O1  UNK     1      18.266  10.160  10.026  1.00  0.00    -0.351 OA
BRANCH  20  21
HETATM   21  C3  UNK     1      17.888  11.534  10.120  1.00  0.00     0.176 C 
BRANCH  21  22
HETATM   22  C2  UNK     1      19.034  12.315  10.751  1.00  0.00     0.030 C 
BRANCH  22  23
HETATM   23  C1  UNK     1      20.420  11.712  10.474  1.00  0.00    -0.021 C 
HETATM   24  C9  UNK     1      20.963  12.243   9.145  1.00  0.00     0.009 C 
HETATM   25  C10 UNK     1      21.417  12.005  11.595  1.00  0.00     0.009 C 
ENDBRANCH  22  23
ENDBRANCH  21  22
ENDBRANCH  20  21
ENDBRANCH   7  20
TORSDOF 6
ENDMDL
