MODEL 1
REMARK VINA RESULT:      -8.3      0.000      0.000
REMARK  3 active torsions:
REMARK  status: ('A' for Active; 'I' for Inactive)
REMARK    1  A    between atoms: C9_14  and  O3_3 
REMARK    2  A    between atoms: C10_15  and  O4_4 
REMARK    3  A    between atoms: C1_6  and  C6_11 
ROOT
HETATM    1  O1  UNK     1      18.582   6.567  30.516  1.00  0.00    -0.376 OA
HETATM    2  C1  UNK     1      18.562   6.251  31.918  1.00  0.00     0.194 C 
HETATM    3  C2  UNK     1      18.469   4.759  32.193  1.00  0.00    -0.016 A 
HETATM    4  C3  UNK     1      18.680   3.835  31.154  1.00  0.00    -0.044 A 
HETATM    5  C4  UNK     1      18.944   4.324  29.755  1.00  0.00     0.065 C 
HETATM    6  C5  UNK     1      19.488   5.744  29.784  1.00  0.00     0.173 C 
HETATM    7  C7  UNK     1      18.244   4.278  33.493  1.00  0.00     0.050 A 
HETATM    8  C8  UNK     1      18.604   2.460  31.410  1.00  0.00     0.047 A 
HETATM    9  C9  UNK     1      18.183   2.905  33.743  1.00  0.00     0.102 A 
HETATM   10  C10 UNK     1      18.356   1.998  32.702  1.00  0.00     0.102 A 
ENDROOT
BRANCH   2  11
HETATM   11  C6  UNK     1      17.421   7.024  32.498  1.00  0.00     0.048 A 
HETATM   12  C11 UNK     1      17.717   8.280  33.235  1.00  0.00     0.196 A 
HETATM   13  O5  UNK     1      18.859   8.697  33.377  1.00  0.00    -0.287 OA
HETATM   14  C13 UNK     1      16.556   9.002  33.788  1.00  0.00     0.049 A 
HETATM   15  C14 UNK     1      15.278   8.480  33.594  1.00  0.00     0.089 A 
HETATM   16  C15 UNK     1      16.730  10.194  34.497  1.00  0.00     0.018 A 
HETATM   17  O2  UNK     1      15.049   7.314  32.906  1.00  0.00    -0.321 OA
HETATM   18  C16 UNK     1      14.165   9.147  34.109  1.00  0.00     0.038 A 
HETATM   19  C12 UNK     1      16.139   6.652  32.397  1.00  0.00     0.156 A 
HETATM   20  C18 UNK     1      14.336  10.336  34.817  1.00  0.00     0.003 A 
HETATM   21  C17 UNK     1      15.616  10.857  35.010  1.00  0.00     0.001 A 
ENDBRANCH   2  11
BRANCH   9  22
HETATM   22  O3  UNK     1      17.956   2.467  35.013  1.00  0.00    -0.353 OA
HETATM   23  C19 UNK     1      19.100   2.156  35.806  1.00  0.00     0.210 C 
ENDBRANCH   9  22
BRANCH  10  24
HETATM   24  O4  UNK     1      18.292   0.657  32.933  1.00  0.00    -0.353 OA
HETATM   25  C20 UNK     1      19.033  -0.187  32.055  1.00  0.00     0.210 C 
ENDBRANCH  10  24
TORSDOF 3
ENDMDL
MODEL 2
REMARK VINA RESULT:      -8.2     22.700     25.325
REMARK  3 active torsions:
REMARK  status: ('A' for Active; 'I' for Inactive)
REMARK    1  A    between atoms: C9_14  and  O3_3 
REMARK    2  A    between atoms: C10_15  and  O4_4 
REMARK    3  A    between atoms: C1_6  and  C6_11 
ROOT
HETATM    1  O1  UNK     1      15.009   6.132   9.488  1.00  0.00    -0.376 OA
HETATM    2  C1  UNK     1      14.620   7.248   8.671  1.00  0.00     0.194 C 
HETATM    3  C2  UNK     1      15.151   8.577   9.184  1.00  0.00    -0.016 A 
HETATM    4  C3  UNK     1      16.145   8.604  10.179  1.00  0.00    -0.044 A 
HETATM    5  C4  UNK     1      16.645   7.317  10.777  1.00  0.00     0.065 C 
HETATM    6  C5  UNK     1      16.395   6.158   9.824  1.00  0.00     0.173 C 
HETATM    7  C7  UNK     1      14.715   9.791   8.628  1.00  0.00     0.050 A 
HETATM    8  C8  UNK     1      16.640   9.829  10.644  1.00  0.00     0.047 A 
HETATM    9  C9  UNK     1      15.223  11.008   9.088  1.00  0.00     0.102 A 
HETATM   10  C10 UNK     1      16.180  11.027  10.098  1.00  0.00     0.102 A 
ENDROOT
BRANCH   2  11
HETATM   11  C6  UNK     1      13.128   7.204   8.597  1.00  0.00     0.048 A 
HETATM   12  C11 UNK     1      12.491   6.867   7.299  1.00  0.00     0.196 A 
HETATM   13  O5  UNK     1      13.148   6.624   6.295  1.00  0.00    -0.287 OA
HETATM   14  C13 UNK     1      11.017   6.839   7.281  1.00  0.00     0.049 A 
HETATM   15  C14 UNK     1      10.319   7.125   8.454  1.00  0.00     0.089 A 
HETATM   16  C15 UNK     1      10.324   6.532   6.107  1.00  0.00     0.018 A 
HETATM   17  O2  UNK     1      10.948   7.432   9.635  1.00  0.00    -0.321 OA
HETATM   18  C16 UNK     1       8.923   7.104   8.461  1.00  0.00     0.038 A 
HETATM   19  C12 UNK     1      12.321   7.454   9.637  1.00  0.00     0.156 A 
HETATM   20  C18 UNK     1       8.230   6.798   7.290  1.00  0.00     0.003 A 
HETATM   21  C17 UNK     1       8.929   6.513   6.117  1.00  0.00     0.001 A 
ENDBRANCH   2  11
BRANCH   9  22
HETATM   22  O3  UNK     1      14.776  12.170   8.536  1.00  0.00    -0.353 OA
HETATM   23  C19 UNK     1      15.475  12.655   7.390  1.00  0.00     0.210 C 
ENDBRANCH   9  22
BRANCH  10  24
HETATM   24  O4  UNK     1      16.678  12.208  10.559  1.00  0.00    -0.353 OA
HETATM   25  C20 UNK     1      18.077  12.259  10.830  1.00  0.00     0.210 C 
ENDBRANCH  10  24
TORSDOF 3
ENDMDL
MODEL 3
REMARK VINA RESULT:      -8.0     22.760     24.932
REMARK  3 active torsions:
REMARK  status: ('A' for Active; 'I' for Inactive)
REMARK    1  A    between atoms: C9_14  and  O3_3 
REMARK    2  A    between atoms: C10_15  and  O4_4 
REMARK    3  A    between atoms: C1_6  and  C6_11 
ROOT
HETATM    1  O1  UNK     1       8.940   6.204   6.796  1.00  0.00    -0.376 OA
HETATM    2  C1  UNK     1       9.308   6.920   7.987  1.00  0.00     0.194 C 
HETATM    3  C2  UNK     1      10.799   6.863   8.282  1.00  0.00    -0.016 A 
HETATM    4  C3  UNK     1      11.694   6.395   7.303  1.00  0.00    -0.044 A 
HETATM    5  C4  UNK     1      11.172   5.900   5.981  1.00  0.00     0.065 C 
HETATM    6  C5  UNK     1       9.801   6.493   5.697  1.00  0.00     0.173 C 
HETATM    7  C7  UNK     1      11.312   7.338   9.500  1.00  0.00     0.050 A 
HETATM    8  C8  UNK     1      13.069   6.352   7.572  1.00  0.00     0.047 A 
HETATM    9  C9  UNK     1      12.684   7.304   9.755  1.00  0.00     0.102 A 
HETATM   10  C10 UNK     1      13.560   6.806   8.795  1.00  0.00     0.102 A 
ENDROOT
BRANCH   2  11
HETATM   11  C6  UNK     1       8.473   6.348   9.087  1.00  0.00     0.048 A 
HETATM   12  C11 UNK     1       7.779   7.282  10.010  1.00  0.00     0.196 A 
HETATM   13  O5  UNK     1       7.870   8.497   9.896  1.00  0.00    -0.287 OA
HETATM   14  C13 UNK     1       6.969   6.665  11.078  1.00  0.00     0.049 A 
HETATM   15  C14 UNK     1       6.902   5.275  11.160  1.00  0.00     0.089 A 
HETATM   16  C15 UNK     1       6.279   7.459  11.997  1.00  0.00     0.018 A 
HETATM   17  O2  UNK     1       7.560   4.447  10.285  1.00  0.00    -0.321 OA
HETATM   18  C16 UNK     1       6.142   4.670  12.162  1.00  0.00     0.038 A 
HETATM   19  C12 UNK     1       8.310   5.035   9.296  1.00  0.00     0.156 A 
HETATM   20  C18 UNK     1       5.452   5.460  13.080  1.00  0.00     0.003 A 
HETATM   21  C17 UNK     1       5.520   6.851  12.997  1.00  0.00     0.001 A 
ENDBRANCH   2  11
BRANCH   9  22
HETATM   22  O3  UNK     1      13.153   7.764  10.948  1.00  0.00    -0.353 OA
HETATM   23  C19 UNK     1      13.067   9.170  11.180  1.00  0.00     0.210 C 
ENDBRANCH   9  22
BRANCH  10  24
HETATM   24  O4  UNK     1      14.901   6.762   9.036  1.00  0.00    -0.353 OA
HETATM   25  C20 UNK     1      15.436   5.523   9.496  1.00  0.00     0.210 C 
ENDBRANCH  10  24
TORSDOF 3
ENDMDL
MODEL 4
REMARK VINA RESULT:      -7.7     23.271     25.629
REMARK  3 active torsions:
REMARK  status: ('A' for Active; 'I' for Inactive)
REMARK    1  A    between atoms: C9_14  and  O3_3 
REMARK    2  A    between atoms: C10_15  and  O4_4 
REMARK    3  A    between atoms: C1_6  and  C6_11 
ROOT
HETATM    1  O1  UNK     1       6.439   7.613  10.587  1.00  0.00    -0.376 OA
HETATM    2  C1  UNK     1       6.398   6.315   9.971  1.00  0.00     0.194 C 
HETATM    3  C2  UNK     1       5.853   5.234  10.890  1.00  0.00    -0.016 A 
HETATM    4  C3  UNK     1       5.207   5.587  12.088  1.00  0.00    -0.044 A 
HETATM    5  C4  UNK     1       5.103   7.033  12.489  1.00  0.00     0.065 C 
HETATM    6  C5  UNK     1       5.228   7.932  11.268  1.00  0.00     0.173 C 
HETATM    7  C7  UNK     1       5.919   3.878  10.528  1.00  0.00     0.050 A 
HETATM    8  C8  UNK     1       4.696   4.590  12.930  1.00  0.00     0.047 A 
HETATM    9  C9  UNK     1       5.396   2.892  11.366  1.00  0.00     0.102 A 
HETATM   10  C10 UNK     1       4.791   3.247  12.569  1.00  0.00     0.102 A 
ENDROOT
BRANCH   2  11
HETATM   11  C6  UNK     1       7.791   6.037   9.503  1.00  0.00     0.048 A 
HETATM   12  C11 UNK     1       8.191   6.498   8.149  1.00  0.00     0.196 A 
HETATM   13  O5  UNK     1       7.419   7.097   7.412  1.00  0.00    -0.287 OA
HETATM   14  C13 UNK     1       9.574   6.197   7.737  1.00  0.00     0.049 A 
HETATM   15  C14 UNK     1      10.410   5.511   8.619  1.00  0.00     0.089 A 
HETATM   16  C15 UNK     1      10.046   6.589   6.482  1.00  0.00     0.018 A 
HETATM   17  O2  UNK     1       9.999   5.102   9.863  1.00  0.00    -0.321 OA
HETATM   18  C16 UNK     1      11.723   5.215   8.251  1.00  0.00     0.038 A 
HETATM   19  C12 UNK     1       8.708   5.390  10.233  1.00  0.00     0.156 A 
HETATM   20  C18 UNK     1      12.195   5.607   6.998  1.00  0.00     0.003 A 
HETATM   21  C17 UNK     1      11.359   6.291   6.117  1.00  0.00     0.001 A 
ENDBRANCH   2  11
BRANCH   9  22
HETATM   22  O3  UNK     1       5.482   1.584  10.994  1.00  0.00    -0.353 OA
HETATM   23  C19 UNK     1       5.116   1.267   9.652  1.00  0.00     0.210 C 
ENDBRANCH   9  22
BRANCH  10  24
HETATM   24  O4  UNK     1       4.283   2.292  13.397  1.00  0.00    -0.353 OA
HETATM   25  C20 UNK     1       4.910   2.138  14.669  1.00  0.00     0.210 C 
ENDBRANCH  10  24
TORSDOF 3
ENDMDL
MODEL 5
REMARK VINA RESULT:      -7.6     16.816     18.495
REMARK  3 active torsions:
REMARK  status: ('A' for Active; 'I' for Inactive)
REMARK    1  A    between atoms: C9_14  and  O3_3 
REMARK    2  A    between atoms: C10_15  and  O4_4 
REMARK    3  A    between atoms: C1_6  and  C6_11 
ROOT
HETATM    1  O1  UNK     1      30.920  -5.804  35.380  1.00  0.00    -0.376 OA
HETATM    2  C1  UNK     1      29.544  -6.172  35.191  1.00  0.00     0.194 C 
HETATM    3  C2  UNK     1      28.930  -6.839  36.412  1.00  0.00    -0.016 A 
HETATM    4  C3  UNK     1      29.602  -6.803  37.647  1.00  0.00    -0.044 A 
HETATM    5  C4  UNK     1      30.954  -6.150  37.750  1.00  0.00     0.065 C 
HETATM    6  C5  UNK     1      31.144  -5.146  36.624  1.00  0.00     0.173 C 
HETATM    7  C7  UNK     1      27.661  -7.437  36.345  1.00  0.00     0.050 A 
HETATM    8  C8  UNK     1      29.031  -7.411  38.774  1.00  0.00     0.047 A 
HETATM    9  C9  UNK     1      27.094  -8.029  37.476  1.00  0.00     0.102 A 
HETATM   10  C10 UNK     1      27.781  -8.021  38.687  1.00  0.00     0.102 A 
ENDROOT
BRANCH   2  11
HETATM   11  C6  UNK     1      29.511  -7.038  33.973  1.00  0.00     0.048 A 
HETATM   12  C11 UNK     1      28.424  -6.830  32.983  1.00  0.00     0.196 A 
HETATM   13  O5  UNK     1      27.562  -5.975  33.133  1.00  0.00    -0.287 OA
HETATM   14  C13 UNK     1      28.439  -7.712  31.801  1.00  0.00     0.049 A 
HETATM   15  C14 UNK     1      29.446  -8.669  31.681  1.00  0.00     0.089 A 
HETATM   16  C15 UNK     1      27.459  -7.595  30.812  1.00  0.00     0.018 A 
HETATM   17  O2  UNK     1      30.433  -8.828  32.622  1.00  0.00    -0.321 OA
HETATM   18  C16 UNK     1      29.480  -9.514  30.571  1.00  0.00     0.038 A 
HETATM   19  C12 UNK     1      30.407  -8.000  33.717  1.00  0.00     0.156 A 
HETATM   20  C18 UNK     1      28.502  -9.399  29.583  1.00  0.00     0.003 A 
HETATM   21  C17 UNK     1      27.495  -8.442  29.704  1.00  0.00     0.001 A 
ENDBRANCH   2  11
BRANCH   9  22
HETATM   22  O3  UNK     1      25.865  -8.608  37.381  1.00  0.00    -0.353 OA
HETATM   23  C19 UNK     1      25.803  -9.904  36.787  1.00  0.00     0.210 C 
ENDBRANCH   9  22
BRANCH  10  24
HETATM   24  O4  UNK     1      27.240  -8.601  39.794  1.00  0.00    -0.353 OA
HETATM   25  C20 UNK     1      27.662  -9.927  40.103  1.00  0.00     0.210 C 
ENDBRANCH  10  24
TORSDOF 3
ENDMDL
MODEL 6
REMARK VINA RESULT:      -7.6     17.256     20.210
REMARK  3 active torsions:
REMARK  status: ('A' for Active; 'I' for Inactive)
REMARK    1  A    between atoms: C9_14  and  O3_3 
REMARK    2  A    between atoms: C10_15  and  O4_4 
REMARK    3  A    between atoms: C1_6  and  C6_11 
ROOT
HETATM    1  O1  UNK     1      31.599  -4.017  37.195  1.00  0.00    -0.376 OA
HETATM    2  C1  UNK     1      31.409  -5.129  36.304  1.00  0.00     0.194 C 
HETATM    3  C2  UNK     1      30.531  -6.223  36.891  1.00  0.00    -0.016 A 
HETATM    4  C3  UNK     1      29.785  -5.978  38.058  1.00  0.00    -0.044 A 
HETATM    5  C4  UNK     1      29.896  -4.650  38.757  1.00  0.00     0.065 C 
HETATM    6  C5  UNK     1      30.379  -3.581  37.790  1.00  0.00     0.173 C 
HETATM    7  C7  UNK     1      30.395  -7.462  36.245  1.00  0.00     0.050 A 
HETATM    8  C8  UNK     1      28.969  -6.984  38.593  1.00  0.00     0.047 A 
HETATM    9  C9  UNK     1      29.569  -8.455  36.777  1.00  0.00     0.102 A 
HETATM   10  C10 UNK     1      28.862  -8.218  37.953  1.00  0.00     0.102 A 
ENDROOT
BRANCH   2  11
HETATM   11  C6  UNK     1      32.779  -5.608  35.946  1.00  0.00     0.048 A 
HETATM   12  C11 UNK     1      33.066  -5.944  34.528  1.00  0.00     0.196 A 
HETATM   13  O5  UNK     1      32.219  -5.838  33.650  1.00  0.00    -0.287 OA
HETATM   14  C13 UNK     1      34.432  -6.413  34.230  1.00  0.00     0.049 A 
HETATM   15  C14 UNK     1      35.356  -6.514  35.270  1.00  0.00     0.089 A 
HETATM   16  C15 UNK     1      34.800  -6.753  32.925  1.00  0.00     0.018 A 
HETATM   17  O2  UNK     1      35.049  -6.193  36.568  1.00  0.00    -0.321 OA
HETATM   18  C16 UNK     1      36.654  -6.956  35.011  1.00  0.00     0.038 A 
HETATM   19  C12 UNK     1      33.773  -5.758  36.831  1.00  0.00     0.156 A 
HETATM   20  C18 UNK     1      37.023  -7.296  33.710  1.00  0.00     0.003 A 
HETATM   21  C17 UNK     1      36.098  -7.195  32.670  1.00  0.00     0.001 A 
ENDBRANCH   2  11
BRANCH   9  22
HETATM   22  O3  UNK     1      29.463  -9.651  36.135  1.00  0.00    -0.353 OA
HETATM   23  C19 UNK     1      28.697  -9.674  34.931  1.00  0.00     0.210 C 
ENDBRANCH   9  22
BRANCH  10  24
HETATM   24  O4  UNK     1      28.059  -9.181  38.484  1.00  0.00    -0.353 OA
HETATM   25  C20 UNK     1      27.609  -8.983  39.823  1.00  0.00     0.210 C 
ENDBRANCH  10  24
TORSDOF 3
ENDMDL
MODEL 7
REMARK VINA RESULT:      -7.4     17.384     20.239
REMARK  3 active torsions:
REMARK  status: ('A' for Active; 'I' for Inactive)
REMARK    1  A    between atoms: C9_14  and  O3_3 
REMARK    2  A    between atoms: C10_15  and  O4_4 
REMARK    3  A    between atoms: C1_6  and  C6_11 
ROOT
HETATM    1  O1  UNK     1      35.557  -6.718  35.618  1.00  0.00    -0.376 OA
HETATM    2  C1  UNK     1      34.279  -7.232  35.206  1.00  0.00     0.194 C 
HETATM    3  C2  UNK     1      34.112  -7.279  33.696  1.00  0.00    -0.016 A 
HETATM    4  C3  UNK     1      35.228  -7.102  32.857  1.00  0.00    -0.044 A 
HETATM    5  C4  UNK     1      36.579  -6.812  33.453  1.00  0.00     0.065 C 
HETATM    6  C5  UNK     1      36.638  -7.300  34.893  1.00  0.00     0.173 C 
HETATM    7  C7  UNK     1      32.866  -7.568  33.117  1.00  0.00     0.050 A 
HETATM    8  C8  UNK     1      35.074  -7.155  31.465  1.00  0.00     0.047 A 
HETATM    9  C9  UNK     1      32.724  -7.632  31.729  1.00  0.00     0.102 A 
HETATM   10  C10 UNK     1      33.825  -7.419  30.904  1.00  0.00     0.102 A 
ENDROOT
BRANCH   2  11
HETATM   11  C6  UNK     1      33.255  -6.378  35.881  1.00  0.00     0.048 A 
HETATM   12  C11 UNK     1      32.280  -7.026  36.795  1.00  0.00     0.196 A 
HETATM   13  O5  UNK     1      32.292  -8.231  37.010  1.00  0.00    -0.287 OA
HETATM   14  C13 UNK     1      31.291  -6.138  37.433  1.00  0.00     0.049 A 
HETATM   15  C14 UNK     1      31.324  -4.773  37.151  1.00  0.00     0.089 A 
HETATM   16  C15 UNK     1      30.331  -6.653  38.309  1.00  0.00     0.018 A 
HETATM   17  O2  UNK     1      32.243  -4.214  36.299  1.00  0.00    -0.321 OA
HETATM   18  C16 UNK     1      30.397  -3.914  37.743  1.00  0.00     0.038 A 
HETATM   19  C12 UNK     1      33.158  -5.052  35.712  1.00  0.00     0.156 A 
HETATM   20  C18 UNK     1      29.439  -4.426  38.618  1.00  0.00     0.003 A 
HETATM   21  C17 UNK     1      29.406  -5.791  38.899  1.00  0.00     0.001 A 
ENDBRANCH   2  11
BRANCH   9  22
HETATM   22  O3  UNK     1      31.502  -7.906  31.194  1.00  0.00    -0.353 OA
HETATM   23  C19 UNK     1      30.561  -6.834  31.146  1.00  0.00     0.210 C 
ENDBRANCH   9  22
BRANCH  10  24
HETATM   24  O4  UNK     1      33.698  -7.473  29.549  1.00  0.00    -0.353 OA
HETATM   25  C20 UNK     1      34.901  -7.452  28.784  1.00  0.00     0.210 C 
ENDBRANCH  10  24
TORSDOF 3
ENDMDL
MODEL 8
REMARK VINA RESULT:      -7.3     16.021     19.361
REMARK  3 active torsions:
REMARK  status: ('A' for Active; 'I' for Inactive)
REMARK    1  A    between atoms: C9_14  and  O3_3 
REMARK    2  A    between atoms: C10_15  and  O4_4 
REMARK    3  A    between atoms: C1_6  and  C6_11 
ROOT
HETATM    1  O1  UNK     1      28.455  -6.200  33.426  1.00  0.00    -0.376 OA
HETATM    2  C1  UNK     1      29.796  -6.029  32.939  1.00  0.00     0.194 C 
HETATM    3  C2  UNK     1      30.045  -6.731  31.613  1.00  0.00    -0.016 A 
HETATM    4  C3  UNK     1      28.963  -7.225  30.863  1.00  0.00    -0.044 A 
HETATM    5  C4  UNK     1      27.561  -7.107  31.397  1.00  0.00     0.065 C 
HETATM    6  C5  UNK     1      27.475  -5.980  32.415  1.00  0.00     0.173 C 
HETATM    7  C7  UNK     1      31.342  -6.835  31.084  1.00  0.00     0.050 A 
HETATM    8  C8  UNK     1      29.192  -7.864  29.637  1.00  0.00     0.047 A 
HETATM    9  C9  UNK     1      31.561  -7.461  29.856  1.00  0.00     0.102 A 
HETATM   10  C10 UNK     1      30.488  -7.980  29.136  1.00  0.00     0.102 A 
ENDROOT
BRANCH   2  11
HETATM   11  C6  UNK     1      30.697  -6.508  34.032  1.00  0.00     0.048 A 
HETATM   12  C11 UNK     1      31.751  -5.591  34.536  1.00  0.00     0.196 A 
HETATM   13  O5  UNK     1      31.901  -4.463  34.087  1.00  0.00    -0.287 OA
HETATM   14  C13 UNK     1      32.612  -6.114  35.613  1.00  0.00     0.049 A 
HETATM   15  C14 UNK     1      32.395  -7.408  36.087  1.00  0.00     0.089 A 
HETATM   16  C15 UNK     1      33.633  -5.328  36.154  1.00  0.00     0.018 A 
HETATM   17  O2  UNK     1      31.407  -8.223  35.592  1.00  0.00    -0.321 OA
HETATM   18  C16 UNK     1      33.197  -7.923  37.106  1.00  0.00     0.038 A 
HETATM   19  C12 UNK     1      30.613  -7.723  34.589  1.00  0.00     0.156 A 
HETATM   20  C18 UNK     1      34.216  -7.141  37.647  1.00  0.00     0.003 A 
HETATM   21  C17 UNK     1      34.433  -5.847  37.172  1.00  0.00     0.001 A 
ENDBRANCH   2  11
BRANCH   9  22
HETATM   22  O3  UNK     1      32.830  -7.555  29.370  1.00  0.00    -0.353 OA
HETATM   23  C19 UNK     1      33.688  -8.517  29.982  1.00  0.00     0.210 C 
ENDBRANCH   9  22
BRANCH  10  24
HETATM   24  O4  UNK     1      30.690  -8.599  27.939  1.00  0.00    -0.353 OA
HETATM   25  C20 UNK     1      30.217  -9.938  27.815  1.00  0.00     0.210 C 
ENDBRANCH  10  24
TORSDOF 3
ENDMDL
MODEL 9
REMARK VINA RESULT:      -7.3     18.545     22.173
REMARK  3 active torsions:
REMARK  status: ('A' for Active; 'I' for Inactive)
REMARK    1  A    between atoms: C9_14  and  O3_3 
REMARK    2  A    between atoms: C10_15  and  O4_4 
REMARK    3  A    between atoms: C1_6  and  C6_11 
ROOT
HETATM    1  O1  UNK     1      18.673  -6.077  15.465  1.00  0.00    -0.376 OA
HETATM    2  C1  UNK     1      19.313  -4.876  15.003  1.00  0.00     0.194 C 
HETATM    3  C2  UNK     1      19.386  -4.783  13.487  1.00  0.00    -0.016 A 
HETATM    4  C3  UNK     1      18.632  -5.663  12.689  1.00  0.00    -0.044 A 
HETATM    5  C4  UNK     1      17.795  -6.733  13.335  1.00  0.00     0.065 C 
HETATM    6  C5  UNK     1      17.460  -6.351  14.768  1.00  0.00     0.173 C 
HETATM    7  C7  UNK     1      20.143  -3.779  12.862  1.00  0.00     0.050 A 
HETATM    8  C8  UNK     1      18.693  -5.570  11.292  1.00  0.00     0.047 A 
HETATM    9  C9  UNK     1      20.188  -3.685  11.469  1.00  0.00     0.102 A 
HETATM   10  C10 UNK     1      19.468  -4.583  10.686  1.00  0.00     0.102 A 
ENDROOT
BRANCH   2  11
HETATM   11  C6  UNK     1      20.658  -4.848  15.655  1.00  0.00     0.048 A 
HETATM   12  C11 UNK     1      21.028  -3.662  16.469  1.00  0.00     0.196 A 
HETATM   13  O5  UNK     1      20.268  -2.715  16.621  1.00  0.00    -0.287 OA
HETATM   14  C13 UNK     1      22.366  -3.686  17.089  1.00  0.00     0.049 A 
HETATM   15  C14 UNK     1      23.190  -4.792  16.881  1.00  0.00     0.089 A 
HETATM   16  C15 UNK     1      22.807  -2.617  17.873  1.00  0.00     0.018 A 
HETATM   17  O2  UNK     1      22.808  -5.869  16.121  1.00  0.00    -0.321 OA
HETATM   18  C16 UNK     1      24.460  -4.836  17.458  1.00  0.00     0.038 A 
HETATM   19  C12 UNK     1      21.559  -5.833  15.549  1.00  0.00     0.156 A 
HETATM   20  C18 UNK     1      24.902  -3.770  18.241  1.00  0.00     0.003 A 
HETATM   21  C17 UNK     1      24.078  -2.664  18.447  1.00  0.00     0.001 A 
ENDBRANCH   2  11
BRANCH   9  22
HETATM   22  O3  UNK     1      20.938  -2.707  10.889  1.00  0.00    -0.353 OA
HETATM   23  C19 UNK     1      20.962  -1.437  11.540  1.00  0.00     0.210 C 
ENDBRANCH   9  22
BRANCH  10  24
HETATM   24  O4  UNK     1      19.509  -4.504   9.326  1.00  0.00    -0.353 OA
HETATM   25  C20 UNK     1      18.762  -5.477   8.599  1.00  0.00     0.210 C 
ENDBRANCH  10  24
TORSDOF 3
ENDMDL
MODEL 10
REMARK VINA RESULT:      -7.2     17.181     19.226
REMARK  3 active torsions:
REMARK  status: ('A' for Active; 'I' for Inactive)
REMARK    1  A    between atoms: C9_14  and  O3_3 
REMARK    2  A    between atoms: C10_15  and  O4_4 
REMARK    3  A    between atoms: C1_6  and  C6_11 
ROOT
HETATM    1  O1  UNK     1      34.174  -7.301  34.555  1.00  0.00    -0.376 OA
HETATM    2  C1  UNK     1      32.771  -7.593  34.443  1.00  0.00     0.194 C 
HETATM    3  C2  UNK     1      32.258  -7.519  33.015  1.00  0.00    -0.016 A 
HETATM    4  C3  UNK     1      33.164  -7.456  31.941  1.00  0.00    -0.044 A 
HETATM    5  C4  UNK     1      34.644  -7.409  32.208  1.00  0.00     0.065 C 
HETATM    6  C5  UNK     1      34.954  -7.989  33.580  1.00  0.00     0.173 C 
HETATM    7  C7  UNK     1      30.882  -7.582  32.739  1.00  0.00     0.050 A 
HETATM    8  C8  UNK     1      32.689  -7.398  30.624  1.00  0.00     0.047 A 
HETATM    9  C9  UNK     1      30.418  -7.537  31.422  1.00  0.00     0.102 A 
HETATM   10  C10 UNK     1      31.320  -7.438  30.367  1.00  0.00     0.102 A 
ENDROOT
BRANCH   2  11
HETATM   11  C6  UNK     1      32.078  -6.640  35.364  1.00  0.00     0.048 A 
HETATM   12  C11 UNK     1      31.163  -7.190  36.396  1.00  0.00     0.196 A 
HETATM   13  O5  UNK     1      30.963  -8.392  36.515  1.00  0.00    -0.287 OA
HETATM   14  C13 UNK     1      30.504  -6.208  37.277  1.00  0.00     0.049 A 
HETATM   15  C14 UNK     1      30.769  -4.850  37.096  1.00  0.00     0.089 A 
HETATM   16  C15 UNK     1      29.625  -6.626  38.279  1.00  0.00     0.018 A 
HETATM   17  O2  UNK     1      31.623  -4.384  36.128  1.00  0.00    -0.321 OA
HETATM   18  C16 UNK     1      30.157  -3.903  37.918  1.00  0.00     0.038 A 
HETATM   19  C12 UNK     1      32.230  -5.311  35.315  1.00  0.00     0.156 A 
HETATM   20  C18 UNK     1      29.279  -4.318  38.919  1.00  0.00     0.003 A 
HETATM   21  C17 UNK     1      29.014  -5.676  39.098  1.00  0.00     0.001 A 
ENDBRANCH   2  11
BRANCH   9  22
HETATM   22  O3  UNK     1      29.078  -7.592  31.185  1.00  0.00    -0.353 OA
HETATM   23  C19 UNK     1      28.462  -8.878  31.243  1.00  0.00     0.210 C 
ENDBRANCH   9  22
BRANCH  10  24
HETATM   24  O4  UNK     1      30.878  -7.387  29.080  1.00  0.00    -0.353 OA
HETATM   25  C20 UNK     1      31.051  -8.560  28.288  1.00  0.00     0.210 C 
ENDBRANCH  10  24
TORSDOF 3
ENDMDL
