MODEL 1
REMARK VINA RESULT:      -8.6      0.000      0.000
REMARK  5 active torsions:
REMARK  status: ('A' for Active; 'I' for Inactive)
REMARK    1  A    between atoms: C9_15  and  O3_3 
REMARK    2  A    between atoms: C15_21  and  O4_4 
REMARK    3  A    between atoms: C11_17  and  O5_5 
REMARK    4  A    between atoms: C13_19  and  O6_6 
REMARK    5  A    between atoms: C1_7  and  C3_9 
ROOT
HETATM    1  O1  UNK     1      19.363  -1.130  17.645  1.00  0.00    -0.340 OA
HETATM    2  O2  UNK     1      19.095   2.324  15.448  1.00  0.00    -0.292 OA
HETATM    3  C1  UNK     1      18.786  -1.139  16.330  1.00  0.00     0.169 C 
HETATM    4  C2  UNK     1      19.407  -0.054  15.452  1.00  0.00     0.121 C 
HETATM    5  C4  UNK     1      19.143   1.298  17.573  1.00  0.00     0.076 A 
HETATM    6  C5  UNK     1      19.182   1.288  16.097  1.00  0.00     0.167 C 
HETATM    7  C6  UNK     1      19.258   0.089  18.265  1.00  0.00     0.089 A 
HETATM    8  C9  UNK     1      19.034   2.503  18.272  1.00  0.00     0.085 A 
HETATM    9  C10 UNK     1      19.300   0.089  19.660  1.00  0.00     0.074 A 
HETATM   10  C12 UNK     1      19.056   2.494  19.667  1.00  0.00     0.074 A 
HETATM   11  C13 UNK     1      19.193   1.291  20.359  1.00  0.00     0.071 A 
ENDROOT
BRANCH   3  12
HETATM   12  C3  UNK     1      18.991  -2.513  15.728  1.00  0.00    -0.026 A 
HETATM   13  C7  UNK     1      20.261  -3.089  15.722  1.00  0.00     0.049 A 
HETATM   14  C11 UNK     1      20.450  -4.354  15.166  1.00  0.00     0.099 A 
HETATM   15  C15 UNK     1      19.369  -5.043  14.615  1.00  0.00     0.101 A 
HETATM   16  C14 UNK     1      18.099  -4.466  14.621  1.00  0.00     0.040 A 
HETATM   17  C8  UNK     1      17.910  -3.201  15.177  1.00  0.00     0.012 A 
BRANCH  14  18
HETATM   18  O5  UNK     1      21.695  -4.908  15.168  1.00  0.00    -0.358 OA
HETATM   19  H10 UNK     1      22.351  -4.214  15.350  1.00  0.00     0.217 HD
ENDBRANCH  14  18
BRANCH  15  20
HETATM   20  O4  UNK     1      19.541  -6.279  14.070  1.00  0.00    -0.353 OA
HETATM   21  C16 UNK     1      18.679  -6.639  12.993  1.00  0.00     0.210 C 
ENDBRANCH  15  20
ENDBRANCH   3  12
BRANCH  11  22
HETATM   22  O6  UNK     1      19.222   1.290  21.721  1.00  0.00    -0.361 OA
HETATM   23  H11 UNK     1      18.324   1.126  22.057  1.00  0.00     0.217 HD
ENDBRANCH  11  22
BRANCH   8  24
HETATM   24  O3  UNK     1      18.915   3.708  17.647  1.00  0.00    -0.360 OA
HETATM   25  H9  UNK     1      18.552   4.362  18.269  1.00  0.00     0.217 HD
ENDBRANCH   8  24
TORSDOF 5
ENDMDL
MODEL 2
REMARK VINA RESULT:      -8.5     14.454     17.872
REMARK  5 active torsions:
REMARK  status: ('A' for Active; 'I' for Inactive)
REMARK    1  A    between atoms: C9_15  and  O3_3 
REMARK    2  A    between atoms: C15_21  and  O4_4 
REMARK    3  A    between atoms: C11_17  and  O5_5 
REMARK    4  A    between atoms: C13_19  and  O6_6 
REMARK    5  A    between atoms: C1_7  and  C3_9 
ROOT
HETATM    1  O1  UNK     1      17.894   3.021  33.082  1.00  0.00    -0.340 OA
HETATM    2  O2  UNK     1      19.271   1.636  29.474  1.00  0.00    -0.292 OA
HETATM    3  C1  UNK     1      18.588   3.893  32.178  1.00  0.00     0.169 C 
HETATM    4  C2  UNK     1      18.364   3.469  30.727  1.00  0.00     0.121 C 
HETATM    5  C4  UNK     1      18.734   1.176  31.727  1.00  0.00     0.076 A 
HETATM    6  C5  UNK     1      18.853   2.056  30.547  1.00  0.00     0.167 C 
HETATM    7  C6  UNK     1      18.240   1.703  32.923  1.00  0.00     0.089 A 
HETATM    8  C9  UNK     1      19.071  -0.178  31.638  1.00  0.00     0.085 A 
HETATM    9  C10 UNK     1      18.049   0.867  34.024  1.00  0.00     0.074 A 
HETATM   10  C12 UNK     1      18.898  -1.005  32.749  1.00  0.00     0.074 A 
HETATM   11  C13 UNK     1      18.384  -0.485  33.937  1.00  0.00     0.071 A 
ENDROOT
BRANCH   3  12
HETATM   12  C3  UNK     1      18.104   5.309  32.413  1.00  0.00    -0.026 A 
HETATM   13  C7  UNK     1      17.637   6.073  31.345  1.00  0.00     0.049 A 
HETATM   14  C11 UNK     1      17.192   7.377  31.562  1.00  0.00     0.099 A 
HETATM   15  C15 UNK     1      17.216   7.917  32.849  1.00  0.00     0.101 A 
HETATM   16  C14 UNK     1      17.684   7.152  33.917  1.00  0.00     0.040 A 
HETATM   17  C8  UNK     1      18.129   5.848  33.700  1.00  0.00     0.012 A 
BRANCH  14  18
HETATM   18  O5  UNK     1      16.736   8.114  30.510  1.00  0.00    -0.358 OA
HETATM   19  H10 UNK     1      16.925   7.638  29.684  1.00  0.00     0.217 HD
ENDBRANCH  14  18
BRANCH  15  20
HETATM   20  O4  UNK     1      16.783   9.189  33.074  1.00  0.00    -0.353 OA
HETATM   21  C16 UNK     1      17.562   9.991  33.958  1.00  0.00     0.210 C 
ENDBRANCH  15  20
ENDBRANCH   3  12
BRANCH  11  22
HETATM   22  O6  UNK     1      18.208  -1.298  35.015  1.00  0.00    -0.361 OA
HETATM   23  H11 UNK     1      18.666  -2.142  34.852  1.00  0.00     0.217 HD
ENDBRANCH  11  22
BRANCH   8  24
HETATM   24  O3  UNK     1      19.561  -0.741  30.498  1.00  0.00    -0.360 OA
HETATM   25  H9  UNK     1      20.513  -0.555  30.427  1.00  0.00     0.217 HD
ENDBRANCH   8  24
TORSDOF 5
ENDMDL
MODEL 3
REMARK VINA RESULT:      -8.1     18.154     21.439
REMARK  5 active torsions:
REMARK  status: ('A' for Active; 'I' for Inactive)
REMARK    1  A    between atoms: C9_15  and  O3_3 
REMARK    2  A    between atoms: C15_21  and  O4_4 
REMARK    3  A    between atoms: C11_17  and  O5_5 
REMARK    4  A    between atoms: C13_19  and  O6_6 
REMARK    5  A    between atoms: C1_7  and  C3_9 
ROOT
HETATM    1  O1  UNK     1      20.704  -6.241  35.809  1.00  0.00    -0.340 OA
HETATM    2  O2  UNK     1      20.590  -7.509  39.709  1.00  0.00    -0.292 OA
HETATM    3  C1  UNK     1      19.889  -5.563  36.777  1.00  0.00     0.169 C 
HETATM    4  C2  UNK     1      20.498  -5.667  38.175  1.00  0.00     0.121 C 
HETATM    5  C4  UNK     1      20.879  -8.054  37.430  1.00  0.00     0.076 A 
HETATM    6  C5  UNK     1      20.629  -7.120  38.547  1.00  0.00     0.167 C 
HETATM    7  C6  UNK     1      20.925  -7.557  36.124  1.00  0.00     0.089 A 
HETATM    8  C9  UNK     1      21.110  -9.410  37.677  1.00  0.00     0.085 A 
HETATM    9  C10 UNK     1      21.237  -8.412  35.066  1.00  0.00     0.074 A 
HETATM   10  C12 UNK     1      21.400 -10.264  36.612  1.00  0.00     0.074 A 
HETATM   11  C13 UNK     1      21.468  -9.765  35.311  1.00  0.00     0.071 A 
ENDROOT
BRANCH   3  12
HETATM   12  C3  UNK     1      19.743  -4.117  36.352  1.00  0.00    -0.026 A 
HETATM   13  C7  UNK     1      20.204  -3.709  35.101  1.00  0.00     0.049 A 
HETATM   14  C11 UNK     1      20.070  -2.377  34.709  1.00  0.00     0.099 A 
HETATM   15  C15 UNK     1      19.476  -1.453  35.570  1.00  0.00     0.101 A 
HETATM   16  C14 UNK     1      19.016  -1.862  36.822  1.00  0.00     0.040 A 
HETATM   17  C8  UNK     1      19.150  -3.194  37.213  1.00  0.00     0.012 A 
BRANCH  14  18
HETATM   18  O5  UNK     1      20.523  -1.989  33.484  1.00  0.00    -0.358 OA
HETATM   19  H10 UNK     1      20.289  -2.669  32.829  1.00  0.00     0.217 HD
ENDBRANCH  14  18
BRANCH  15  20
HETATM   20  O4  UNK     1      19.339  -0.149  35.199  1.00  0.00    -0.353 OA
HETATM   21  C16 UNK     1      18.565   0.690  36.053  1.00  0.00     0.210 C 
ENDBRANCH  15  20
ENDBRANCH   3  12
BRANCH  11  22
HETATM   22  O6  UNK     1      21.761 -10.602  34.278  1.00  0.00    -0.361 OA
HETATM   23  H11 UNK     1      22.557 -11.116  34.502  1.00  0.00     0.217 HD
ENDBRANCH  11  22
BRANCH   8  24
HETATM   24  O3  UNK     1      21.072  -9.947  38.929  1.00  0.00    -0.360 OA
HETATM   25  H9  UNK     1      21.173 -10.912  38.871  1.00  0.00     0.217 HD
ENDBRANCH   8  24
TORSDOF 5
ENDMDL
MODEL 4
REMARK VINA RESULT:      -8.0     13.776     18.125
REMARK  5 active torsions:
REMARK  status: ('A' for Active; 'I' for Inactive)
REMARK    1  A    between atoms: C9_15  and  O3_3 
REMARK    2  A    between atoms: C15_21  and  O4_4 
REMARK    3  A    between atoms: C11_17  and  O5_5 
REMARK    4  A    between atoms: C13_19  and  O6_6 
REMARK    5  A    between atoms: C1_7  and  C3_9 
ROOT
HETATM    1  O1  UNK     1      16.468   7.487  32.481  1.00  0.00    -0.340 OA
HETATM    2  O2  UNK     1      19.229   9.922  34.291  1.00  0.00    -0.292 OA
HETATM    3  C1  UNK     1      17.850   7.446  32.093  1.00  0.00     0.169 C 
HETATM    4  C2  UNK     1      18.759   7.805  33.267  1.00  0.00     0.121 C 
HETATM    5  C4  UNK     1      16.993   9.582  33.613  1.00  0.00     0.076 A 
HETATM    6  C5  UNK     1      18.409   9.186  33.755  1.00  0.00     0.167 C 
HETATM    7  C6  UNK     1      16.097   8.699  33.004  1.00  0.00     0.089 A 
HETATM    8  C9  UNK     1      16.544  10.804  34.121  1.00  0.00     0.085 A 
HETATM    9  C10 UNK     1      14.742   9.026  32.932  1.00  0.00     0.074 A 
HETATM   10  C12 UNK     1      15.192  11.134  34.027  1.00  0.00     0.074 A 
HETATM   11  C13 UNK     1      14.292  10.245  33.439  1.00  0.00     0.071 A 
ENDROOT
BRANCH   3  12
HETATM   12  C3  UNK     1      18.157   6.059  31.569  1.00  0.00    -0.026 A 
HETATM   13  C7  UNK     1      17.806   4.937  32.318  1.00  0.00     0.049 A 
HETATM   14  C11 UNK     1      18.091   3.659  31.835  1.00  0.00     0.099 A 
HETATM   15  C15 UNK     1      18.727   3.505  30.603  1.00  0.00     0.101 A 
HETATM   16  C14 UNK     1      19.078   4.628  29.854  1.00  0.00     0.040 A 
HETATM   17  C8  UNK     1      18.794   5.905  30.337  1.00  0.00     0.012 A 
BRANCH  14  18
HETATM   18  O5  UNK     1      17.742   2.570  32.576  1.00  0.00    -0.358 OA
HETATM   19  H10 UNK     1      16.800   2.632  32.808  1.00  0.00     0.217 HD
ENDBRANCH  14  18
BRANCH  15  20
HETATM   20  O4  UNK     1      19.010   2.262  30.121  1.00  0.00    -0.353 OA
HETATM   21  C16 UNK     1      18.270   1.825  28.983  1.00  0.00     0.210 C 
ENDBRANCH  15  20
ENDBRANCH   3  12
BRANCH  11  22
HETATM   22  O6  UNK     1      12.971  10.568  33.359  1.00  0.00    -0.361 OA
HETATM   23  H11 UNK     1      12.887  11.469  33.000  1.00  0.00     0.217 HD
ENDBRANCH  11  22
BRANCH   8  24
HETATM   24  O3  UNK     1      17.376  11.703  34.720  1.00  0.00    -0.360 OA
HETATM   25  H9  UNK     1      16.851  12.429  35.097  1.00  0.00     0.217 HD
ENDBRANCH   8  24
TORSDOF 5
ENDMDL
MODEL 5
REMARK VINA RESULT:      -8.0      2.136      7.515
REMARK  5 active torsions:
REMARK  status: ('A' for Active; 'I' for Inactive)
REMARK    1  A    between atoms: C9_15  and  O3_3 
REMARK    2  A    between atoms: C15_21  and  O4_4 
REMARK    3  A    between atoms: C11_17  and  O5_5 
REMARK    4  A    between atoms: C13_19  and  O6_6 
REMARK    5  A    between atoms: C1_7  and  C3_9 
ROOT
HETATM    1  O1  UNK     1      19.275  -0.727  15.213  1.00  0.00    -0.340 OA
HETATM    2  O2  UNK     1      20.229  -4.672  15.817  1.00  0.00    -0.292 OA
HETATM    3  C1  UNK     1      19.007  -1.363  16.472  1.00  0.00     0.169 C 
HETATM    4  C2  UNK     1      20.019  -2.473  16.752  1.00  0.00     0.121 C 
HETATM    5  C4  UNK     1      19.597  -2.969  14.308  1.00  0.00     0.076 A 
HETATM    6  C5  UNK     1      19.951  -3.490  15.644  1.00  0.00     0.167 C 
HETATM    7  C6  UNK     1      19.300  -1.611  14.164  1.00  0.00     0.089 A 
HETATM    8  C9  UNK     1      19.599  -3.813  13.194  1.00  0.00     0.085 A 
HETATM    9  C10 UNK     1      19.039  -1.088  12.897  1.00  0.00     0.074 A 
HETATM   10  C12 UNK     1      19.317  -3.288  11.932  1.00  0.00     0.074 A 
HETATM   11  C13 UNK     1      19.042  -1.928  11.784  1.00  0.00     0.071 A 
ENDROOT
BRANCH   3  12
HETATM   12  C3  UNK     1      19.041  -0.307  17.557  1.00  0.00    -0.026 A 
HETATM   13  C7  UNK     1      18.920   1.041  17.222  1.00  0.00     0.049 A 
HETATM   14  C11 UNK     1      18.952   2.013  18.222  1.00  0.00     0.099 A 
HETATM   15  C15 UNK     1      19.106   1.636  19.557  1.00  0.00     0.101 A 
HETATM   16  C14 UNK     1      19.227   0.288  19.891  1.00  0.00     0.040 A 
HETATM   17  C8  UNK     1      19.195  -0.685  18.891  1.00  0.00     0.012 A 
BRANCH  14  18
HETATM   18  O5  UNK     1      18.831   3.327  17.883  1.00  0.00    -0.358 OA
HETATM   19  H10 UNK     1      19.670   3.781  18.066  1.00  0.00     0.217 HD
ENDBRANCH  14  18
BRANCH  15  20
HETATM   20  O4  UNK     1      19.137   2.577  20.542  1.00  0.00    -0.353 OA
HETATM   21  C16 UNK     1      19.843   2.242  21.735  1.00  0.00     0.210 C 
ENDBRANCH  15  20
ENDBRANCH   3  12
BRANCH  11  22
HETATM   22  O6  UNK     1      18.776  -1.420  10.548  1.00  0.00    -0.361 OA
HETATM   23  H11 UNK     1      18.442  -0.511  10.645  1.00  0.00     0.217 HD
ENDBRANCH  11  22
BRANCH   8  24
HETATM   24  O3  UNK     1      19.877  -5.144  13.279  1.00  0.00    -0.360 OA
HETATM   25  H9  UNK     1      19.540  -5.492  14.123  1.00  0.00     0.217 HD
ENDBRANCH   8  24
TORSDOF 5
ENDMDL
MODEL 6
REMARK VINA RESULT:      -8.0     12.224     16.441
REMARK  5 active torsions:
REMARK  status: ('A' for Active; 'I' for Inactive)
REMARK    1  A    between atoms: C9_15  and  O3_3 
REMARK    2  A    between atoms: C15_21  and  O4_4 
REMARK    3  A    between atoms: C11_17  and  O5_5 
REMARK    4  A    between atoms: C13_19  and  O6_6 
REMARK    5  A    between atoms: C1_7  and  C3_9 
ROOT
HETATM    1  O1  UNK     1      19.115   2.113  31.316  1.00  0.00    -0.340 OA
HETATM    2  O2  UNK     1      17.915   1.551  27.433  1.00  0.00    -0.292 OA
HETATM    3  C1  UNK     1      18.980   3.228  30.421  1.00  0.00     0.169 C 
HETATM    4  C2  UNK     1      17.900   2.961  29.373  1.00  0.00     0.121 C 
HETATM    5  C4  UNK     1      19.014   0.690  29.338  1.00  0.00     0.076 A 
HETATM    6  C5  UNK     1      18.265   1.725  28.595  1.00  0.00     0.167 C 
HETATM    7  C6  UNK     1      19.377   0.935  30.665  1.00  0.00     0.089 A 
HETATM    8  C9  UNK     1      19.318  -0.534  28.736  1.00  0.00     0.085 A 
HETATM    9  C10 UNK     1      20.017  -0.061  31.404  1.00  0.00     0.074 A 
HETATM   10  C12 UNK     1      19.976  -1.518  29.474  1.00  0.00     0.074 A 
HETATM   11  C13 UNK     1      20.321  -1.284  30.806  1.00  0.00     0.071 A 
ENDROOT
BRANCH   3  12
HETATM   12  C3  UNK     1      18.655   4.461  31.238  1.00  0.00    -0.026 A 
HETATM   13  C7  UNK     1      18.258   4.330  32.568  1.00  0.00     0.049 A 
HETATM   14  C11 UNK     1      17.958   5.466  33.320  1.00  0.00     0.099 A 
HETATM   15  C15 UNK     1      18.056   6.732  32.741  1.00  0.00     0.101 A 
HETATM   16  C14 UNK     1      18.454   6.862  31.410  1.00  0.00     0.040 A 
HETATM   17  C8  UNK     1      18.753   5.725  30.658  1.00  0.00     0.012 A 
BRANCH  14  18
HETATM   18  O5  UNK     1      17.571   5.327  34.619  1.00  0.00    -0.358 OA
HETATM   19  H10 UNK     1      18.218   4.771  35.085  1.00  0.00     0.217 HD
ENDBRANCH  14  18
BRANCH  15  20
HETATM   20  O4  UNK     1      17.767   7.849  33.466  1.00  0.00    -0.353 OA
HETATM   21  C16 UNK     1      18.870   8.613  33.948  1.00  0.00     0.210 C 
ENDBRANCH  15  20
ENDBRANCH   3  12
BRANCH  11  22
HETATM   22  O6  UNK     1      20.955  -2.252  31.523  1.00  0.00    -0.361 OA
HETATM   23  H11 UNK     1      20.663  -2.202  32.450  1.00  0.00     0.217 HD
ENDBRANCH  11  22
BRANCH   8  24
HETATM   24  O3  UNK     1      18.991  -0.821  27.445  1.00  0.00    -0.360 OA
HETATM   25  H9  UNK     1      18.997  -1.785  27.316  1.00  0.00     0.217 HD
ENDBRANCH   8  24
TORSDOF 5
ENDMDL
MODEL 7
REMARK VINA RESULT:      -7.9     14.478     18.029
REMARK  5 active torsions:
REMARK  status: ('A' for Active; 'I' for Inactive)
REMARK    1  A    between atoms: C9_15  and  O3_3 
REMARK    2  A    between atoms: C15_21  and  O4_4 
REMARK    3  A    between atoms: C11_17  and  O5_5 
REMARK    4  A    between atoms: C13_19  and  O6_6 
REMARK    5  A    between atoms: C1_7  and  C3_9 
ROOT
HETATM    1  O1  UNK     1      18.038   3.044  33.143  1.00  0.00    -0.340 OA
HETATM    2  O2  UNK     1      19.245   1.612  29.493  1.00  0.00    -0.292 OA
HETATM    3  C1  UNK     1      18.756   3.884  32.226  1.00  0.00     0.169 C 
HETATM    4  C2  UNK     1      18.472   3.484  30.779  1.00  0.00     0.121 C 
HETATM    5  C4  UNK     1      18.741   1.166  31.756  1.00  0.00     0.076 A 
HETATM    6  C5  UNK     1      18.878   2.047  30.579  1.00  0.00     0.167 C 
HETATM    7  C6  UNK     1      18.306   1.711  32.968  1.00  0.00     0.089 A 
HETATM    8  C9  UNK     1      19.000  -0.203  31.651  1.00  0.00     0.085 A 
HETATM    9  C10 UNK     1      18.098   0.878  34.068  1.00  0.00     0.074 A 
HETATM   10  C12 UNK     1      18.810  -1.027  32.761  1.00  0.00     0.074 A 
HETATM   11  C13 UNK     1      18.355  -0.488  33.965  1.00  0.00     0.071 A 
ENDROOT
BRANCH   3  12
HETATM   12  C3  UNK     1      18.356   5.322  32.482  1.00  0.00    -0.026 A 
HETATM   13  C7  UNK     1      19.240   6.186  33.128  1.00  0.00     0.049 A 
HETATM   14  C11 UNK     1      18.872   7.511  33.364  1.00  0.00     0.099 A 
HETATM   15  C15 UNK     1      17.619   7.970  32.956  1.00  0.00     0.101 A 
HETATM   16  C14 UNK     1      16.736   7.105  32.310  1.00  0.00     0.040 A 
HETATM   17  C8  UNK     1      17.104   5.781  32.074  1.00  0.00     0.012 A 
BRANCH  14  18
HETATM   18  O5  UNK     1      19.744   8.347  33.994  1.00  0.00    -0.358 OA
HETATM   19  H10 UNK     1      20.545   7.850  34.231  1.00  0.00     0.217 HD
ENDBRANCH  14  18
BRANCH  15  20
HETATM   20  O4  UNK     1      17.248   9.262  33.180  1.00  0.00    -0.353 OA
HETATM   21  C16 UNK     1      16.373   9.504  34.279  1.00  0.00     0.210 C 
ENDBRANCH  15  20
ENDBRANCH   3  12
BRANCH  11  22
HETATM   22  O6  UNK     1      18.163  -1.299  35.042  1.00  0.00    -0.361 OA
HETATM   23  H11 UNK     1      18.818  -2.018  35.018  1.00  0.00     0.217 HD
ENDBRANCH  11  22
BRANCH   8  24
HETATM   24  O3  UNK     1      19.430  -0.785  30.496  1.00  0.00    -0.360 OA
HETATM   25  H9  UNK     1      20.388  -0.647  30.400  1.00  0.00     0.217 HD
ENDBRANCH   8  24
TORSDOF 5
ENDMDL
MODEL 8
REMARK VINA RESULT:      -7.9     15.716     19.036
REMARK  5 active torsions:
REMARK  status: ('A' for Active; 'I' for Inactive)
REMARK    1  A    between atoms: C9_15  and  O3_3 
REMARK    2  A    between atoms: C15_21  and  O4_4 
REMARK    3  A    between atoms: C11_17  and  O5_5 
REMARK    4  A    between atoms: C13_19  and  O6_6 
REMARK    5  A    between atoms: C1_7  and  C3_9 
ROOT
HETATM    1  O1  UNK     1      19.055   0.461  34.174  1.00  0.00    -0.340 OA
HETATM    2  O2  UNK     1      17.579   0.848  37.982  1.00  0.00    -0.292 OA
HETATM    3  C1  UNK     1      18.032   1.425  34.470  1.00  0.00     0.169 C 
HETATM    4  C2  UNK     1      18.147   1.918  35.912  1.00  0.00     0.121 C 
HETATM    5  C4  UNK     1      18.540  -0.545  36.335  1.00  0.00     0.076 A 
HETATM    6  C5  UNK     1      18.024   0.742  36.845  1.00  0.00     0.167 C 
HETATM    7  C6  UNK     1      19.047  -0.607  35.034  1.00  0.00     0.089 A 
HETATM    8  C9  UNK     1      18.560  -1.675  37.155  1.00  0.00     0.085 A 
HETATM    9  C10 UNK     1      19.608  -1.795  34.564  1.00  0.00     0.074 A 
HETATM   10  C12 UNK     1      19.104  -2.867  36.673  1.00  0.00     0.074 A 
HETATM   11  C13 UNK     1      19.631  -2.925  35.382  1.00  0.00     0.071 A 
ENDROOT
BRANCH   3  12
HETATM   12  C3  UNK     1      18.157   2.571  33.489  1.00  0.00    -0.026 A 
HETATM   13  C7  UNK     1      18.200   3.885  33.955  1.00  0.00     0.049 A 
HETATM   14  C11 UNK     1      18.314   4.941  33.051  1.00  0.00     0.099 A 
HETATM   15  C15 UNK     1      18.384   4.683  31.682  1.00  0.00     0.101 A 
HETATM   16  C14 UNK     1      18.342   3.369  31.217  1.00  0.00     0.040 A 
HETATM   17  C8  UNK     1      18.227   2.312  32.121  1.00  0.00     0.012 A 
BRANCH  14  18
HETATM   18  O5  UNK     1      18.356   6.221  33.517  1.00  0.00    -0.358 OA
HETATM   19  H10 UNK     1      18.354   6.205  34.489  1.00  0.00     0.217 HD
ENDBRANCH  14  18
BRANCH  15  20
HETATM   20  O4  UNK     1      18.497   5.706  30.789  1.00  0.00    -0.353 OA
HETATM   21  C16 UNK     1      19.754   5.862  30.136  1.00  0.00     0.210 C 
ENDBRANCH  15  20
ENDBRANCH   3  12
BRANCH  11  22
HETATM   22  O6  UNK     1      20.168  -4.088  34.920  1.00  0.00    -0.361 OA
HETATM   23  H11 UNK     1      21.077  -3.917  34.615  1.00  0.00     0.217 HD
ENDBRANCH  11  22
BRANCH   8  24
HETATM   24  O3  UNK     1      18.075  -1.670  38.428  1.00  0.00    -0.360 OA
HETATM   25  H9  UNK     1      17.664  -0.809  38.615  1.00  0.00     0.217 HD
ENDBRANCH   8  24
TORSDOF 5
ENDMDL
MODEL 9
REMARK VINA RESULT:      -7.8     15.039     19.422
REMARK  5 active torsions:
REMARK  status: ('A' for Active; 'I' for Inactive)
REMARK    1  A    between atoms: C9_15  and  O3_3 
REMARK    2  A    between atoms: C15_21  and  O4_4 
REMARK    3  A    between atoms: C11_17  and  O5_5 
REMARK    4  A    between atoms: C13_19  and  O6_6 
REMARK    5  A    between atoms: C1_7  and  C3_9 
ROOT
HETATM    1  O1  UNK     1      17.961   9.342  33.285  1.00  0.00    -0.340 OA
HETATM    2  O2  UNK     1      14.102   9.692  34.632  1.00  0.00    -0.292 OA
HETATM    3  C1  UNK     1      17.195   8.177  33.629  1.00  0.00     0.169 C 
HETATM    4  C2  UNK     1      15.704   8.411  33.390  1.00  0.00     0.121 C 
HETATM    5  C4  UNK     1      16.258  10.637  34.456  1.00  0.00     0.076 A 
HETATM    6  C5  UNK     1      15.251   9.583  34.221  1.00  0.00     0.167 C 
HETATM    7  C6  UNK     1      17.552  10.467  33.954  1.00  0.00     0.089 A 
HETATM    8  C9  UNK     1      15.913  11.809  35.134  1.00  0.00     0.085 A 
HETATM    9  C10 UNK     1      18.493  11.487  34.101  1.00  0.00     0.074 A 
HETATM   10  C12 UNK     1      16.865  12.817  35.296  1.00  0.00     0.074 A 
HETATM   11  C13 UNK     1      18.150  12.658  34.776  1.00  0.00     0.071 A 
ENDROOT
BRANCH   3  12
HETATM   12  C3  UNK     1      17.703   7.011  32.808  1.00  0.00    -0.026 A 
HETATM   13  C7  UNK     1      18.118   7.214  31.492  1.00  0.00     0.049 A 
HETATM   14  C11 UNK     1      18.586   6.139  30.736  1.00  0.00     0.099 A 
HETATM   15  C15 UNK     1      18.637   4.862  31.296  1.00  0.00     0.101 A 
HETATM   16  C14 UNK     1      18.221   4.660  32.612  1.00  0.00     0.040 A 
HETATM   17  C8  UNK     1      17.754   5.735  33.368  1.00  0.00     0.012 A 
BRANCH  14  18
HETATM   18  O5  UNK     1      18.990   6.349  29.452  1.00  0.00    -0.358 OA
HETATM   19  H10 UNK     1      18.714   5.594  28.904  1.00  0.00     0.217 HD
ENDBRANCH  14  18
BRANCH  15  20
HETATM   20  O4  UNK     1      19.092   3.804  30.567  1.00  0.00    -0.353 OA
HETATM   21  C16 UNK     1      18.224   2.681  30.442  1.00  0.00     0.210 C 
ENDBRANCH  15  20
ENDBRANCH   3  12
BRANCH  11  22
HETATM   22  O6  UNK     1      19.072  13.649  34.930  1.00  0.00    -0.361 OA
HETATM   23  H11 UNK     1      19.684  13.630  34.174  1.00  0.00     0.217 HD
ENDBRANCH  11  22
BRANCH   8  24
HETATM   24  O3  UNK     1      14.669  12.024  35.646  1.00  0.00    -0.360 OA
HETATM   25  H9  UNK     1      14.000  11.827  34.968  1.00  0.00     0.217 HD
ENDBRANCH   8  24
TORSDOF 5
ENDMDL
MODEL 10
REMARK VINA RESULT:      -7.8     13.364     18.304
REMARK  5 active torsions:
REMARK  status: ('A' for Active; 'I' for Inactive)
REMARK    1  A    between atoms: C9_15  and  O3_3 
REMARK    2  A    between atoms: C15_21  and  O4_4 
REMARK    3  A    between atoms: C11_17  and  O5_5 
REMARK    4  A    between atoms: C13_19  and  O6_6 
REMARK    5  A    between atoms: C1_7  and  C3_9 
ROOT
HETATM    1  O1  UNK     1      18.284   4.243  31.477  1.00  0.00    -0.340 OA
HETATM    2  O2  UNK     1      18.707   1.635  34.616  1.00  0.00    -0.292 OA
HETATM    3  C1  UNK     1      17.621   4.485  32.728  1.00  0.00     0.169 C 
HETATM    4  C2  UNK     1      18.420   3.904  33.893  1.00  0.00     0.121 C 
HETATM    5  C4  UNK     1      18.666   1.972  32.280  1.00  0.00     0.076 A 
HETATM    6  C5  UNK     1      18.586   2.422  33.684  1.00  0.00     0.167 C 
HETATM    7  C6  UNK     1      18.533   2.913  31.255  1.00  0.00     0.089 A 
HETATM    8  C9  UNK     1      18.915   0.630  31.978  1.00  0.00     0.085 A 
HETATM    9  C10 UNK     1      18.683   2.516  29.925  1.00  0.00     0.074 A 
HETATM   10  C12 UNK     1      19.043   0.236  30.646  1.00  0.00     0.074 A 
HETATM   11  C13 UNK     1      18.932   1.178  29.622  1.00  0.00     0.071 A 
ENDROOT
BRANCH   3  12
HETATM   12  C3  UNK     1      17.432   5.979  32.887  1.00  0.00    -0.026 A 
HETATM   13  C7  UNK     1      16.660   6.686  31.966  1.00  0.00     0.049 A 
HETATM   14  C11 UNK     1      16.487   8.063  32.113  1.00  0.00     0.099 A 
HETATM   15  C15 UNK     1      17.088   8.731  33.180  1.00  0.00     0.101 A 
HETATM   16  C14 UNK     1      17.860   8.024  34.100  1.00  0.00     0.040 A 
HETATM   17  C8  UNK     1      18.033   6.647  33.954  1.00  0.00     0.012 A 
BRANCH  14  18
HETATM   18  O5  UNK     1      15.729   8.743  31.207  1.00  0.00    -0.358 OA
HETATM   19  H10 UNK     1      15.433   8.129  30.515  1.00  0.00     0.217 HD
ENDBRANCH  14  18
BRANCH  15  20
HETATM   20  O4  UNK     1      16.925  10.075  33.334  1.00  0.00    -0.353 OA
HETATM   21  C16 UNK     1      16.185  10.513  34.471  1.00  0.00     0.210 C 
ENDBRANCH  15  20
ENDBRANCH   3  12
BRANCH  11  22
HETATM   22  O6  UNK     1      19.068   0.789  28.324  1.00  0.00    -0.361 OA
HETATM   23  H11 UNK     1      18.183   0.686  27.931  1.00  0.00     0.217 HD
ENDBRANCH  11  22
BRANCH   8  24
HETATM   24  O3  UNK     1      19.048  -0.328  32.938  1.00  0.00    -0.360 OA
HETATM   25  H9  UNK     1      19.964  -0.656  32.944  1.00  0.00     0.217 HD
ENDBRANCH   8  24
TORSDOF 5
ENDMDL
