MODEL 1
REMARK VINA RESULT:      -8.9      0.000      0.000
REMARK  6 active torsions:
REMARK  status: ('A' for Active; 'I' for Inactive)
REMARK    1  A    between atoms: C10_17  and  O2_3 
REMARK    2  A    between atoms: C12_19  and  O3_4 
REMARK       I    between atoms: C11_18  and  N1_7 
REMARK    3  A    between atoms: C13_20  and  N1_7 
REMARK    4  A    between atoms: C3_10  and  C4_11 
REMARK    5  A    between atoms: C11_18  and  C4_11 
REMARK    6  A    between atoms: C13_20  and  C14_21 
ROOT
HETATM    1  O1  UNK     1      18.474   0.806  31.921  1.00  0.00    -0.274 OA
HETATM    2  O4  UNK     1      18.372  -1.391  32.481  1.00  0.00    -0.259 OA
HETATM    3  C1  UNK     1      18.072   1.459  34.646  1.00  0.00    -0.036 A 
HETATM    4  C2  UNK     1      18.226   2.520  33.629  1.00  0.00     0.007 A 
HETATM    5  C3  UNK     1      18.091   0.166  34.262  1.00  0.00     0.033 A 
HETATM    6  C5  UNK     1      18.423   2.156  32.301  1.00  0.00     0.093 A 
HETATM    7  C6  UNK     1      18.176   3.894  33.914  1.00  0.00     0.054 A 
HETATM    8  C7  UNK     1      18.317  -0.218  32.839  1.00  0.00     0.295 A 
HETATM    9  C8  UNK     1      17.917   1.905  36.078  1.00  0.00     0.050 C 
HETATM   10  C9  UNK     1      18.576   3.096  31.277  1.00  0.00     0.077 A 
HETATM   11  C10 UNK     1      18.328   4.850  32.902  1.00  0.00     0.102 A 
HETATM   12  C12 UNK     1      18.529   4.450  31.584  1.00  0.00     0.104 A 
ENDROOT
BRANCH   5  13
HETATM   13  C4  UNK     1      17.883  -1.009  35.184  1.00  0.00     0.148 C 
BRANCH  13  14
HETATM   14  C11 UNK     1      19.231  -1.483  35.670  1.00  0.00     0.222 C 
HETATM   15  O5  UNK     1      20.219  -0.749  35.691  1.00  0.00    -0.273 OA
HETATM   16  N1  UNK     1      19.217  -2.812  36.060  1.00  0.00    -0.357 N 
HETATM   17  H10 UNK     1      18.358  -3.349  35.984  1.00  0.00     0.162 HD
BRANCH  16  18
HETATM   18  C13 UNK     1      20.389  -3.503  36.547  1.00  0.00     0.161 C 
BRANCH  18  19
HETATM   19  C14 UNK     1      20.054  -4.872  37.078  1.00  0.00    -0.040 A 
HETATM   20  C15 UNK     1      20.842  -5.430  38.074  1.00  0.00     0.010 A 
HETATM   21  C17 UNK     1      20.532  -6.698  38.566  1.00  0.00     0.024 A 
HETATM   22  C21 UNK     1      19.437  -7.396  38.055  1.00  0.00     0.034 A 
HETATM   23  C18 UNK     1      18.652  -6.824  37.053  1.00  0.00     0.024 A 
HETATM   24 Cl1  UNK     1      19.055  -8.960  38.661  1.00  0.00    -0.084 Cl
HETATM   25  C16 UNK     1      18.962  -5.556  36.561  1.00  0.00     0.010 A 
ENDBRANCH  18  19
ENDBRANCH  16  18
ENDBRANCH  13  14
ENDBRANCH   5  13
BRANCH  11  26
HETATM   26  O2  UNK     1      18.273   6.173  33.222  1.00  0.00    -0.353 OA
HETATM   27  C19 UNK     1      19.399   6.721  33.905  1.00  0.00     0.210 C 
ENDBRANCH  11  26
BRANCH  12  28
HETATM   28  O3  UNK     1      18.676   5.371  30.592  1.00  0.00    -0.353 OA
HETATM   29  C20 UNK     1      20.008   5.757  30.258  1.00  0.00     0.210 C 
ENDBRANCH  12  28
TORSDOF 6
ENDMDL
MODEL 2
REMARK VINA RESULT:      -8.6      6.308     11.579
REMARK  6 active torsions:
REMARK  status: ('A' for Active; 'I' for Inactive)
REMARK    1  A    between atoms: C10_17  and  O2_3 
REMARK    2  A    between atoms: C12_19  and  O3_4 
REMARK       I    between atoms: C11_18  and  N1_7 
REMARK    3  A    between atoms: C13_20  and  N1_7 
REMARK    4  A    between atoms: C3_10  and  C4_11 
REMARK    5  A    between atoms: C11_18  and  C4_11 
REMARK    6  A    between atoms: C13_20  and  C14_21 
ROOT
HETATM    1  O1  UNK     1      17.874   4.207  33.590  1.00  0.00    -0.274 OA
HETATM    2  O4  UNK     1      17.467   6.233  34.528  1.00  0.00    -0.259 OA
HETATM    3  C1  UNK     1      18.568   5.525  31.183  1.00  0.00    -0.036 A 
HETATM    4  C2  UNK     1      18.610   4.051  31.276  1.00  0.00     0.007 A 
HETATM    5  C3  UNK     1      18.161   6.245  32.249  1.00  0.00     0.033 A 
HETATM    6  C5  UNK     1      18.263   3.443  32.479  1.00  0.00     0.093 A 
HETATM    7  C6  UNK     1      18.973   3.207  30.215  1.00  0.00     0.054 A 
HETATM    8  C7  UNK     1      17.804   5.588  33.539  1.00  0.00     0.295 A 
HETATM    9  C8  UNK     1      19.008   6.138  29.877  1.00  0.00     0.050 C 
HETATM   10  C9  UNK     1      18.274   2.056  32.652  1.00  0.00     0.077 A 
HETATM   11  C10 UNK     1      18.991   1.816  30.370  1.00  0.00     0.102 A 
HETATM   12  C12 UNK     1      18.643   1.240  31.589  1.00  0.00     0.104 A 
ENDROOT
BRANCH   5  13
HETATM   13  C4  UNK     1      18.012   7.746  32.268  1.00  0.00     0.148 C 
BRANCH  13  14
HETATM   14  C11 UNK     1      16.595   8.093  31.882  1.00  0.00     0.222 C 
HETATM   15  O5  UNK     1      16.255   8.270  30.713  1.00  0.00    -0.273 OA
HETATM   16  N1  UNK     1      15.758   8.202  32.980  1.00  0.00    -0.357 N 
HETATM   17  H10 UNK     1      16.134   8.064  33.914  1.00  0.00     0.162 HD
BRANCH  16  18
HETATM   18  C13 UNK     1      14.358   8.544  32.874  1.00  0.00     0.161 C 
BRANCH  18  19
HETATM   19  C14 UNK     1      14.021   9.784  33.659  1.00  0.00    -0.040 A 
HETATM   20  C15 UNK     1      13.232  10.767  33.079  1.00  0.00     0.010 A 
HETATM   21  C17 UNK     1      12.920  11.915  33.806  1.00  0.00     0.024 A 
HETATM   22  C21 UNK     1      13.401  12.070  35.107  1.00  0.00     0.034 A 
HETATM   23  C18 UNK     1      14.194  11.074  35.680  1.00  0.00     0.024 A 
HETATM   24 Cl1  UNK     1      13.017  13.487  36.004  1.00  0.00    -0.084 Cl
HETATM   25  C16 UNK     1      14.506   9.926  34.952  1.00  0.00     0.010 A 
ENDBRANCH  18  19
ENDBRANCH  16  18
ENDBRANCH  13  14
ENDBRANCH   5  13
BRANCH  11  26
HETATM   26  O2  UNK     1      19.351   1.032  29.314  1.00  0.00    -0.353 OA
HETATM   27  C19 UNK     1      18.363   0.804  28.311  1.00  0.00     0.210 C 
ENDBRANCH  11  26
BRANCH  12  28
HETATM   28  O3  UNK     1      18.655  -0.111  31.750  1.00  0.00    -0.353 OA
HETATM   29  C20 UNK     1      18.620  -0.606  33.087  1.00  0.00     0.210 C 
ENDBRANCH  12  28
TORSDOF 6
ENDMDL
MODEL 3
REMARK VINA RESULT:      -8.5      5.618      8.110
REMARK  6 active torsions:
REMARK  status: ('A' for Active; 'I' for Inactive)
REMARK    1  A    between atoms: C10_17  and  O2_3 
REMARK    2  A    between atoms: C12_19  and  O3_4 
REMARK       I    between atoms: C11_18  and  N1_7 
REMARK    3  A    between atoms: C13_20  and  N1_7 
REMARK    4  A    between atoms: C3_10  and  C4_11 
REMARK    5  A    between atoms: C11_18  and  C4_11 
REMARK    6  A    between atoms: C13_20  and  C14_21 
ROOT
HETATM    1  O1  UNK     1      19.692   8.316  33.869  1.00  0.00    -0.274 OA
HETATM    2  O4  UNK     1      20.413   6.174  33.661  1.00  0.00    -0.259 OA
HETATM    3  C1  UNK     1      17.032   7.386  33.601  1.00  0.00    -0.036 A 
HETATM    4  C2  UNK     1      17.315   8.825  33.780  1.00  0.00     0.007 A 
HETATM    5  C3  UNK     1      18.058   6.513  33.532  1.00  0.00     0.033 A 
HETATM    6  C5  UNK     1      18.637   9.240  33.909  1.00  0.00     0.093 A 
HETATM    7  C6  UNK     1      16.326   9.821  33.819  1.00  0.00     0.054 A 
HETATM    8  C7  UNK     1      19.472   6.962  33.686  1.00  0.00     0.295 A 
HETATM    9  C8  UNK     1      15.581   6.982  33.522  1.00  0.00     0.050 C 
HETATM   10  C9  UNK     1      18.992  10.581  34.080  1.00  0.00     0.077 A 
HETATM   11  C10 UNK     1      16.663  11.170  33.990  1.00  0.00     0.102 A 
HETATM   12  C12 UNK     1      17.996  11.549  34.122  1.00  0.00     0.104 A 
ENDROOT
BRANCH   5  13
HETATM   13  C4  UNK     1      17.913   5.031  33.289  1.00  0.00     0.148 C 
BRANCH  13  14
HETATM   14  C11 UNK     1      18.136   4.760  31.821  1.00  0.00     0.222 C 
HETATM   15  O5  UNK     1      18.294   5.664  31.001  1.00  0.00    -0.273 OA
HETATM   16  N1  UNK     1      18.121   3.408  31.524  1.00  0.00    -0.357 N 
HETATM   17  H10 UNK     1      17.957   2.732  32.265  1.00  0.00     0.162 HD
BRANCH  16  18
HETATM   18  C13 UNK     1      18.294   2.893  30.185  1.00  0.00     0.161 C 
BRANCH  18  19
HETATM   19  C14 UNK     1      18.922   1.524  30.186  1.00  0.00    -0.040 A 
HETATM   20  C15 UNK     1      19.325   0.956  28.986  1.00  0.00     0.010 A 
HETATM   21  C17 UNK     1      19.906  -0.312  28.987  1.00  0.00     0.024 A 
HETATM   22  C21 UNK     1      20.078  -1.000  30.188  1.00  0.00     0.034 A 
HETATM   23  C18 UNK     1      19.669  -0.418  31.389  1.00  0.00     0.024 A 
HETATM   24 Cl1  UNK     1      20.794  -2.564  30.189  1.00  0.00    -0.084 Cl
HETATM   25  C16 UNK     1      19.088   0.850  31.388  1.00  0.00     0.010 A 
ENDBRANCH  18  19
ENDBRANCH  16  18
ENDBRANCH  13  14
ENDBRANCH   5  13
BRANCH  11  26
HETATM   26  O2  UNK     1      15.672  12.105  34.023  1.00  0.00    -0.353 OA
HETATM   27  C19 UNK     1      14.404  11.723  33.496  1.00  0.00     0.210 C 
ENDBRANCH  11  26
BRANCH  12  28
HETATM   28  O3  UNK     1      18.334  12.857  34.287  1.00  0.00    -0.353 OA
HETATM   29  C20 UNK     1      18.773  13.565  33.129  1.00  0.00     0.210 C 
ENDBRANCH  12  28
TORSDOF 6
ENDMDL
MODEL 4
REMARK VINA RESULT:      -8.5     26.090     28.575
REMARK  6 active torsions:
REMARK  status: ('A' for Active; 'I' for Inactive)
REMARK    1  A    between atoms: C10_17  and  O2_3 
REMARK    2  A    between atoms: C12_19  and  O3_4 
REMARK       I    between atoms: C11_18  and  N1_7 
REMARK    3  A    between atoms: C13_20  and  N1_7 
REMARK    4  A    between atoms: C3_10  and  C4_11 
REMARK    5  A    between atoms: C11_18  and  C4_11 
REMARK    6  A    between atoms: C13_20  and  C14_21 
ROOT
HETATM    1  O1  UNK     1      17.961   9.325   9.408  1.00  0.00    -0.274 OA
HETATM    2  O4  UNK     1      18.056   7.355  10.532  1.00  0.00    -0.259 OA
HETATM    3  C1  UNK     1      15.135   9.163   9.481  1.00  0.00    -0.036 A 
HETATM    4  C2  UNK     1      15.811  10.303   8.827  1.00  0.00     0.007 A 
HETATM    5  C3  UNK     1      15.878   8.173  10.019  1.00  0.00     0.033 A 
HETATM    6  C5  UNK     1      17.202  10.345   8.815  1.00  0.00     0.093 A 
HETATM    7  C6  UNK     1      15.134  11.361   8.199  1.00  0.00     0.054 A 
HETATM    8  C7  UNK     1      17.368   8.231  10.015  1.00  0.00     0.295 A 
HETATM    9  C8  UNK     1      13.628   9.193   9.518  1.00  0.00     0.050 C 
HETATM   10  C9  UNK     1      17.918  11.385   8.217  1.00  0.00     0.077 A 
HETATM   11  C10 UNK     1      15.835  12.412   7.595  1.00  0.00     0.102 A 
HETATM   12  C12 UNK     1      17.227  12.424   7.605  1.00  0.00     0.104 A 
ENDROOT
BRANCH   5  13
HETATM   13  C4  UNK     1      15.319   6.927  10.658  1.00  0.00     0.148 C 
BRANCH  13  14
HETATM   14  C11 UNK     1      14.992   5.934   9.569  1.00  0.00     0.222 C 
HETATM   15  O5  UNK     1      15.861   5.292   8.980  1.00  0.00    -0.273 OA
HETATM   16  N1  UNK     1      13.632   5.855   9.315  1.00  0.00    -0.357 N 
HETATM   17  H10 UNK     1      12.989   6.444   9.835  1.00  0.00     0.162 HD
BRANCH  16  18
HETATM   18  C13 UNK     1      13.069   4.989   8.305  1.00  0.00     0.161 C 
BRANCH  18  19
HETATM   19  C14 UNK     1      11.731   5.485   7.822  1.00  0.00    -0.040 A 
HETATM   20  C15 UNK     1      10.669   5.561   8.713  1.00  0.00     0.010 A 
HETATM   21  C17 UNK     1       9.430   6.020   8.266  1.00  0.00     0.024 A 
HETATM   22  C21 UNK     1       9.265   6.398   6.933  1.00  0.00     0.034 A 
HETATM   23  C18 UNK     1      10.340   6.316   6.047  1.00  0.00     0.024 A 
HETATM   24 Cl1  UNK     1       7.736   6.963   6.382  1.00  0.00    -0.084 Cl
HETATM   25  C16 UNK     1      11.579   5.858   6.494  1.00  0.00     0.010 A 
ENDBRANCH  18  19
ENDBRANCH  16  18
ENDBRANCH  13  14
ENDBRANCH   5  13
BRANCH  11  26
HETATM   26  O2  UNK     1      15.140  13.419   6.996  1.00  0.00    -0.353 OA
HETATM   27  C19 UNK     1      14.389  14.282   7.846  1.00  0.00     0.210 C 
ENDBRANCH  11  26
BRANCH  12  28
HETATM   28  O3  UNK     1      17.919  13.440   7.020  1.00  0.00    -0.353 OA
HETATM   29  C20 UNK     1      18.682  13.122   5.858  1.00  0.00     0.210 C 
ENDBRANCH  12  28
TORSDOF 6
ENDMDL
MODEL 5
REMARK VINA RESULT:      -8.5      6.114      8.720
REMARK  6 active torsions:
REMARK  status: ('A' for Active; 'I' for Inactive)
REMARK    1  A    between atoms: C10_17  and  O2_3 
REMARK    2  A    between atoms: C12_19  and  O3_4 
REMARK       I    between atoms: C11_18  and  N1_7 
REMARK    3  A    between atoms: C13_20  and  N1_7 
REMARK    4  A    between atoms: C3_10  and  C4_11 
REMARK    5  A    between atoms: C11_18  and  C4_11 
REMARK    6  A    between atoms: C13_20  and  C14_21 
ROOT
HETATM    1  O1  UNK     1      15.846   8.466  31.458  1.00  0.00    -0.274 OA
HETATM    2  O4  UNK     1      17.175   7.111  30.212  1.00  0.00    -0.259 OA
HETATM    3  C1  UNK     1      17.800   8.402  33.506  1.00  0.00    -0.036 A 
HETATM    4  C2  UNK     1      16.550   9.171  33.677  1.00  0.00     0.007 A 
HETATM    5  C3  UNK     1      17.993   7.696  32.371  1.00  0.00     0.033 A 
HETATM    6  C5  UNK     1      15.616   9.177  32.645  1.00  0.00     0.093 A 
HETATM    7  C6  UNK     1      16.230   9.901  34.833  1.00  0.00     0.054 A 
HETATM    8  C7  UNK     1      16.996   7.719  31.263  1.00  0.00     0.295 A 
HETATM    9  C8  UNK     1      18.804   8.473  34.628  1.00  0.00     0.050 C 
HETATM   10  C9  UNK     1      14.409   9.876  32.727  1.00  0.00     0.077 A 
HETATM   11  C10 UNK     1      15.025  10.607  34.932  1.00  0.00     0.102 A 
HETATM   12  C12 UNK     1      14.116  10.596  33.878  1.00  0.00     0.104 A 
ENDROOT
BRANCH   5  13
HETATM   13  C4  UNK     1      19.191   6.822  32.095  1.00  0.00     0.148 C 
BRANCH  13  14
HETATM   14  C11 UNK     1      18.962   5.476  32.740  1.00  0.00     0.222 C 
HETATM   15  O5  UNK     1      19.346   5.218  33.880  1.00  0.00    -0.273 OA
HETATM   16  N1  UNK     1      18.302   4.593  31.901  1.00  0.00    -0.357 N 
HETATM   17  H10 UNK     1      18.045   4.887  30.964  1.00  0.00     0.162 HD
BRANCH  16  18
HETATM   18  C13 UNK     1      17.983   3.236  32.281  1.00  0.00     0.161 C 
BRANCH  18  19
HETATM   19  C14 UNK     1      18.439   2.240  31.247  1.00  0.00    -0.040 A 
HETATM   20  C15 UNK     1      19.116   1.098  31.649  1.00  0.00     0.010 A 
HETATM   21  C17 UNK     1      19.539   0.177  30.691  1.00  0.00     0.024 A 
HETATM   22  C21 UNK     1      19.281   0.408  29.340  1.00  0.00     0.034 A 
HETATM   23  C18 UNK     1      18.599   1.560  28.947  1.00  0.00     0.024 A 
HETATM   24 Cl1  UNK     1      19.803  -0.728  28.158  1.00  0.00    -0.084 Cl
HETATM   25  C16 UNK     1      18.177   2.481  29.905  1.00  0.00     0.010 A 
ENDBRANCH  18  19
ENDBRANCH  16  18
ENDBRANCH  13  14
ENDBRANCH   5  13
BRANCH  11  26
HETATM   26  O2  UNK     1      14.753  11.304  36.072  1.00  0.00    -0.353 OA
HETATM   27  C19 UNK     1      15.274  12.628  36.162  1.00  0.00     0.210 C 
ENDBRANCH  11  26
BRANCH  12  28
HETATM   28  O3  UNK     1      12.942  11.279  33.965  1.00  0.00    -0.353 OA
HETATM   29  C20 UNK     1      12.300  11.624  32.739  1.00  0.00     0.210 C 
ENDBRANCH  12  28
TORSDOF 6
ENDMDL
MODEL 6
REMARK VINA RESULT:      -8.4      9.208     12.826
REMARK  6 active torsions:
REMARK  status: ('A' for Active; 'I' for Inactive)
REMARK    1  A    between atoms: C10_17  and  O2_3 
REMARK    2  A    between atoms: C12_19  and  O3_4 
REMARK       I    between atoms: C11_18  and  N1_7 
REMARK    3  A    between atoms: C13_20  and  N1_7 
REMARK    4  A    between atoms: C3_10  and  C4_11 
REMARK    5  A    between atoms: C11_18  and  C4_11 
REMARK    6  A    between atoms: C13_20  and  C14_21 
ROOT
HETATM    1  O1  UNK     1      27.799  -5.219  38.406  1.00  0.00    -0.274 OA
HETATM    2  O4  UNK     1      25.556  -5.427  38.684  1.00  0.00    -0.259 OA
HETATM    3  C1  UNK     1      28.035  -8.026  38.684  1.00  0.00    -0.036 A 
HETATM    4  C2  UNK     1      29.230  -7.185  38.464  1.00  0.00     0.007 A 
HETATM    5  C3  UNK     1      26.823  -7.441  38.787  1.00  0.00     0.033 A 
HETATM    6  C5  UNK     1      29.070  -5.809  38.330  1.00  0.00     0.093 A 
HETATM    7  C6  UNK     1      30.540  -7.686  38.388  1.00  0.00     0.054 A 
HETATM    8  C7  UNK     1      26.656  -5.968  38.629  1.00  0.00     0.295 A 
HETATM    9  C8  UNK     1      28.255  -9.516  38.766  1.00  0.00     0.050 C 
HETATM   10  C9  UNK     1      30.146  -4.942  38.122  1.00  0.00     0.077 A 
HETATM   11  C10 UNK     1      31.630  -6.833  38.178  1.00  0.00     0.102 A 
HETATM   12  C12 UNK     1      31.433  -5.461  38.044  1.00  0.00     0.104 A 
ENDROOT
BRANCH   5  13
HETATM   13  C4  UNK     1      25.536  -8.173  39.073  1.00  0.00     0.148 C 
BRANCH  13  14
HETATM   14  C11 UNK     1      24.932  -8.614  37.762  1.00  0.00     0.222 C 
HETATM   15  O5  UNK     1      25.611  -8.802  36.754  1.00  0.00    -0.273 OA
HETATM   16  N1  UNK     1      23.556  -8.755  37.834  1.00  0.00    -0.357 N 
HETATM   17  H10 UNK     1      23.075  -8.552  38.706  1.00  0.00     0.162 HD
BRANCH  16  18
HETATM   18  C13 UNK     1      22.744  -9.150  36.706  1.00  0.00     0.161 C 
BRANCH  18  19
HETATM   19  C14 UNK     1      21.421  -8.432  36.687  1.00  0.00    -0.040 A 
HETATM   20  C15 UNK     1      20.896  -7.998  35.478  1.00  0.00     0.010 A 
HETATM   21  C17 UNK     1      19.670  -7.333  35.461  1.00  0.00     0.024 A 
HETATM   22  C21 UNK     1      18.981  -7.107  36.653  1.00  0.00     0.034 A 
HETATM   23  C18 UNK     1      19.519  -7.549  37.863  1.00  0.00     0.024 A 
HETATM   24 Cl1  UNK     1      17.470  -6.286  36.632  1.00  0.00    -0.084 Cl
HETATM   25  C16 UNK     1      20.745  -8.214  37.880  1.00  0.00     0.010 A 
ENDBRANCH  18  19
ENDBRANCH  16  18
ENDBRANCH  13  14
ENDBRANCH   5  13
BRANCH  11  26
HETATM   26  O2  UNK     1      32.885  -7.360  38.110  1.00  0.00    -0.353 OA
HETATM   27  C19 UNK     1      33.292  -7.902  36.856  1.00  0.00     0.210 C 
ENDBRANCH  11  26
BRANCH  12  28
HETATM   28  O3  UNK     1      32.486  -4.623  37.841  1.00  0.00    -0.353 OA
HETATM   29  C20 UNK     1      32.541  -3.940  36.591  1.00  0.00     0.210 C 
ENDBRANCH  12  28
TORSDOF 6
ENDMDL
MODEL 7
REMARK VINA RESULT:      -8.2     11.376     14.322
REMARK  6 active torsions:
REMARK  status: ('A' for Active; 'I' for Inactive)
REMARK    1  A    between atoms: C10_17  and  O2_3 
REMARK    2  A    between atoms: C12_19  and  O3_4 
REMARK       I    between atoms: C11_18  and  N1_7 
REMARK    3  A    between atoms: C13_20  and  N1_7 
REMARK    4  A    between atoms: C3_10  and  C4_11 
REMARK    5  A    between atoms: C11_18  and  C4_11 
REMARK    6  A    between atoms: C13_20  and  C14_21 
ROOT
HETATM    1  O1  UNK     1      28.213  -5.185  39.181  1.00  0.00    -0.274 OA
HETATM    2  O4  UNK     1      29.819  -3.588  39.338  1.00  0.00    -0.259 OA
HETATM    3  C1  UNK     1      30.172  -6.978  38.201  1.00  0.00    -0.036 A 
HETATM    4  C2  UNK     1      28.767  -7.406  38.360  1.00  0.00     0.007 A 
HETATM    5  C3  UNK     1      30.514  -5.706  38.497  1.00  0.00     0.033 A 
HETATM    6  C5  UNK     1      27.835  -6.494  38.847  1.00  0.00     0.093 A 
HETATM    7  C6  UNK     1      28.297  -8.690  38.039  1.00  0.00     0.054 A 
HETATM    8  C7  UNK     1      29.514  -4.737  39.031  1.00  0.00     0.295 A 
HETATM    9  C8  UNK     1      31.153  -8.019  37.725  1.00  0.00     0.050 C 
HETATM   10  C9  UNK     1      26.487  -6.817  39.025  1.00  0.00     0.077 A 
HETATM   11  C10 UNK     1      26.950  -9.032  38.212  1.00  0.00     0.102 A 
HETATM   12  C12 UNK     1      26.046  -8.095  38.706  1.00  0.00     0.104 A 
ENDROOT
BRANCH   5  13
HETATM   13  C4  UNK     1      31.893  -5.123  38.321  1.00  0.00     0.148 C 
BRANCH  13  14
HETATM   14  C11 UNK     1      31.979  -4.495  36.951  1.00  0.00     0.222 C 
HETATM   15  O5  UNK     1      31.976  -3.277  36.783  1.00  0.00    -0.273 OA
HETATM   16  N1  UNK     1      32.040  -5.439  35.939  1.00  0.00    -0.357 N 
HETATM   17  H10 UNK     1      32.011  -6.428  36.171  1.00  0.00     0.162 HD
BRANCH  16  18
HETATM   18  C13 UNK     1      32.110  -5.090  34.539  1.00  0.00     0.161 C 
BRANCH  18  19
HETATM   19  C14 UNK     1      30.850  -5.464  33.803  1.00  0.00    -0.040 A 
HETATM   20  C15 UNK     1      30.670  -5.037  32.495  1.00  0.00     0.010 A 
HETATM   21  C17 UNK     1      29.503  -5.384  31.814  1.00  0.00     0.024 A 
HETATM   22  C21 UNK     1      28.527  -6.154  32.448  1.00  0.00     0.034 A 
HETATM   23  C18 UNK     1      28.720  -6.577  33.764  1.00  0.00     0.024 A 
HETATM   24 Cl1  UNK     1      27.088  -6.581  31.608  1.00  0.00    -0.084 Cl
HETATM   25  C16 UNK     1      29.886  -6.230  34.445  1.00  0.00     0.010 A 
ENDBRANCH  18  19
ENDBRANCH  16  18
ENDBRANCH  13  14
ENDBRANCH   5  13
BRANCH  11  26
HETATM   26  O2  UNK     1      26.534 -10.289  37.889  1.00  0.00    -0.353 OA
HETATM   27  C19 UNK     1      26.138 -10.512  36.538  1.00  0.00     0.210 C 
ENDBRANCH  11  26
BRANCH  12  28
HETATM   28  O3  UNK     1      24.734  -8.417  38.877  1.00  0.00    -0.353 OA
HETATM   29  C20 UNK     1      23.822  -7.339  39.074  1.00  0.00     0.210 C 
ENDBRANCH  12  28
TORSDOF 6
ENDMDL
MODEL 8
REMARK VINA RESULT:      -8.0      9.800     13.423
REMARK  6 active torsions:
REMARK  status: ('A' for Active; 'I' for Inactive)
REMARK    1  A    between atoms: C10_17  and  O2_3 
REMARK    2  A    between atoms: C12_19  and  O3_4 
REMARK       I    between atoms: C11_18  and  N1_7 
REMARK    3  A    between atoms: C13_20  and  N1_7 
REMARK    4  A    between atoms: C3_10  and  C4_11 
REMARK    5  A    between atoms: C11_18  and  C4_11 
REMARK    6  A    between atoms: C13_20  and  C14_21 
ROOT
HETATM    1  O1  UNK     1      29.560  -9.502  38.671  1.00  0.00    -0.274 OA
HETATM    2  O4  UNK     1      27.638 -10.650  39.049  1.00  0.00    -0.259 OA
HETATM    3  C1  UNK     1      28.061  -7.101  38.686  1.00  0.00    -0.036 A 
HETATM    4  C2  UNK     1      29.521  -7.079  38.464  1.00  0.00     0.007 A 
HETATM    5  C3  UNK     1      27.433  -8.285  38.849  1.00  0.00     0.033 A 
HETATM    6  C5  UNK     1      30.221  -8.282  38.466  1.00  0.00     0.093 A 
HETATM    7  C6  UNK     1      30.263  -5.909  38.238  1.00  0.00     0.054 A 
HETATM    8  C7  UNK     1      28.190  -9.569  38.865  1.00  0.00     0.295 A 
HETATM    9  C8  UNK     1      27.357  -5.768  38.731  1.00  0.00     0.050 C 
HETATM   10  C9  UNK     1      31.602  -8.350  38.262  1.00  0.00     0.077 A 
HETATM   11  C10 UNK     1      31.647  -5.957  38.033  1.00  0.00     0.102 A 
HETATM   12  C12 UNK     1      32.316  -7.178  38.046  1.00  0.00     0.104 A 
ENDROOT
BRANCH   5  13
HETATM   13  C4  UNK     1      25.944  -8.453  39.020  1.00  0.00     0.148 C 
BRANCH  13  14
HETATM   14  C11 UNK     1      25.334  -8.732  37.668  1.00  0.00     0.222 C 
HETATM   15  O5  UNK     1      25.993  -8.709  36.630  1.00  0.00    -0.273 OA
HETATM   16  N1  UNK     1      23.975  -8.990  37.744  1.00  0.00    -0.357 N 
HETATM   17  H10 UNK     1      23.508  -8.962  38.646  1.00  0.00     0.162 HD
BRANCH  16  18
HETATM   18  C13 UNK     1      23.160  -9.268  36.584  1.00  0.00     0.161 C 
BRANCH  18  19
HETATM   19  C14 UNK     1      21.816  -8.593  36.666  1.00  0.00    -0.040 A 
HETATM   20  C15 UNK     1      21.191  -8.171  35.501  1.00  0.00     0.010 A 
HETATM   21  C17 UNK     1      19.947  -7.546  35.578  1.00  0.00     0.024 A 
HETATM   22  C21 UNK     1      19.340  -7.348  36.819  1.00  0.00     0.034 A 
HETATM   23  C18 UNK     1      19.979  -7.776  37.983  1.00  0.00     0.024 A 
HETATM   24 Cl1  UNK     1      17.806  -6.575  36.913  1.00  0.00    -0.084 Cl
HETATM   25  C16 UNK     1      21.223  -8.402  37.907  1.00  0.00     0.010 A 
ENDBRANCH  18  19
ENDBRANCH  16  18
ENDBRANCH  13  14
ENDBRANCH   5  13
BRANCH  11  26
HETATM   26  O2  UNK     1      32.331  -4.798  37.817  1.00  0.00    -0.353 OA
HETATM   27  C19 UNK     1      32.219  -4.212  36.523  1.00  0.00     0.210 C 
ENDBRANCH  11  26
BRANCH  12  28
HETATM   28  O3  UNK     1      33.662  -7.237  37.847  1.00  0.00    -0.353 OA
HETATM   29  C20 UNK     1      34.110  -7.521  36.523  1.00  0.00     0.210 C 
ENDBRANCH  12  28
TORSDOF 6
ENDMDL
MODEL 9
REMARK VINA RESULT:      -8.0     10.348     13.775
REMARK  6 active torsions:
REMARK  status: ('A' for Active; 'I' for Inactive)
REMARK    1  A    between atoms: C10_17  and  O2_3 
REMARK    2  A    between atoms: C12_19  and  O3_4 
REMARK       I    between atoms: C11_18  and  N1_7 
REMARK    3  A    between atoms: C13_20  and  N1_7 
REMARK    4  A    between atoms: C3_10  and  C4_11 
REMARK    5  A    between atoms: C11_18  and  C4_11 
REMARK    6  A    between atoms: C13_20  and  C14_21 
ROOT
HETATM    1  O1  UNK     1      30.508  -4.515  38.055  1.00  0.00    -0.274 OA
HETATM    2  O4  UNK     1      28.508  -4.407  39.123  1.00  0.00    -0.259 OA
HETATM    3  C1  UNK     1      30.233  -7.330  37.945  1.00  0.00    -0.036 A 
HETATM    4  C2  UNK     1      31.426  -6.665  37.382  1.00  0.00     0.007 A 
HETATM    5  C3  UNK     1      29.282  -6.586  38.548  1.00  0.00     0.033 A 
HETATM    6  C5  UNK     1      31.521  -5.278  37.455  1.00  0.00     0.093 A 
HETATM    7  C6  UNK     1      32.493  -7.347  36.776  1.00  0.00     0.054 A 
HETATM    8  C7  UNK     1      29.383  -5.099  38.610  1.00  0.00     0.295 A 
HETATM    9  C8  UNK     1      30.151  -8.828  37.790  1.00  0.00     0.050 C 
HETATM   10  C9  UNK     1      32.615  -4.571  36.949  1.00  0.00     0.077 A 
HETATM   11  C10 UNK     1      33.597  -6.655  36.263  1.00  0.00     0.102 A 
HETATM   12  C12 UNK     1      33.657  -5.267  36.349  1.00  0.00     0.104 A 
ENDROOT
BRANCH   5  13
HETATM   13  C4  UNK     1      28.050  -7.141  39.217  1.00  0.00     0.148 C 
BRANCH  13  14
HETATM   14  C11 UNK     1      27.016  -7.432  38.156  1.00  0.00     0.222 C 
HETATM   15  O5  UNK     1      26.925  -6.767  37.125  1.00  0.00    -0.273 OA
HETATM   16  N1  UNK     1      26.197  -8.497  38.492  1.00  0.00    -0.357 N 
HETATM   17  H10 UNK     1      26.331  -8.973  39.380  1.00  0.00     0.162 HD
BRANCH  16  18
HETATM   18  C13 UNK     1      25.119  -8.959  37.648  1.00  0.00     0.161 C 
BRANCH  18  19
HETATM   19  C14 UNK     1      23.791  -8.387  38.070  1.00  0.00    -0.040 A 
HETATM   20  C15 UNK     1      22.707  -8.467  37.208  1.00  0.00     0.010 A 
HETATM   21  C17 UNK     1      21.478  -7.937  37.599  1.00  0.00     0.024 A 
HETATM   22  C21 UNK     1      21.344  -7.332  38.849  1.00  0.00     0.034 A 
HETATM   23  C18 UNK     1      22.442  -7.257  39.708  1.00  0.00     0.024 A 
HETATM   24 Cl1  UNK     1      19.828  -6.677  39.331  1.00  0.00    -0.084 Cl
HETATM   25  C16 UNK     1      23.671  -7.787  39.317  1.00  0.00     0.010 A 
ENDBRANCH  18  19
ENDBRANCH  16  18
ENDBRANCH  13  14
ENDBRANCH   5  13
BRANCH  11  26
HETATM   26  O2  UNK     1      34.611  -7.356  35.682  1.00  0.00    -0.353 OA
HETATM   27  C19 UNK     1      34.325  -8.003  34.444  1.00  0.00     0.210 C 
ENDBRANCH  11  26
BRANCH  12  28
HETATM   28  O3  UNK     1      34.726  -4.585  35.854  1.00  0.00    -0.353 OA
HETATM   29  C20 UNK     1      34.542  -3.897  34.618  1.00  0.00     0.210 C 
ENDBRANCH  12  28
TORSDOF 6
ENDMDL
MODEL 10
REMARK VINA RESULT:      -8.0     25.789     28.176
REMARK  6 active torsions:
REMARK  status: ('A' for Active; 'I' for Inactive)
REMARK    1  A    between atoms: C10_17  and  O2_3 
REMARK    2  A    between atoms: C12_19  and  O3_4 
REMARK       I    between atoms: C11_18  and  N1_7 
REMARK    3  A    between atoms: C13_20  and  N1_7 
REMARK    4  A    between atoms: C3_10  and  C4_11 
REMARK    5  A    between atoms: C11_18  and  C4_11 
REMARK    6  A    between atoms: C13_20  and  C14_21 
ROOT
HETATM    1  O1  UNK     1      14.060   9.892  10.071  1.00  0.00    -0.274 OA
HETATM    2  O4  UNK     1      13.044   8.076  10.977  1.00  0.00    -0.259 OA
HETATM    3  C1  UNK     1      16.465   8.405   9.934  1.00  0.00    -0.036 A 
HETATM    4  C2  UNK     1      16.416   9.806   9.469  1.00  0.00     0.007 A 
HETATM    5  C3  UNK     1      15.357   7.842  10.461  1.00  0.00     0.033 A 
HETATM    6  C5  UNK     1      15.213  10.501   9.552  1.00  0.00     0.093 A 
HETATM    7  C6  UNK     1      17.520  10.500   8.948  1.00  0.00     0.054 A 
HETATM    8  C7  UNK     1      14.068   8.587  10.534  1.00  0.00     0.295 A 
HETATM    9  C8  UNK     1      17.776   7.678   9.770  1.00  0.00     0.050 C 
HETATM   10  C9  UNK     1      15.080  11.829   9.137  1.00  0.00     0.077 A 
HETATM   11  C10 UNK     1      17.405  11.830   8.526  1.00  0.00     0.102 A 
HETATM   12  C12 UNK     1      16.185  12.494   8.619  1.00  0.00     0.104 A 
ENDROOT
BRANCH   5  13
HETATM   13  C4  UNK     1      15.288   6.447  11.029  1.00  0.00     0.148 C 
BRANCH  13  14
HETATM   14  C11 UNK     1      14.951   5.489   9.912  1.00  0.00     0.222 C 
HETATM   15  O5  UNK     1      15.762   4.671   9.479  1.00  0.00    -0.273 OA
HETATM   16  N1  UNK     1      13.660   5.658   9.440  1.00  0.00    -0.357 N 
HETATM   17  H10 UNK     1      13.068   6.379   9.843  1.00  0.00     0.162 HD
BRANCH  16  18
HETATM   18  C13 UNK     1      13.107   4.873   8.360  1.00  0.00     0.161 C 
BRANCH  18  19
HETATM   19  C14 UNK     1      11.769   5.400   7.911  1.00  0.00    -0.040 A 
HETATM   20  C15 UNK     1      10.726   5.482   8.822  1.00  0.00     0.010 A 
HETATM   21  C17 UNK     1       9.487   5.970   8.405  1.00  0.00     0.024 A 
HETATM   22  C21 UNK     1       9.304   6.371   7.081  1.00  0.00     0.034 A 
HETATM   23  C18 UNK     1      10.362   6.284   6.174  1.00  0.00     0.024 A 
HETATM   24 Cl1  UNK     1       7.777   6.972   6.567  1.00  0.00    -0.084 Cl
HETATM   25  C16 UNK     1      11.600   5.796   6.591  1.00  0.00     0.010 A 
ENDBRANCH  18  19
ENDBRANCH  16  18
ENDBRANCH  13  14
ENDBRANCH   5  13
BRANCH  11  26
HETATM   26  O2  UNK     1      18.501  12.467   8.026  1.00  0.00    -0.353 OA
HETATM   27  C19 UNK     1      18.774  12.293   6.638  1.00  0.00     0.210 C 
ENDBRANCH  11  26
BRANCH  12  28
HETATM   28  O3  UNK     1      16.063  13.787   8.213  1.00  0.00    -0.353 OA
HETATM   29  C20 UNK     1      15.290  14.028   7.039  1.00  0.00     0.210 C 
ENDBRANCH  12  28
TORSDOF 6
ENDMDL
