MODEL 1
REMARK VINA RESULT:      -9.3      0.000      0.000
REMARK  3 active torsions:
REMARK  status: ('A' for Active; 'I' for Inactive)
REMARK    1  A    between atoms: C1_8  and  S1_2 
REMARK    2  A    between atoms: N1_7  and  S1_2 
REMARK    3  A    between atoms: C5_12  and  N1_7 
ROOT
HETATM    1  S1  UNK     1      18.233   2.425  29.620  1.00  0.00     0.263 S 
HETATM    2  O2  UNK     1      17.149   2.548  30.587  1.00  0.00    -0.200 OA
HETATM    3  O3  UNK     1      17.923   2.529  28.200  1.00  0.00    -0.200 OA
ENDROOT
BRANCH   1   4
HETATM    4  C1  UNK     1      19.029   0.897  29.907  1.00  0.00     0.080 A 
HETATM    5  C3  UNK     1      19.095   0.377  31.203  1.00  0.00     0.039 A 
HETATM    6  C2  UNK     1      19.730  -0.845  31.435  1.00  0.00    -0.001 A 
HETATM    7  C10 UNK     1      19.824  -1.431  32.761  1.00  0.00     0.020 A 
HETATM    8  C4  UNK     1      20.292  -1.526  30.358  1.00  0.00     0.089 A 
HETATM    9  C14 UNK     1      20.441  -2.602  32.935  1.00  0.00     0.083 A 
HETATM   10  C15 UNK     1      21.043  -3.342  31.811  1.00  0.00     0.288 A 
HETATM   11  O1  UNK     1      20.940  -2.763  30.551  1.00  0.00    -0.275 OA
HETATM   12  O4  UNK     1      21.606  -4.417  31.988  1.00  0.00    -0.260 OA
HETATM   13  C7  UNK     1      20.236  -1.020  29.061  1.00  0.00     0.040 A 
HETATM   14  C6  UNK     1      19.600   0.200  28.838  1.00  0.00     0.028 A 
ENDBRANCH   1   4
BRANCH   1  15
HETATM   15  N1  UNK     1      19.451   3.572  30.031  1.00  0.00    -0.281 N 
HETATM   16  H2  UNK     1      20.178   3.730  29.321  1.00  0.00     0.179 HD
BRANCH  15  17
HETATM   17  C5  UNK     1      19.056   4.746  30.761  1.00  0.00     0.044 A 
HETATM   18  C8  UNK     1      19.320   4.831  32.123  1.00  0.00     0.054 A 
HETATM   19  C12 UNK     1      18.938   5.971  32.830  1.00  0.00     0.042 A 
HETATM   20  C11 UNK     1      18.295   7.017  32.170  1.00  0.00    -0.040 A 
HETATM   21 Cl1  UNK     1      19.279   6.051  34.520  1.00  0.00    -0.084 Cl
HETATM   22  C13 UNK     1      18.033   6.924  30.803  1.00  0.00     0.011 A 
HETATM   23  C16 UNK     1      17.870   8.256  32.891  1.00  0.00     0.050 C 
HETATM   24  C9  UNK     1      18.415   5.784  30.096  1.00  0.00     0.031 A 
ENDBRANCH  15  17
ENDBRANCH   1  15
TORSDOF 3
ENDMDL
MODEL 2
REMARK VINA RESULT:      -9.1      6.815      9.190
REMARK  3 active torsions:
REMARK  status: ('A' for Active; 'I' for Inactive)
REMARK    1  A    between atoms: C1_8  and  S1_2 
REMARK    2  A    between atoms: N1_7  and  S1_2 
REMARK    3  A    between atoms: C5_12  and  N1_7 
ROOT
HETATM    1  S1  UNK     1      19.978  -4.055  36.476  1.00  0.00     0.263 S 
HETATM    2  O2  UNK     1      20.433  -3.839  35.108  1.00  0.00    -0.200 OA
HETATM    3  O3  UNK     1      20.793  -3.554  37.576  1.00  0.00    -0.200 OA
ENDROOT
BRANCH   1   4
HETATM    4  C1  UNK     1      19.744  -5.773  36.693  1.00  0.00     0.080 A 
HETATM    5  C3  UNK     1      20.049  -6.368  37.921  1.00  0.00     0.039 A 
HETATM    6  C2  UNK     1      19.862  -7.740  38.098  1.00  0.00    -0.001 A 
HETATM    7  C10 UNK     1      20.160  -8.409  39.353  1.00  0.00     0.020 A 
HETATM    8  C4  UNK     1      19.372  -8.495  37.035  1.00  0.00     0.089 A 
HETATM    9  C14 UNK     1      19.966  -9.724  39.476  1.00  0.00     0.083 A 
HETATM   10  C15 UNK     1      19.449 -10.544  38.366  1.00  0.00     0.288 A 
HETATM   11  O1  UNK     1      19.169  -9.883  37.174  1.00  0.00    -0.275 OA
HETATM   12  O4  UNK     1      19.275 -11.751  38.495  1.00  0.00    -0.260 OA
HETATM   13  C7  UNK     1      19.066  -7.916  35.805  1.00  0.00     0.040 A 
HETATM   14  C6  UNK     1      19.254  -6.546  35.637  1.00  0.00     0.028 A 
ENDBRANCH   1   4
BRANCH   1  15
HETATM   15  N1  UNK     1      18.378  -3.433  36.614  1.00  0.00    -0.281 N 
HETATM   16  H2  UNK     1      17.753  -3.935  37.258  1.00  0.00     0.179 HD
BRANCH  15  17
HETATM   17  C5  UNK     1      18.203  -2.006  36.595  1.00  0.00     0.044 A 
HETATM   18  C8  UNK     1      18.305  -1.315  35.393  1.00  0.00     0.054 A 
HETATM   19  C12 UNK     1      18.133   0.068  35.376  1.00  0.00     0.042 A 
HETATM   20  C11 UNK     1      17.861   0.752  36.560  1.00  0.00    -0.040 A 
HETATM   21 Cl1  UNK     1      18.265   0.901  33.869  1.00  0.00    -0.084 Cl
HETATM   22  C13 UNK     1      17.760   0.052  37.763  1.00  0.00     0.011 A 
HETATM   23  C16 UNK     1      17.670   2.235  36.584  1.00  0.00     0.050 C 
HETATM   24  C9  UNK     1      17.932  -1.332  37.780  1.00  0.00     0.031 A 
ENDBRANCH  15  17
ENDBRANCH   1  15
TORSDOF 3
ENDMDL
MODEL 3
REMARK VINA RESULT:      -8.9      5.965     10.207
REMARK  3 active torsions:
REMARK  status: ('A' for Active; 'I' for Inactive)
REMARK    1  A    between atoms: C1_8  and  S1_2 
REMARK    2  A    between atoms: N1_7  and  S1_2 
REMARK    3  A    between atoms: C5_12  and  N1_7 
ROOT
HETATM    1  S1  UNK     1      19.844  -3.196  36.697  1.00  0.00     0.263 S 
HETATM    2  O2  UNK     1      19.438  -2.399  37.848  1.00  0.00    -0.200 OA
HETATM    3  O3  UNK     1      21.210  -3.702  36.640  1.00  0.00    -0.200 OA
ENDROOT
BRANCH   1   4
HETATM    4  C1  UNK     1      19.539  -2.251  35.261  1.00  0.00     0.080 A 
HETATM    5  C3  UNK     1      20.238  -2.527  34.082  1.00  0.00     0.039 A 
HETATM    6  C2  UNK     1      19.996  -1.774  32.932  1.00  0.00    -0.001 A 
HETATM    7  C10 UNK     1      20.693  -2.020  31.681  1.00  0.00     0.020 A 
HETATM    8  C4  UNK     1      19.053  -0.750  32.985  1.00  0.00     0.089 A 
HETATM    9  C14 UNK     1      20.428  -1.273  30.607  1.00  0.00     0.083 A 
HETATM   10  C15 UNK     1      19.435  -0.185  30.637  1.00  0.00     0.288 A 
HETATM   11  O1  UNK     1      18.779   0.032  31.845  1.00  0.00    -0.275 OA
HETATM   12  O4  UNK     1      19.202   0.491  29.642  1.00  0.00    -0.260 OA
HETATM   13  C7  UNK     1      18.350  -0.461  34.153  1.00  0.00     0.040 A 
HETATM   14  C6  UNK     1      18.597  -1.219  35.296  1.00  0.00     0.028 A 
ENDBRANCH   1   4
BRANCH   1  15
HETATM   15  N1  UNK     1      18.736  -4.505  36.534  1.00  0.00    -0.281 N 
HETATM   16  H2  UNK     1      17.934  -4.341  35.912  1.00  0.00     0.179 HD
BRANCH  15  17
HETATM   17  C5  UNK     1      19.268  -5.840  36.491  1.00  0.00     0.044 A 
HETATM   18  C8  UNK     1      19.329  -6.596  37.655  1.00  0.00     0.054 A 
HETATM   19  C12 UNK     1      19.843  -7.891  37.612  1.00  0.00     0.042 A 
HETATM   20  C11 UNK     1      20.294  -8.422  36.403  1.00  0.00    -0.040 A 
HETATM   21 Cl1  UNK     1      19.906  -8.808  39.073  1.00  0.00    -0.084 Cl
HETATM   22  C13 UNK     1      20.229  -7.658  35.238  1.00  0.00     0.011 A 
HETATM   23  C16 UNK     1      20.851  -9.807  36.314  1.00  0.00     0.050 C 
HETATM   24  C9  UNK     1      19.715  -6.362  35.282  1.00  0.00     0.031 A 
ENDBRANCH  15  17
ENDBRANCH   1  15
TORSDOF 3
ENDMDL
MODEL 4
REMARK VINA RESULT:      -8.8      3.886      8.787
REMARK  3 active torsions:
REMARK  status: ('A' for Active; 'I' for Inactive)
REMARK    1  A    between atoms: C1_8  and  S1_2 
REMARK    2  A    between atoms: N1_7  and  S1_2 
REMARK    3  A    between atoms: C5_12  and  N1_7 
ROOT
HETATM    1  S1  UNK     1      19.009   5.482  31.048  1.00  0.00     0.263 S 
HETATM    2  O2  UNK     1      20.413   5.305  31.402  1.00  0.00    -0.200 OA
HETATM    3  O3  UNK     1      18.676   5.920  29.697  1.00  0.00    -0.200 OA
ENDROOT
BRANCH   1   4
HETATM    4  C1  UNK     1      18.311   6.607  32.187  1.00  0.00     0.080 A 
HETATM    5  C3  UNK     1      16.929   6.813  32.205  1.00  0.00     0.039 A 
HETATM    6  C2  UNK     1      16.367   7.711  33.115  1.00  0.00    -0.001 A 
HETATM    7  C10 UNK     1      14.937   7.961  33.178  1.00  0.00     0.020 A 
HETATM    8  C4  UNK     1      17.207   8.391  33.994  1.00  0.00     0.089 A 
HETATM    9  C14 UNK     1      14.446   8.829  34.065  1.00  0.00     0.083 A 
HETATM   10  C15 UNK     1      15.313   9.560  35.006  1.00  0.00     0.288 A 
HETATM   11  O1  UNK     1      16.679   9.305  34.929  1.00  0.00    -0.275 OA
HETATM   12  O4  UNK     1      14.846  10.353  35.815  1.00  0.00    -0.260 OA
HETATM   13  C7  UNK     1      18.587   8.198  33.986  1.00  0.00     0.040 A 
HETATM   14  C6  UNK     1      19.139   7.299  33.075  1.00  0.00     0.028 A 
ENDBRANCH   1   4
BRANCH   1  15
HETATM   15  N1  UNK     1      18.178   4.016  31.402  1.00  0.00    -0.281 N 
HETATM   16  H2  UNK     1      17.193   4.114  31.683  1.00  0.00     0.179 HD
BRANCH  15  17
HETATM   17  C5  UNK     1      18.461   2.864  30.589  1.00  0.00     0.044 A 
HETATM   18  C8  UNK     1      19.285   1.860  31.081  1.00  0.00     0.054 A 
HETATM   19  C12 UNK     1      19.557   0.743  30.292  1.00  0.00     0.042 A 
HETATM   20  C11 UNK     1      19.003   0.638  29.016  1.00  0.00    -0.040 A 
HETATM   21 Cl1  UNK     1      20.584  -0.491  30.928  1.00  0.00    -0.084 Cl
HETATM   22  C13 UNK     1      18.176   1.651  28.529  1.00  0.00     0.011 A 
HETATM   23  C16 UNK     1      19.270  -0.544  28.140  1.00  0.00     0.050 C 
HETATM   24  C9  UNK     1      17.905   2.768  29.318  1.00  0.00     0.031 A 
ENDBRANCH  15  17
ENDBRANCH   1  15
TORSDOF 3
ENDMDL
MODEL 5
REMARK VINA RESULT:      -8.4      6.320      7.954
REMARK  3 active torsions:
REMARK  status: ('A' for Active; 'I' for Inactive)
REMARK    1  A    between atoms: C1_8  and  S1_2 
REMARK    2  A    between atoms: N1_7  and  S1_2 
REMARK    3  A    between atoms: C5_12  and  N1_7 
ROOT
HETATM    1  S1  UNK     1      14.746   7.464  32.775  1.00  0.00     0.263 S 
HETATM    2  O2  UNK     1      14.315   7.365  34.165  1.00  0.00    -0.200 OA
HETATM    3  O3  UNK     1      14.068   6.654  31.770  1.00  0.00    -0.200 OA
ENDROOT
BRANCH   1   4
HETATM    4  C1  UNK     1      16.454   7.106  32.722  1.00  0.00     0.080 A 
HETATM    5  C3  UNK     1      17.061   6.784  31.504  1.00  0.00     0.039 A 
HETATM    6  C2  UNK     1      18.427   6.498  31.458  1.00  0.00    -0.001 A 
HETATM    7  C10 UNK     1      19.108   6.160  30.220  1.00  0.00     0.020 A 
HETATM    8  C4  UNK     1      19.163   6.538  32.640  1.00  0.00     0.089 A 
HETATM    9  C14 UNK     1      20.416   5.894  30.224  1.00  0.00     0.083 A 
HETATM   10  C15 UNK     1      21.217   5.931  31.462  1.00  0.00     0.288 A 
HETATM   11  O1  UNK     1      20.544   6.257  32.635  1.00  0.00    -0.275 OA
HETATM   12  O4  UNK     1      22.418   5.684  31.449  1.00  0.00    -0.260 OA
HETATM   13  C7  UNK     1      18.572   6.855  33.861  1.00  0.00     0.040 A 
HETATM   14  C6  UNK     1      17.208   7.141  33.898  1.00  0.00     0.028 A 
ENDBRANCH   1   4
BRANCH   1  15
HETATM   15  N1  UNK     1      14.690   9.123  32.313  1.00  0.00    -0.281 N 
HETATM   16  H2  UNK     1      14.040   9.356  31.551  1.00  0.00     0.179 HD
BRANCH  15  17
HETATM   17  C5  UNK     1      14.786  10.117  33.347  1.00  0.00     0.044 A 
HETATM   18  C8  UNK     1      13.630  10.695  33.858  1.00  0.00     0.054 A 
HETATM   19  C12 UNK     1      13.726  11.658  34.862  1.00  0.00     0.042 A 
HETATM   20  C11 UNK     1      14.976  12.036  35.348  1.00  0.00    -0.040 A 
HETATM   21 Cl1  UNK     1      12.274  12.359  35.479  1.00  0.00    -0.084 Cl
HETATM   22  C13 UNK     1      16.133  11.451  34.831  1.00  0.00     0.011 A 
HETATM   23  C16 UNK     1      15.122  13.064  36.425  1.00  0.00     0.050 C 
HETATM   24  C9  UNK     1      16.037  10.489  33.827  1.00  0.00     0.031 A 
ENDBRANCH  15  17
ENDBRANCH   1  15
TORSDOF 3
ENDMDL
MODEL 6
REMARK VINA RESULT:      -8.2      6.645     10.510
REMARK  3 active torsions:
REMARK  status: ('A' for Active; 'I' for Inactive)
REMARK    1  A    between atoms: C1_8  and  S1_2 
REMARK    2  A    between atoms: N1_7  and  S1_2 
REMARK    3  A    between atoms: C5_12  and  N1_7 
ROOT
HETATM    1  S1  UNK     1      15.317   7.715  31.985  1.00  0.00     0.263 S 
HETATM    2  O2  UNK     1      16.148   8.170  30.877  1.00  0.00    -0.200 OA
HETATM    3  O3  UNK     1      13.942   7.314  31.713  1.00  0.00    -0.200 OA
ENDROOT
BRANCH   1   4
HETATM    4  C1  UNK     1      15.301   8.979  33.191  1.00  0.00     0.080 A 
HETATM    5  C3  UNK     1      16.351   9.900  33.248  1.00  0.00     0.039 A 
HETATM    6  C2  UNK     1      16.342  10.912  34.210  1.00  0.00    -0.001 A 
HETATM    7  C10 UNK     1      17.406  11.896  34.314  1.00  0.00     0.020 A 
HETATM    8  C4  UNK     1      15.274  10.982  35.103  1.00  0.00     0.089 A 
HETATM    9  C14 UNK     1      17.354  12.845  35.250  1.00  0.00     0.083 A 
HETATM   10  C15 UNK     1      16.235  12.941  36.205  1.00  0.00     0.288 A 
HETATM   11  O1  UNK     1      15.227  11.989  36.087  1.00  0.00    -0.275 OA
HETATM   12  O4  UNK     1      16.202  13.820  37.059  1.00  0.00    -0.260 OA
HETATM   13  C7  UNK     1      14.221  10.070  35.059  1.00  0.00     0.040 A 
HETATM   14  C6  UNK     1      14.239   9.064  34.095  1.00  0.00     0.028 A 
ENDBRANCH   1   4
BRANCH   1  15
HETATM   15  N1  UNK     1      16.144   6.434  32.786  1.00  0.00    -0.281 N 
HETATM   16  H2  UNK     1      15.691   5.512  32.747  1.00  0.00     0.179 HD
BRANCH  15  17
HETATM   17  C5  UNK     1      17.579   6.405  32.712  1.00  0.00     0.044 A 
HETATM   18  C8  UNK     1      18.201   6.166  31.492  1.00  0.00     0.054 A 
HETATM   19  C12 UNK     1      19.593   6.140  31.420  1.00  0.00     0.042 A 
HETATM   20  C11 UNK     1      20.355   6.351  32.569  1.00  0.00    -0.040 A 
HETATM   21 Cl1  UNK     1      20.340   5.842  29.892  1.00  0.00    -0.084 Cl
HETATM   22  C13 UNK     1      19.723   6.589  33.791  1.00  0.00     0.011 A 
HETATM   23  C16 UNK     1      21.849   6.331  32.535  1.00  0.00     0.050 C 
HETATM   24  C9  UNK     1      18.331   6.616  33.862  1.00  0.00     0.031 A 
ENDBRANCH  15  17
ENDBRANCH   1  15
TORSDOF 3
ENDMDL
MODEL 7
REMARK VINA RESULT:      -8.1     22.375     24.728
REMARK  3 active torsions:
REMARK  status: ('A' for Active; 'I' for Inactive)
REMARK    1  A    between atoms: C1_8  and  S1_2 
REMARK    2  A    between atoms: N1_7  and  S1_2 
REMARK    3  A    between atoms: C5_12  and  N1_7 
ROOT
HETATM    1  S1  UNK     1      13.984   6.189   9.917  1.00  0.00     0.263 S 
HETATM    2  O2  UNK     1      12.804   6.788  10.530  1.00  0.00    -0.200 OA
HETATM    3  O3  UNK     1      14.616   5.051  10.574  1.00  0.00    -0.200 OA
ENDROOT
BRANCH   1   4
HETATM    4  C1  UNK     1      15.176   7.449   9.716  1.00  0.00     0.080 A 
HETATM    5  C3  UNK     1      14.832   8.636   9.063  1.00  0.00     0.039 A 
HETATM    6  C2  UNK     1      15.782   9.647   8.902  1.00  0.00    -0.001 A 
HETATM    7  C10 UNK     1      15.477  10.900   8.233  1.00  0.00     0.020 A 
HETATM    8  C4  UNK     1      17.068   9.447   9.399  1.00  0.00     0.089 A 
HETATM    9  C14 UNK     1      16.419  11.838   8.102  1.00  0.00     0.083 A 
HETATM   10  C15 UNK     1      17.786  11.650   8.621  1.00  0.00     0.288 A 
HETATM   11  O1  UNK     1      18.055  10.443   9.258  1.00  0.00    -0.275 OA
HETATM   12  O4  UNK     1      18.638  12.521   8.493  1.00  0.00    -0.260 OA
HETATM   13  C7  UNK     1      17.426   8.268  10.051  1.00  0.00     0.040 A 
HETATM   14  C6  UNK     1      16.471   7.266  10.209  1.00  0.00     0.028 A 
ENDBRANCH   1   4
BRANCH   1  15
HETATM   15  N1  UNK     1      13.592   5.773   8.293  1.00  0.00    -0.281 N 
HETATM   16  H2  UNK     1      14.037   4.922   7.926  1.00  0.00     0.179 HD
BRANCH  15  17
HETATM   17  C5  UNK     1      12.242   5.987   7.847  1.00  0.00     0.044 A 
HETATM   18  C8  UNK     1      11.180   5.633   8.670  1.00  0.00     0.054 A 
HETATM   19  C12 UNK     1       9.871   5.843   8.237  1.00  0.00     0.042 A 
HETATM   20  C11 UNK     1       9.633   6.405   6.983  1.00  0.00    -0.040 A 
HETATM   21 Cl1  UNK     1       8.571   5.394   9.280  1.00  0.00    -0.084 Cl
HETATM   22  C13 UNK     1      10.704   6.758   6.162  1.00  0.00     0.011 A 
HETATM   23  C16 UNK     1       8.245   6.647   6.482  1.00  0.00     0.050 C 
HETATM   24  C9  UNK     1      12.013   6.548   6.595  1.00  0.00     0.031 A 
ENDBRANCH  15  17
ENDBRANCH   1  15
TORSDOF 3
ENDMDL
MODEL 8
REMARK VINA RESULT:      -8.1     13.190     15.410
REMARK  3 active torsions:
REMARK  status: ('A' for Active; 'I' for Inactive)
REMARK    1  A    between atoms: C1_8  and  S1_2 
REMARK    2  A    between atoms: N1_7  and  S1_2 
REMARK    3  A    between atoms: C5_12  and  N1_7 
ROOT
HETATM    1  S1  UNK     1      29.722  -9.561  34.929  1.00  0.00     0.263 S 
HETATM    2  O2  UNK     1      28.398 -10.098  34.639  1.00  0.00    -0.200 OA
HETATM    3  O3  UNK     1      30.794 -10.485  35.277  1.00  0.00    -0.200 OA
ENDROOT
BRANCH   1   4
HETATM    4  C1  UNK     1      29.551  -8.394  36.217  1.00  0.00     0.080 A 
HETATM    5  C3  UNK     1      30.055  -7.100  36.056  1.00  0.00     0.039 A 
HETATM    6  C2  UNK     1      29.919  -6.164  37.083  1.00  0.00    -0.001 A 
HETATM    7  C10 UNK     1      30.422  -4.805  36.968  1.00  0.00     0.020 A 
HETATM    8  C4  UNK     1      29.278  -6.545  38.260  1.00  0.00     0.089 A 
HETATM    9  C14 UNK     1      30.269  -3.945  37.977  1.00  0.00     0.083 A 
HETATM   10  C15 UNK     1      29.595  -4.324  39.232  1.00  0.00     0.288 A 
HETATM   11  O1  UNK     1      29.120  -5.629  39.320  1.00  0.00    -0.275 OA
HETATM   12  O4  UNK     1      29.461  -3.522  40.149  1.00  0.00    -0.260 OA
HETATM   13  C7  UNK     1      28.773  -7.832  38.436  1.00  0.00     0.040 A 
HETATM   14  C6  UNK     1      28.912  -8.759  37.405  1.00  0.00     0.028 A 
ENDBRANCH   1   4
BRANCH   1  15
HETATM   15  N1  UNK     1      30.209  -8.587  33.594  1.00  0.00    -0.281 N 
HETATM   16  H2  UNK     1      31.095  -8.852  33.144  1.00  0.00     0.179 HD
BRANCH  15  17
HETATM   17  C5  UNK     1      29.193  -8.116  32.693  1.00  0.00     0.044 A 
HETATM   18  C8  UNK     1      28.917  -8.829  31.532  1.00  0.00     0.054 A 
HETATM   19  C12 UNK     1      27.930  -8.371  30.660  1.00  0.00     0.042 A 
HETATM   20  C11 UNK     1      27.225  -7.204  30.955  1.00  0.00    -0.040 A 
HETATM   21 Cl1  UNK     1      27.607  -9.276  29.226  1.00  0.00    -0.084 Cl
HETATM   22  C13 UNK     1      27.508  -6.495  32.122  1.00  0.00     0.011 A 
HETATM   23  C16 UNK     1      26.159  -6.681  30.046  1.00  0.00     0.050 C 
HETATM   24  C9  UNK     1      28.495  -6.952  32.994  1.00  0.00     0.031 A 
ENDBRANCH  15  17
ENDBRANCH   1  15
TORSDOF 3
ENDMDL
MODEL 9
REMARK VINA RESULT:      -8.1      3.077      3.626
REMARK  3 active torsions:
REMARK  status: ('A' for Active; 'I' for Inactive)
REMARK    1  A    between atoms: C1_8  and  S1_2 
REMARK    2  A    between atoms: N1_7  and  S1_2 
REMARK    3  A    between atoms: C5_12  and  N1_7 
ROOT
HETATM    1  S1  UNK     1      18.529   2.214  30.880  1.00  0.00     0.263 S 
HETATM    2  O2  UNK     1      17.156   2.627  30.613  1.00  0.00    -0.200 OA
HETATM    3  O3  UNK     1      19.269   1.518  29.835  1.00  0.00    -0.200 OA
ENDROOT
BRANCH   1   4
HETATM    4  C1  UNK     1      18.514   1.215  32.313  1.00  0.00     0.080 A 
HETATM    5  C3  UNK     1      18.182   1.776  33.549  1.00  0.00     0.039 A 
HETATM    6  C2  UNK     1      18.168   0.980  34.697  1.00  0.00    -0.001 A 
HETATM    7  C10 UNK     1      17.828   1.510  36.006  1.00  0.00     0.020 A 
HETATM    8  C4  UNK     1      18.490  -0.371  34.583  1.00  0.00     0.089 A 
HETATM    9  C14 UNK     1      17.828   0.711  37.075  1.00  0.00     0.083 A 
HETATM   10  C15 UNK     1      18.165  -0.721  36.980  1.00  0.00     0.288 A 
HETATM   11  O1  UNK     1      18.486  -1.208  35.717  1.00  0.00    -0.275 OA
HETATM   12  O4  UNK     1      18.160  -1.442  37.971  1.00  0.00    -0.260 OA
HETATM   13  C7  UNK     1      18.825  -0.943  33.357  1.00  0.00     0.040 A 
HETATM   14  C6  UNK     1      18.836  -0.142  32.217  1.00  0.00     0.028 A 
ENDBRANCH   1   4
BRANCH   1  15
HETATM   15  N1  UNK     1      19.416   3.599  31.391  1.00  0.00    -0.281 N 
HETATM   16  H2  UNK     1      20.350   3.713  30.977  1.00  0.00     0.179 HD
BRANCH  15  17
HETATM   17  C5  UNK     1      18.695   4.826  31.596  1.00  0.00     0.044 A 
HETATM   18  C8  UNK     1      18.108   5.082  32.830  1.00  0.00     0.054 A 
HETATM   19  C12 UNK     1      17.411   6.273  33.029  1.00  0.00     0.042 A 
HETATM   20  C11 UNK     1      17.304   7.200  31.992  1.00  0.00    -0.040 A 
HETATM   21 Cl1  UNK     1      16.693   6.566  34.571  1.00  0.00    -0.084 Cl
HETATM   22  C13 UNK     1      17.896   6.936  30.757  1.00  0.00     0.011 A 
HETATM   23  C16 UNK     1      16.566   8.489  32.165  1.00  0.00     0.050 C 
HETATM   24  C9  UNK     1      18.593   5.745  30.558  1.00  0.00     0.031 A 
ENDBRANCH  15  17
ENDBRANCH   1  15
TORSDOF 3
ENDMDL
MODEL 10
REMARK VINA RESULT:      -8.0     13.256     15.392
REMARK  3 active torsions:
REMARK  status: ('A' for Active; 'I' for Inactive)
REMARK    1  A    between atoms: C1_8  and  S1_2 
REMARK    2  A    between atoms: N1_7  and  S1_2 
REMARK    3  A    between atoms: C5_12  and  N1_7 
ROOT
HETATM    1  S1  UNK     1      31.667  -7.808  33.722  1.00  0.00     0.263 S 
HETATM    2  O2  UNK     1      32.704  -8.729  34.172  1.00  0.00    -0.200 OA
HETATM    3  O3  UNK     1      31.893  -7.035  32.507  1.00  0.00    -0.200 OA
ENDROOT
BRANCH   1   4
HETATM    4  C1  UNK     1      31.334  -6.703  35.033  1.00  0.00     0.080 A 
HETATM    5  C3  UNK     1      30.417  -7.057  36.027  1.00  0.00     0.039 A 
HETATM    6  C2  UNK     1      30.149  -6.177  37.077  1.00  0.00    -0.001 A 
HETATM    7  C10 UNK     1      29.207  -6.495  38.137  1.00  0.00     0.020 A 
HETATM    8  C4  UNK     1      30.808  -4.950  37.111  1.00  0.00     0.089 A 
HETATM    9  C14 UNK     1      28.983  -5.621  39.120  1.00  0.00     0.083 A 
HETATM   10  C15 UNK     1      29.668  -4.317  39.178  1.00  0.00     0.288 A 
HETATM   11  O1  UNK     1      30.566  -4.034  38.155  1.00  0.00    -0.275 OA
HETATM   12  O4  UNK     1      29.452  -3.526  40.089  1.00  0.00    -0.260 OA
HETATM   13  C7  UNK     1      31.723  -4.582  36.126  1.00  0.00     0.040 A 
HETATM   14  C6  UNK     1      31.985  -5.468  35.083  1.00  0.00     0.028 A 
ENDBRANCH   1   4
BRANCH   1  15
HETATM   15  N1  UNK     1      30.193  -8.688  33.581  1.00  0.00    -0.281 N 
HETATM   16  H2  UNK     1      29.826  -9.093  34.452  1.00  0.00     0.179 HD
BRANCH  15  17
HETATM   17  C5  UNK     1      29.190  -8.188  32.680  1.00  0.00     0.044 A 
HETATM   18  C8  UNK     1      28.921  -8.873  31.501  1.00  0.00     0.054 A 
HETATM   19  C12 UNK     1      27.947  -8.389  30.629  1.00  0.00     0.042 A 
HETATM   20  C11 UNK     1      27.250  -7.222  30.941  1.00  0.00    -0.040 A 
HETATM   21 Cl1  UNK     1      27.632  -9.260  29.172  1.00  0.00    -0.084 Cl
HETATM   22  C13 UNK     1      27.526  -6.540  32.126  1.00  0.00     0.011 A 
HETATM   23  C16 UNK     1      26.198  -6.670  30.033  1.00  0.00     0.050 C 
HETATM   24  C9  UNK     1      28.500  -7.025  32.998  1.00  0.00     0.031 A 
ENDBRANCH  15  17
ENDBRANCH   1  15
TORSDOF 3
ENDMDL
