MODEL 1
REMARK VINA RESULT:      -9.5      0.000      0.000
REMARK  6 active torsions:
REMARK  status: ('A' for Active; 'I' for Inactive)
REMARK    1  A    between atoms: C1_7  and  O1_4 
REMARK    2  A    between atoms: C4_10  and  O1_4 
REMARK    3  A    between atoms: C3_9  and  O2_5 
REMARK    4  A    between atoms: C2_8  and  C9_15 
REMARK    5  A    between atoms: C4_10  and  C6_12 
REMARK    6  A    between atoms: C10_16  and  C11_17 
ROOT
HETATM    1  N1  UNK     1      21.962  -1.708  35.327  1.00  0.00    -0.191 NA
HETATM    2  C9  UNK     1      18.662  -2.451  35.998  1.00  0.00     0.036 C 
HETATM    3  C10 UNK     1      19.887  -2.999  36.215  1.00  0.00     0.055 C 
HETATM    4  C23 UNK     1      21.029  -2.278  35.720  1.00  0.00     0.100 C 
ENDROOT
BRANCH   3   5
HETATM    5  C11 UNK     1      20.098  -4.256  36.917  1.00  0.00    -0.015 A 
HETATM    6  C16 UNK     1      19.157  -5.279  36.813  1.00  0.00     0.014 A 
HETATM    7  C19 UNK     1      19.359  -6.483  37.488  1.00  0.00     0.020 A 
HETATM    8  C21 UNK     1      20.502  -6.664  38.265  1.00  0.00     0.011 A 
HETATM    9 Br2  UNK     1      20.775  -8.296  39.181  1.00  0.00    -0.051 Br
HETATM   10  C20 UNK     1      21.444  -5.641  38.370  1.00  0.00     0.020 A 
HETATM   11  C17 UNK     1      21.242  -4.436  37.695  1.00  0.00     0.014 A 
ENDBRANCH   3   5
BRANCH   2  12
HETATM   12  C2  UNK     1      18.402  -1.182  35.302  1.00  0.00    -0.015 A 
HETATM   13  C5  UNK     1      18.623  -1.154  33.931  1.00  0.00     0.052 A 
HETATM   14  C3  UNK     1      18.392   0.023  33.220  1.00  0.00     0.102 A 
HETATM   15  C1  UNK     1      17.941   1.163  33.886  1.00  0.00     0.103 A 
HETATM   16  C7  UNK     1      17.723   1.125  35.263  1.00  0.00     0.059 A 
HETATM   17  C8  UNK     1      17.954  -0.052  35.974  1.00  0.00     0.024 A 
HETATM   18 Br1  UNK     1      17.636  -0.034  37.848  1.00  0.00    -0.050 Br
BRANCH  14  19
HETATM   19  O2  UNK     1      18.609   0.047  31.875  1.00  0.00    -0.353 OA
HETATM   20  C22 UNK     1      19.667  -0.768  31.375  1.00  0.00     0.210 C 
ENDBRANCH  14  19
BRANCH  15  21
HETATM   21  O1  UNK     1      17.711   2.319  33.202  1.00  0.00    -0.344 OA
BRANCH  21  22
HETATM   22  C4  UNK     1      18.357   3.496  33.682  1.00  0.00     0.216 C 
BRANCH  22  23
HETATM   23  C6  UNK     1      18.730   4.360  32.515  1.00  0.00    -0.012 A 
HETATM   24  C12 UNK     1      19.176   5.667  32.690  1.00  0.00     0.042 A 
HETATM   25 Cl1  UNK     1      19.323   6.365  34.262  1.00  0.00    -0.084 Cl
HETATM   26  C14 UNK     1      19.513   6.440  31.581  1.00  0.00     0.024 A 
HETATM   27  C18 UNK     1      19.405   5.903  30.297  1.00  0.00     0.002 A 
HETATM   28  C15 UNK     1      18.959   4.593  30.125  1.00  0.00     0.001 A 
HETATM   29  C13 UNK     1      18.621   3.820  31.236  1.00  0.00     0.011 A 
ENDBRANCH  22  23
ENDBRANCH  21  22
ENDBRANCH  15  21
ENDBRANCH   2  12
TORSDOF 6
ENDMDL
MODEL 2
REMARK VINA RESULT:      -8.5      5.476     10.445
REMARK  6 active torsions:
REMARK  status: ('A' for Active; 'I' for Inactive)
REMARK    1  A    between atoms: C1_7  and  O1_4 
REMARK    2  A    between atoms: C4_10  and  O1_4 
REMARK    3  A    between atoms: C3_9  and  O2_5 
REMARK    4  A    between atoms: C2_8  and  C9_15 
REMARK    5  A    between atoms: C4_10  and  C6_12 
REMARK    6  A    between atoms: C10_16  and  C11_17 
ROOT
HETATM    1  N1  UNK     1      21.372   6.541  33.030  1.00  0.00    -0.191 NA
HETATM    2  C9  UNK     1      17.931   6.462  33.229  1.00  0.00     0.036 C 
HETATM    3  C10 UNK     1      18.933   7.366  33.392  1.00  0.00     0.055 C 
HETATM    4  C23 UNK     1      20.280   6.900  33.190  1.00  0.00     0.100 C 
ENDROOT
BRANCH   3   5
HETATM    5  C11 UNK     1      18.716   8.759  33.749  1.00  0.00    -0.015 A 
HETATM    6  C16 UNK     1      17.434   9.303  33.687  1.00  0.00     0.014 A 
HETATM    7  C19 UNK     1      17.226  10.640  34.026  1.00  0.00     0.020 A 
HETATM    8  C21 UNK     1      18.301  11.433  34.428  1.00  0.00     0.011 A 
HETATM    9 Br2  UNK     1      18.020  13.245  34.887  1.00  0.00    -0.051 Br
HETATM   10  C20 UNK     1      19.584  10.889  34.490  1.00  0.00     0.020 A 
HETATM   11  C17 UNK     1      19.792   9.552  34.150  1.00  0.00     0.014 A 
ENDBRANCH   3   5
BRANCH   2  12
HETATM   12  C2  UNK     1      18.102   5.048  32.863  1.00  0.00    -0.015 A 
HETATM   13  C5  UNK     1      18.009   4.113  33.886  1.00  0.00     0.052 A 
HETATM   14  C3  UNK     1      18.163   2.757  33.596  1.00  0.00     0.102 A 
HETATM   15  C1  UNK     1      18.409   2.349  32.284  1.00  0.00     0.103 A 
HETATM   16  C7  UNK     1      18.501   3.296  31.264  1.00  0.00     0.059 A 
HETATM   17  C8  UNK     1      18.347   4.651  31.554  1.00  0.00     0.024 A 
HETATM   18 Br1  UNK     1      18.484   5.888  30.119  1.00  0.00    -0.050 Br
BRANCH  14  19
HETATM   19  O2  UNK     1      18.071   1.842  34.600  1.00  0.00    -0.353 OA
HETATM   20  C22 UNK     1      18.948   2.009  35.712  1.00  0.00     0.210 C 
ENDBRANCH  14  19
BRANCH  15  21
HETATM   21  O1  UNK     1      18.560   1.027  31.988  1.00  0.00    -0.344 OA
BRANCH  21  22
HETATM   22  C4  UNK     1      19.284   0.708  30.802  1.00  0.00     0.216 C 
BRANCH  22  23
HETATM   23  C6  UNK     1      19.884  -0.660  30.948  1.00  0.00    -0.012 A 
HETATM   24  C12 UNK     1      20.178  -1.447  29.839  1.00  0.00     0.042 A 
HETATM   25 Cl1  UNK     1      19.867  -0.894  28.234  1.00  0.00    -0.084 Cl
HETATM   26  C14 UNK     1      20.735  -2.713  30.014  1.00  0.00     0.024 A 
HETATM   27  C18 UNK     1      20.997  -3.187  31.300  1.00  0.00     0.002 A 
HETATM   28  C15 UNK     1      20.702  -2.395  32.409  1.00  0.00     0.001 A 
HETATM   29  C13 UNK     1      20.144  -1.128  32.233  1.00  0.00     0.011 A 
ENDBRANCH  22  23
ENDBRANCH  21  22
ENDBRANCH  15  21
ENDBRANCH   2  12
TORSDOF 6
ENDMDL
MODEL 3
REMARK VINA RESULT:      -8.3     26.290     28.583
REMARK  6 active torsions:
REMARK  status: ('A' for Active; 'I' for Inactive)
REMARK    1  A    between atoms: C1_7  and  O1_4 
REMARK    2  A    between atoms: C4_10  and  O1_4 
REMARK    3  A    between atoms: C3_9  and  O2_5 
REMARK    4  A    between atoms: C2_8  and  C9_15 
REMARK    5  A    between atoms: C4_10  and  C6_12 
REMARK    6  A    between atoms: C10_16  and  C11_17 
ROOT
HETATM    1  N1  UNK     1      16.089  12.249  11.539  1.00  0.00    -0.191 NA
HETATM    2  C9  UNK     1      17.645  10.032   9.405  1.00  0.00     0.036 C 
HETATM    3  C10 UNK     1      17.964  11.148  10.113  1.00  0.00     0.055 C 
HETATM    4  C23 UNK     1      16.920  11.750  10.899  1.00  0.00     0.100 C 
ENDROOT
BRANCH   3   5
HETATM    5  C11 UNK     1      19.288  11.751  10.121  1.00  0.00    -0.015 A 
HETATM    6  C16 UNK     1      19.824  12.241  11.311  1.00  0.00     0.014 A 
HETATM    7  C19 UNK     1      21.093  12.820  11.318  1.00  0.00     0.020 A 
HETATM    8  C21 UNK     1      21.826  12.909  10.135  1.00  0.00     0.011 A 
HETATM    9 Br2  UNK     1      23.545  13.696  10.144  1.00  0.00    -0.051 Br
HETATM   10  C20 UNK     1      21.290  12.419   8.944  1.00  0.00     0.020 A 
HETATM   11  C17 UNK     1      20.021  11.840   8.937  1.00  0.00     0.014 A 
ENDBRANCH   3   5
BRANCH   2  12
HETATM   12  C2  UNK     1      16.325   9.385   9.373  1.00  0.00    -0.015 A 
HETATM   13  C5  UNK     1      16.163   8.237  10.138  1.00  0.00     0.052 A 
HETATM   14  C3  UNK     1      14.932   7.583  10.146  1.00  0.00     0.102 A 
HETATM   15  C1  UNK     1      13.872   8.082   9.388  1.00  0.00     0.103 A 
HETATM   16  C7  UNK     1      14.045   9.236   8.622  1.00  0.00     0.059 A 
HETATM   17  C8  UNK     1      15.276   9.890   8.615  1.00  0.00     0.024 A 
HETATM   18 Br1  UNK     1      15.443  11.456   7.551  1.00  0.00    -0.050 Br
BRANCH  14  19
HETATM   19  O2  UNK     1      14.775   6.457  10.897  1.00  0.00    -0.353 OA
HETATM   20  C22 UNK     1      14.995   5.208  10.246  1.00  0.00     0.210 C 
ENDBRANCH  14  19
BRANCH  15  21
HETATM   21  O1  UNK     1      12.664   7.452   9.387  1.00  0.00    -0.344 OA
BRANCH  21  22
HETATM   22  C4  UNK     1      11.530   8.225   9.001  1.00  0.00     0.216 C 
BRANCH  22  23
HETATM   23  C6  UNK     1      10.736   7.456   7.987  1.00  0.00    -0.012 A 
HETATM   24  C12 UNK     1       9.379   7.203   8.165  1.00  0.00     0.042 A 
HETATM   25 Cl1  UNK     1       8.535   7.760   9.564  1.00  0.00    -0.084 Cl
HETATM   26  C14 UNK     1       8.674   6.485   7.201  1.00  0.00     0.024 A 
HETATM   27  C18 UNK     1       9.329   6.022   6.059  1.00  0.00     0.002 A 
HETATM   28  C15 UNK     1      10.689   6.278   5.883  1.00  0.00     0.001 A 
HETATM   29  C13 UNK     1      11.394   6.996   6.849  1.00  0.00     0.011 A 
ENDBRANCH  22  23
ENDBRANCH  21  22
ENDBRANCH  15  21
ENDBRANCH   2  12
TORSDOF 6
ENDMDL
MODEL 4
REMARK VINA RESULT:      -8.3     26.685     28.641
REMARK  6 active torsions:
REMARK  status: ('A' for Active; 'I' for Inactive)
REMARK    1  A    between atoms: C1_7  and  O1_4 
REMARK    2  A    between atoms: C4_10  and  O1_4 
REMARK    3  A    between atoms: C3_9  and  O2_5 
REMARK    4  A    between atoms: C2_8  and  C9_15 
REMARK    5  A    between atoms: C4_10  and  C6_12 
REMARK    6  A    between atoms: C10_16  and  C11_17 
ROOT
HETATM    1  N1  UNK     1      16.026  11.677   7.449  1.00  0.00    -0.191 NA
HETATM    2  C9  UNK     1      17.109  10.051  10.290  1.00  0.00     0.036 C 
HETATM    3  C10 UNK     1      17.572  10.991   9.424  1.00  0.00     0.055 C 
HETATM    4  C23 UNK     1      16.709  11.364   8.334  1.00  0.00     0.100 C 
ENDROOT
BRANCH   3   5
HETATM    5  C11 UNK     1      18.871  11.634   9.545  1.00  0.00    -0.015 A 
HETATM    6  C16 UNK     1      19.672  11.806   8.416  1.00  0.00     0.014 A 
HETATM    7  C19 UNK     1      20.919  12.420   8.533  1.00  0.00     0.020 A 
HETATM    8  C21 UNK     1      21.365  12.862   9.778  1.00  0.00     0.011 A 
HETATM    9 Br2  UNK     1      23.056  13.693   9.937  1.00  0.00    -0.051 Br
HETATM   10  C20 UNK     1      20.565  12.690  10.907  1.00  0.00     0.020 A 
HETATM   11  C17 UNK     1      19.318  12.075  10.791  1.00  0.00     0.014 A 
ENDBRANCH   3   5
BRANCH   2  12
HETATM   12  C2  UNK     1      15.802   9.382  10.211  1.00  0.00    -0.015 A 
HETATM   13  C5  UNK     1      15.769   8.125   9.621  1.00  0.00     0.052 A 
HETATM   14  C3  UNK     1      14.556   7.444   9.520  1.00  0.00     0.102 A 
HETATM   15  C1  UNK     1      13.386   8.025  10.011  1.00  0.00     0.103 A 
HETATM   16  C7  UNK     1      13.431   9.288  10.603  1.00  0.00     0.059 A 
HETATM   17  C8  UNK     1      14.643   9.969  10.703  1.00  0.00     0.024 A 
HETATM   18 Br1  UNK     1      14.633  11.684  11.520  1.00  0.00    -0.050 Br
BRANCH  14  19
HETATM   19  O2  UNK     1      14.525   6.211   8.940  1.00  0.00    -0.353 OA
HETATM   20  C22 UNK     1      14.944   5.108   9.740  1.00  0.00     0.210 C 
ENDBRANCH  14  19
BRANCH  15  21
HETATM   21  O1  UNK     1      12.196   7.369   9.919  1.00  0.00    -0.344 OA
BRANCH  21  22
HETATM   22  C4  UNK     1      11.096   8.096   9.375  1.00  0.00     0.216 C 
BRANCH  22  23
HETATM   23  C6  UNK     1      10.581   7.371   8.166  1.00  0.00    -0.012 A 
HETATM   24  C12 UNK     1       9.271   6.906   8.101  1.00  0.00     0.042 A 
HETATM   25 Cl1  UNK     1       8.167   7.135   9.408  1.00  0.00    -0.084 Cl
HETATM   26  C14 UNK     1       8.829   6.236   6.961  1.00  0.00     0.024 A 
HETATM   27  C18 UNK     1       9.698   6.036   5.888  1.00  0.00     0.002 A 
HETATM   28  C15 UNK     1      11.010   6.505   5.957  1.00  0.00     0.001 A 
HETATM   29  C13 UNK     1      11.453   7.174   7.098  1.00  0.00     0.011 A 
ENDBRANCH  22  23
ENDBRANCH  21  22
ENDBRANCH  15  21
ENDBRANCH   2  12
TORSDOF 6
ENDMDL
MODEL 5
REMARK VINA RESULT:      -8.2     26.496     28.512
REMARK  6 active torsions:
REMARK  status: ('A' for Active; 'I' for Inactive)
REMARK    1  A    between atoms: C1_7  and  O1_4 
REMARK    2  A    between atoms: C4_10  and  O1_4 
REMARK    3  A    between atoms: C3_9  and  O2_5 
REMARK    4  A    between atoms: C2_8  and  C9_15 
REMARK    5  A    between atoms: C4_10  and  C6_12 
REMARK    6  A    between atoms: C10_16  and  C11_17 
ROOT
HETATM    1  N1  UNK     1      15.438  11.021   7.506  1.00  0.00    -0.191 NA
HETATM    2  C9  UNK     1      16.862   9.571  10.292  1.00  0.00     0.036 C 
HETATM    3  C10 UNK     1      17.149  10.566   9.410  1.00  0.00     0.055 C 
HETATM    4  C23 UNK     1      16.196  10.810   8.360  1.00  0.00     0.100 C 
ENDROOT
BRANCH   3   5
HETATM    5  C11 UNK     1      18.348  11.387   9.478  1.00  0.00    -0.015 A 
HETATM    6  C16 UNK     1      18.759  11.920  10.699  1.00  0.00     0.014 A 
HETATM    7  C19 UNK     1      19.907  12.709  10.764  1.00  0.00     0.020 A 
HETATM    8  C21 UNK     1      20.645  12.964   9.608  1.00  0.00     0.011 A 
HETATM    9 Br2  UNK     1      22.201  14.034   9.695  1.00  0.00    -0.051 Br
HETATM   10  C20 UNK     1      20.234  12.430   8.387  1.00  0.00     0.020 A 
HETATM   11  C17 UNK     1      19.085  11.642   8.322  1.00  0.00     0.014 A 
ENDBRANCH   3   5
BRANCH   2  12
HETATM   12  C2  UNK     1      15.661   8.723  10.266  1.00  0.00    -0.015 A 
HETATM   13  C5  UNK     1      14.460   9.312  10.644  1.00  0.00     0.052 A 
HETATM   14  C3  UNK     1      13.290   8.554  10.637  1.00  0.00     0.102 A 
HETATM   15  C1  UNK     1      13.329   7.213  10.253  1.00  0.00     0.103 A 
HETATM   16  C7  UNK     1      14.539   6.631   9.875  1.00  0.00     0.059 A 
HETATM   17  C8  UNK     1      15.710   7.389   9.882  1.00  0.00     0.024 A 
HETATM   18 Br1  UNK     1      17.324   6.535   9.356  1.00  0.00    -0.050 Br
BRANCH  14  19
HETATM   19  O2  UNK     1      12.114   9.134  11.008  1.00  0.00    -0.353 OA
HETATM   20  C22 UNK     1      12.117   9.888  12.218  1.00  0.00     0.210 C 
ENDBRANCH  14  19
BRANCH  15  21
HETATM   21  O1  UNK     1      12.192   6.463  10.242  1.00  0.00    -0.344 OA
BRANCH  21  22
HETATM   22  C4  UNK     1      12.147   5.368   9.330  1.00  0.00     0.216 C 
BRANCH  22  23
HETATM   23  C6  UNK     1      11.287   5.741   8.159  1.00  0.00    -0.012 A 
HETATM   24  C12 UNK     1       9.898   5.727   8.242  1.00  0.00     0.042 A 
HETATM   25 Cl1  UNK     1       9.088   5.277   9.698  1.00  0.00    -0.084 Cl
HETATM   26  C14 UNK     1       9.133   6.081   7.132  1.00  0.00     0.024 A 
HETATM   27  C18 UNK     1       9.760   6.450   5.941  1.00  0.00     0.002 A 
HETATM   28  C15 UNK     1      11.152   6.464   5.862  1.00  0.00     0.001 A 
HETATM   29  C13 UNK     1      11.918   6.109   6.973  1.00  0.00     0.011 A 
ENDBRANCH  22  23
ENDBRANCH  21  22
ENDBRANCH  15  21
ENDBRANCH   2  12
TORSDOF 6
ENDMDL
MODEL 6
REMARK VINA RESULT:      -8.1     11.881     14.182
REMARK  6 active torsions:
REMARK  status: ('A' for Active; 'I' for Inactive)
REMARK    1  A    between atoms: C1_7  and  O1_4 
REMARK    2  A    between atoms: C4_10  and  O1_4 
REMARK    3  A    between atoms: C3_9  and  O2_5 
REMARK    4  A    between atoms: C2_8  and  C9_15 
REMARK    5  A    between atoms: C4_10  and  C6_12 
REMARK    6  A    between atoms: C10_16  and  C11_17 
ROOT
HETATM    1  N1  UNK     1      27.770 -10.436  39.619  1.00  0.00    -0.191 NA
HETATM    2  C9  UNK     1      27.702  -8.586  36.710  1.00  0.00     0.036 C 
HETATM    3  C10 UNK     1      26.892  -9.448  37.380  1.00  0.00     0.055 C 
HETATM    4  C23 UNK     1      27.386  -9.990  38.618  1.00  0.00     0.100 C 
ENDROOT
BRANCH   3   5
HETATM    5  C11 UNK     1      25.568  -9.838  36.919  1.00  0.00    -0.015 A 
HETATM    6  C16 UNK     1      24.483  -8.984  37.113  1.00  0.00     0.014 A 
HETATM    7  C19 UNK     1      23.214  -9.359  36.674  1.00  0.00     0.020 A 
HETATM    8  C21 UNK     1      23.029 -10.588  36.039  1.00  0.00     0.011 A 
HETATM    9 Br2  UNK     1      21.309 -11.097  35.445  1.00  0.00    -0.051 Br
HETATM   10  C20 UNK     1      24.115 -11.442  35.846  1.00  0.00     0.020 A 
HETATM   11  C17 UNK     1      25.384 -11.067  36.286  1.00  0.00     0.014 A 
ENDBRANCH   3   5
BRANCH   2  12
HETATM   12  C2  UNK     1      29.042  -8.159  37.140  1.00  0.00    -0.015 A 
HETATM   13  C5  UNK     1      30.126  -8.864  36.632  1.00  0.00     0.052 A 
HETATM   14  C3  UNK     1      31.419  -8.501  37.006  1.00  0.00     0.102 A 
HETATM   15  C1  UNK     1      31.618  -7.435  37.885  1.00  0.00     0.103 A 
HETATM   16  C7  UNK     1      30.523  -6.734  38.389  1.00  0.00     0.059 A 
HETATM   17  C8  UNK     1      29.230  -7.096  38.015  1.00  0.00     0.024 A 
HETATM   18 Br1  UNK     1      27.784  -6.098  38.738  1.00  0.00    -0.050 Br
BRANCH  14  19
HETATM   19  O2  UNK     1      32.480  -9.194  36.507  1.00  0.00    -0.353 OA
HETATM   20  C22 UNK     1      32.774  -9.022  35.122  1.00  0.00     0.210 C 
ENDBRANCH  14  19
BRANCH  15  21
HETATM   21  O1  UNK     1      32.878  -7.071  38.257  1.00  0.00    -0.344 OA
BRANCH  21  22
HETATM   22  C4  UNK     1      33.211  -5.689  38.150  1.00  0.00     0.216 C 
BRANCH  22  23
HETATM   23  C6  UNK     1      33.799  -5.431  36.795  1.00  0.00    -0.012 A 
HETATM   24  C12 UNK     1      33.323  -4.410  35.978  1.00  0.00     0.042 A 
HETATM   25 Cl1  UNK     1      32.027  -3.386  36.478  1.00  0.00    -0.084 Cl
HETATM   26  C14 UNK     1      33.895  -4.200  34.724  1.00  0.00     0.024 A 
HETATM   27  C18 UNK     1      34.945  -5.012  34.292  1.00  0.00     0.002 A 
HETATM   28  C15 UNK     1      35.420  -6.033  35.114  1.00  0.00     0.001 A 
HETATM   29  C13 UNK     1      34.847  -6.243  36.369  1.00  0.00     0.011 A 
ENDBRANCH  22  23
ENDBRANCH  21  22
ENDBRANCH  15  21
ENDBRANCH   2  12
TORSDOF 6
ENDMDL
MODEL 7
REMARK VINA RESULT:      -8.1      6.403      9.133
REMARK  6 active torsions:
REMARK  status: ('A' for Active; 'I' for Inactive)
REMARK    1  A    between atoms: C1_7  and  O1_4 
REMARK    2  A    between atoms: C4_10  and  O1_4 
REMARK    3  A    between atoms: C3_9  and  O2_5 
REMARK    4  A    between atoms: C2_8  and  C9_15 
REMARK    5  A    between atoms: C4_10  and  C6_12 
REMARK    6  A    between atoms: C10_16  and  C11_17 
ROOT
HETATM    1  N1  UNK     1      18.238   3.362  34.598  1.00  0.00    -0.191 NA
HETATM    2  C9  UNK     1      17.935   5.091  31.631  1.00  0.00     0.036 C 
HETATM    3  C10 UNK     1      18.234   3.830  32.041  1.00  0.00     0.055 C 
HETATM    4  C23 UNK     1      18.234   3.581  33.458  1.00  0.00     0.100 C 
ENDROOT
BRANCH   3   5
HETATM    5  C11 UNK     1      18.542   2.736  31.133  1.00  0.00    -0.015 A 
HETATM    6  C16 UNK     1      19.129   1.569  31.621  1.00  0.00     0.014 A 
HETATM    7  C19 UNK     1      19.426   0.521  30.750  1.00  0.00     0.020 A 
HETATM    8  C21 UNK     1      19.136   0.639  29.391  1.00  0.00     0.011 A 
HETATM    9 Br2  UNK     1      19.540  -0.781  28.210  1.00  0.00    -0.051 Br
HETATM   10  C20 UNK     1      18.550   1.806  28.902  1.00  0.00     0.020 A 
HETATM   11  C17 UNK     1      18.253   2.855  29.773  1.00  0.00     0.014 A 
ENDBRANCH   3   5
BRANCH   2  12
HETATM   12  C2  UNK     1      17.611   6.225  32.510  1.00  0.00    -0.015 A 
HETATM   13  C5  UNK     1      16.268   6.546  32.660  1.00  0.00     0.052 A 
HETATM   14  C3  UNK     1      15.903   7.611  33.483  1.00  0.00     0.102 A 
HETATM   15  C1  UNK     1      16.885   8.346  34.149  1.00  0.00     0.103 A 
HETATM   16  C7  UNK     1      18.230   8.016  33.991  1.00  0.00     0.059 A 
HETATM   17  C8  UNK     1      18.595   6.950  33.169  1.00  0.00     0.024 A 
HETATM   18 Br1  UNK     1      20.446   6.553  32.999  1.00  0.00    -0.050 Br
BRANCH  14  19
HETATM   19  O2  UNK     1      14.585   7.925  33.628  1.00  0.00    -0.353 OA
HETATM   20  C22 UNK     1      13.675   7.347  32.695  1.00  0.00     0.210 C 
ENDBRANCH  14  19
BRANCH  15  21
HETATM   21  O1  UNK     1      16.540   9.389  34.956  1.00  0.00    -0.344 OA
BRANCH  21  22
HETATM   22  C4  UNK     1      16.512  10.685  34.363  1.00  0.00     0.216 C 
BRANCH  22  23
HETATM   23  C6  UNK     1      15.624  11.578  35.179  1.00  0.00    -0.012 A 
HETATM   24  C12 UNK     1      16.008  12.872  35.516  1.00  0.00     0.042 A 
HETATM   25 Cl1  UNK     1      17.526  13.522  35.016  1.00  0.00    -0.084 Cl
HETATM   26  C14 UNK     1      15.155  13.672  36.276  1.00  0.00     0.024 A 
HETATM   27  C18 UNK     1      13.920  13.175  36.695  1.00  0.00     0.002 A 
HETATM   28  C15 UNK     1      13.540  11.877  36.354  1.00  0.00     0.001 A 
HETATM   29  C13 UNK     1      14.393  11.077  35.594  1.00  0.00     0.011 A 
ENDBRANCH  22  23
ENDBRANCH  21  22
ENDBRANCH  15  21
ENDBRANCH   2  12
TORSDOF 6
ENDMDL
MODEL 8
REMARK VINA RESULT:      -8.1     10.811     13.204
REMARK  6 active torsions:
REMARK  status: ('A' for Active; 'I' for Inactive)
REMARK    1  A    between atoms: C1_7  and  O1_4 
REMARK    2  A    between atoms: C4_10  and  O1_4 
REMARK    3  A    between atoms: C3_9  and  O2_5 
REMARK    4  A    between atoms: C2_8  and  C9_15 
REMARK    5  A    between atoms: C4_10  and  C6_12 
REMARK    6  A    between atoms: C10_16  and  C11_17 
ROOT
HETATM    1  N1  UNK     1      26.578  -5.866  39.058  1.00  0.00    -0.191 NA
HETATM    2  C9  UNK     1      26.292  -8.991  37.628  1.00  0.00     0.036 C 
HETATM    3  C10 UNK     1      25.476  -8.048  38.171  1.00  0.00     0.055 C 
HETATM    4  C23 UNK     1      26.095  -6.844  38.659  1.00  0.00     0.100 C 
ENDROOT
BRANCH   3   5
HETATM    5  C11 UNK     1      24.032  -8.190  38.275  1.00  0.00    -0.015 A 
HETATM    6  C16 UNK     1      23.366  -7.729  39.410  1.00  0.00     0.014 A 
HETATM    7  C19 UNK     1      21.982  -7.867  39.510  1.00  0.00     0.020 A 
HETATM    8  C21 UNK     1      21.264  -8.466  38.476  1.00  0.00     0.011 A 
HETATM    9 Br2  UNK     1      19.387  -8.655  38.612  1.00  0.00    -0.051 Br
HETATM   10  C20 UNK     1      21.929  -8.928  37.340  1.00  0.00     0.020 A 
HETATM   11  C17 UNK     1      23.314  -8.790  37.240  1.00  0.00     0.014 A 
ENDBRANCH   3   5
BRANCH   2  12
HETATM   12  C2  UNK     1      27.752  -8.887  37.495  1.00  0.00    -0.015 A 
HETATM   13  C5  UNK     1      28.244  -8.313  36.329  1.00  0.00     0.052 A 
HETATM   14  C3  UNK     1      29.621  -8.189  36.151  1.00  0.00     0.102 A 
HETATM   15  C1  UNK     1      30.496  -8.640  37.140  1.00  0.00     0.103 A 
HETATM   16  C7  UNK     1      29.993  -9.216  38.306  1.00  0.00     0.059 A 
HETATM   17  C8  UNK     1      28.615  -9.340  38.485  1.00  0.00     0.024 A 
HETATM   18 Br1  UNK     1      27.997 -10.132  40.098  1.00  0.00    -0.050 Br
BRANCH  14  19
HETATM   19  O2  UNK     1      30.101  -7.626  35.007  1.00  0.00    -0.353 OA
HETATM   20  C22 UNK     1      29.664  -6.303  34.703  1.00  0.00     0.210 C 
ENDBRANCH  14  19
BRANCH  15  21
HETATM   21  O1  UNK     1      31.844  -8.524  36.977  1.00  0.00    -0.344 OA
BRANCH  21  22
HETATM   22  C4  UNK     1      32.524  -7.611  37.835  1.00  0.00     0.216 C 
BRANCH  22  23
HETATM   23  C6  UNK     1      32.632  -6.282  37.148  1.00  0.00    -0.012 A 
HETATM   24  C12 UNK     1      31.781  -5.228  37.466  1.00  0.00     0.042 A 
HETATM   25 Cl1  UNK     1      30.552  -5.393  38.667  1.00  0.00    -0.084 Cl
HETATM   26  C14 UNK     1      31.912  -4.007  36.806  1.00  0.00     0.024 A 
HETATM   27  C18 UNK     1      32.896  -3.843  35.830  1.00  0.00     0.002 A 
HETATM   28  C15 UNK     1      33.748  -4.902  35.516  1.00  0.00     0.001 A 
HETATM   29  C13 UNK     1      33.616  -6.124  36.176  1.00  0.00     0.011 A 
ENDBRANCH  22  23
ENDBRANCH  21  22
ENDBRANCH  15  21
ENDBRANCH   2  12
TORSDOF 6
ENDMDL
MODEL 9
REMARK VINA RESULT:      -8.0      3.845      9.870
REMARK  6 active torsions:
REMARK  status: ('A' for Active; 'I' for Inactive)
REMARK    1  A    between atoms: C1_7  and  O1_4 
REMARK    2  A    between atoms: C4_10  and  O1_4 
REMARK    3  A    between atoms: C3_9  and  O2_5 
REMARK    4  A    between atoms: C2_8  and  C9_15 
REMARK    5  A    between atoms: C4_10  and  C6_12 
REMARK    6  A    between atoms: C10_16  and  C11_17 
ROOT
HETATM    1  N1  UNK     1      20.197   2.670  36.538  1.00  0.00    -0.191 NA
HETATM    2  C9  UNK     1      18.073   1.179  34.268  1.00  0.00     0.036 C 
HETATM    3  C10 UNK     1      18.557   2.421  34.536  1.00  0.00     0.055 C 
HETATM    4  C23 UNK     1      19.464   2.549  35.646  1.00  0.00     0.100 C 
ENDROOT
BRANCH   3   5
HETATM    5  C11 UNK     1      18.216   3.606  33.764  1.00  0.00    -0.015 A 
HETATM    6  C16 UNK     1      18.129   3.533  32.375  1.00  0.00     0.014 A 
HETATM    7  C19 UNK     1      17.804   4.670  31.636  1.00  0.00     0.020 A 
HETATM    8  C21 UNK     1      17.566   5.881  32.286  1.00  0.00     0.011 A 
HETATM    9 Br2  UNK     1      17.128   7.423  31.284  1.00  0.00    -0.051 Br
HETATM   10  C20 UNK     1      17.654   5.955  33.676  1.00  0.00     0.020 A 
HETATM   11  C17 UNK     1      17.980   4.817  34.415  1.00  0.00     0.014 A 
ENDBRANCH   3   5
BRANCH   2  12
HETATM   12  C2  UNK     1      18.395  -0.046  35.014  1.00  0.00    -0.015 A 
HETATM   13  C5  UNK     1      19.376  -0.873  34.482  1.00  0.00     0.052 A 
HETATM   14  C3  UNK     1      19.722  -2.048  35.148  1.00  0.00     0.102 A 
HETATM   15  C1  UNK     1      19.084  -2.387  36.342  1.00  0.00     0.103 A 
HETATM   16  C7  UNK     1      18.100  -1.550  36.869  1.00  0.00     0.059 A 
HETATM   17  C8  UNK     1      17.754  -0.375  36.202  1.00  0.00     0.024 A 
HETATM   18 Br1  UNK     1      16.406   0.720  36.974  1.00  0.00    -0.050 Br
BRANCH  14  19
HETATM   19  O2  UNK     1      20.684  -2.858  34.624  1.00  0.00    -0.353 OA
HETATM   20  C22 UNK     1      20.903  -2.778  33.217  1.00  0.00     0.210 C 
ENDBRANCH  14  19
BRANCH  15  21
HETATM   21  O1  UNK     1      19.414  -3.532  37.003  1.00  0.00    -0.344 OA
BRANCH  21  22
HETATM   22  C4  UNK     1      19.255  -4.758  36.293  1.00  0.00     0.216 C 
BRANCH  22  23
HETATM   23  C6  UNK     1      19.436  -5.902  37.245  1.00  0.00    -0.012 A 
HETATM   24  C12 UNK     1      18.765  -7.109  37.069  1.00  0.00     0.042 A 
HETATM   25 Cl1  UNK     1      17.685  -7.354  35.745  1.00  0.00    -0.084 Cl
HETATM   26  C14 UNK     1      18.959  -8.150  37.976  1.00  0.00     0.024 A 
HETATM   27  C18 UNK     1      19.826  -7.982  39.056  1.00  0.00     0.002 A 
HETATM   28  C15 UNK     1      20.498  -6.771  39.229  1.00  0.00     0.001 A 
HETATM   29  C13 UNK     1      20.303  -5.729  38.321  1.00  0.00     0.011 A 
ENDBRANCH  22  23
ENDBRANCH  21  22
ENDBRANCH  15  21
ENDBRANCH   2  12
TORSDOF 6
ENDMDL
MODEL 10
REMARK VINA RESULT:      -7.9      6.139      9.024
REMARK  6 active torsions:
REMARK  status: ('A' for Active; 'I' for Inactive)
REMARK    1  A    between atoms: C1_7  and  O1_4 
REMARK    2  A    between atoms: C4_10  and  O1_4 
REMARK    3  A    between atoms: C3_9  and  O2_5 
REMARK    4  A    between atoms: C2_8  and  C9_15 
REMARK    5  A    between atoms: C4_10  and  C6_12 
REMARK    6  A    between atoms: C10_16  and  C11_17 
ROOT
HETATM    1  N1  UNK     1      19.284   5.965  29.391  1.00  0.00    -0.191 NA
HETATM    2  C9  UNK     1      17.838   4.603  32.210  1.00  0.00     0.036 C 
HETATM    3  C10 UNK     1      18.523   4.175  31.116  1.00  0.00     0.055 C 
HETATM    4  C23 UNK     1      18.940   5.172  30.167  1.00  0.00     0.100 C 
ENDROOT
BRANCH   3   5
HETATM    5  C11 UNK     1      18.856   2.781  30.865  1.00  0.00    -0.015 A 
HETATM    6  C16 UNK     1      18.916   1.876  31.924  1.00  0.00     0.014 A 
HETATM    7  C19 UNK     1      19.237   0.541  31.684  1.00  0.00     0.020 A 
HETATM    8  C21 UNK     1      19.499   0.110  30.383  1.00  0.00     0.011 A 
HETATM    9 Br2  UNK     1      19.936  -1.700  30.057  1.00  0.00    -0.051 Br
HETATM   10  C20 UNK     1      19.439   1.014  29.323  1.00  0.00     0.020 A 
HETATM   11  C17 UNK     1      19.118   2.350  29.564  1.00  0.00     0.014 A 
ENDBRANCH   3   5
BRANCH   2  12
HETATM   12  C2  UNK     1      17.486   6.000  32.508  1.00  0.00    -0.015 A 
HETATM   13  C5  UNK     1      16.204   6.416  32.171  1.00  0.00     0.052 A 
HETATM   14  C3  UNK     1      15.816   7.729  32.432  1.00  0.00     0.102 A 
HETATM   15  C1  UNK     1      16.713   8.616  33.028  1.00  0.00     0.103 A 
HETATM   16  C7  UNK     1      17.998   8.189  33.362  1.00  0.00     0.059 A 
HETATM   17  C8  UNK     1      18.386   6.875  33.102  1.00  0.00     0.024 A 
HETATM   18 Br1  UNK     1      20.150   6.358  33.583  1.00  0.00    -0.050 Br
BRANCH  14  19
HETATM   19  O2  UNK     1      14.558   8.135  32.100  1.00  0.00    -0.353 OA
HETATM   20  C22 UNK     1      13.476   7.320  32.544  1.00  0.00     0.210 C 
ENDBRANCH  14  19
BRANCH  15  21
HETATM   21  O1  UNK     1      16.345   9.902  33.288  1.00  0.00    -0.344 OA
BRANCH  21  22
HETATM   22  C4  UNK     1      15.650  10.143  34.510  1.00  0.00     0.216 C 
BRANCH  22  23
HETATM   23  C6  UNK     1      14.445  10.991  34.229  1.00  0.00    -0.012 A 
HETATM   24  C12 UNK     1      13.643  11.478  35.256  1.00  0.00     0.042 A 
HETATM   25 Cl1  UNK     1      13.989  11.131  36.911  1.00  0.00    -0.084 Cl
HETATM   26  C14 UNK     1      12.531  12.263  34.956  1.00  0.00     0.024 A 
HETATM   27  C18 UNK     1      12.226  12.561  33.627  1.00  0.00     0.002 A 
HETATM   28  C15 UNK     1      13.033  12.072  32.600  1.00  0.00     0.001 A 
HETATM   29  C13 UNK     1      14.145  11.285  32.901  1.00  0.00     0.011 A 
ENDBRANCH  22  23
ENDBRANCH  21  22
ENDBRANCH  15  21
ENDBRANCH   2  12
TORSDOF 6
ENDMDL
