MODEL 1
REMARK VINA RESULT:     -10.1      0.000      0.000
REMARK  5 active torsions:
REMARK  status: ('A' for Active; 'I' for Inactive)
REMARK    1  A    between atoms: C20_26  and  O3_3 
REMARK       I    between atoms: C12_18  and  N2_6 
REMARK    2  A    between atoms: C6_12  and  N2_6 
REMARK    3  A    between atoms: C1_7  and  C2_8 
REMARK    4  A    between atoms: C2_8  and  C6_12 
REMARK    5  A    between atoms: C12_18  and  C13_19 
ROOT
HETATM    1  O2  UNK     1      17.500   3.759  32.033  1.00  0.00    -0.267 OA
HETATM    2  N2  UNK     1      18.952   4.807  30.542  1.00  0.00    -0.356 N 
HETATM    3  C12 UNK     1      18.319   3.721  31.117  1.00  0.00     0.257 C 
HETATM    4  H11 UNK     1      19.640   4.668  29.808  1.00  0.00     0.162 HD
ENDROOT
BRANCH   2   5
HETATM    5  C6  UNK     1      18.717   6.170  30.962  1.00  0.00     0.127 C 
BRANCH   5   6
HETATM    6  C2  UNK     1      19.040   6.392  32.439  1.00  0.00     0.061 C 
BRANCH   6   7
HETATM    7  C1  UNK     1      18.179   7.454  33.077  1.00  0.00    -0.022 A 
HETATM    8  C3  UNK     1      16.787   7.569  32.922  1.00  0.00    -0.001 A 
HETATM    9  C5  UNK     1      16.407   8.679  33.679  1.00  0.00     0.043 A 
HETATM   10  C7  UNK     1      15.797   6.853  32.223  1.00  0.00     0.014 A 
HETATM   11  N1  UNK     1      17.549   9.190  34.253  1.00  0.00    -0.359 N 
HETATM   12  C9  UNK     1      15.078   9.111  33.771  1.00  0.00     0.030 A 
HETATM   13  C4  UNK     1      18.636   8.443  33.887  1.00  0.00     0.013 A 
HETATM   14  H5  UNK     1      17.575  10.001  34.857  1.00  0.00     0.166 HD
HETATM   15  C8  UNK     1      19.989   8.781  34.369  1.00  0.00     0.068 C 
HETATM   16  C11 UNK     1      14.113   8.385  33.068  1.00  0.00     0.002 A 
HETATM   17  C10 UNK     1      14.464   7.273  32.306  1.00  0.00     0.001 A 
ENDBRANCH   6   7
ENDBRANCH   5   6
ENDBRANCH   2   5
BRANCH   3  18
HETATM   18  C13 UNK     1      18.720   2.443  30.517  1.00  0.00     0.108 A 
HETATM   19  C15 UNK     1      19.203   1.520  31.358  1.00  0.00     0.037 A 
HETATM   20  C14 UNK     1      19.627   0.222  30.857  1.00  0.00     0.002 A 
HETATM   21  C16 UNK     1      19.521  -0.041  29.495  1.00  0.00     0.089 A 
HETATM   22  C18 UNK     1      20.137  -0.771  31.697  1.00  0.00     0.051 A 
HETATM   23  O1  UNK     1      19.012   0.934  28.615  1.00  0.00    -0.274 OA
HETATM   24  C19 UNK     1      19.911  -1.263  28.951  1.00  0.00     0.041 A 
HETATM   25  C17 UNK     1      18.599   2.185  29.064  1.00  0.00     0.304 A 
HETATM   26  O4  UNK     1      18.158   3.029  28.291  1.00  0.00    -0.259 OA
HETATM   27  C21 UNK     1      20.418  -2.248  29.795  1.00  0.00     0.039 A 
HETATM   28  C20 UNK     1      20.531  -2.002  31.166  1.00  0.00     0.069 A 
BRANCH  28  29
HETATM   29  O3  UNK     1      21.027  -2.968  31.988  1.00  0.00    -0.356 OA
HETATM   30  C22 UNK     1      20.812  -2.801  33.388  1.00  0.00     0.210 C 
ENDBRANCH  28  29
ENDBRANCH   3  18
TORSDOF 5
ENDMDL
MODEL 2
REMARK VINA RESULT:     -10.0      1.554      2.276
REMARK  5 active torsions:
REMARK  status: ('A' for Active; 'I' for Inactive)
REMARK    1  A    between atoms: C20_26  and  O3_3 
REMARK       I    between atoms: C12_18  and  N2_6 
REMARK    2  A    between atoms: C6_12  and  N2_6 
REMARK    3  A    between atoms: C1_7  and  C2_8 
REMARK    4  A    between atoms: C2_8  and  C6_12 
REMARK    5  A    between atoms: C12_18  and  C13_19 
ROOT
HETATM    1  O2  UNK     1      17.133   2.617  30.750  1.00  0.00    -0.267 OA
HETATM    2  N2  UNK     1      19.150   3.437  29.917  1.00  0.00    -0.356 N 
HETATM    3  C12 UNK     1      18.299   2.457  30.394  1.00  0.00     0.257 C 
HETATM    4  H11 UNK     1      20.109   3.208  29.677  1.00  0.00     0.162 HD
ENDROOT
BRANCH   2   5
HETATM    5  C6  UNK     1      18.756   4.820  29.772  1.00  0.00     0.127 C 
BRANCH   5   6
HETATM    6  C2  UNK     1      19.836   5.790  30.250  1.00  0.00     0.061 C 
BRANCH   6   7
HETATM    7  C1  UNK     1      19.637   6.235  31.677  1.00  0.00    -0.022 A 
HETATM    8  C3  UNK     1      18.408   6.614  32.244  1.00  0.00    -0.001 A 
HETATM    9  C5  UNK     1      18.684   6.947  33.572  1.00  0.00     0.043 A 
HETATM   10  C7  UNK     1      17.082   6.712  31.781  1.00  0.00     0.014 A 
HETATM   11  N1  UNK     1      20.034   6.766  33.764  1.00  0.00    -0.359 N 
HETATM   12  C9  UNK     1      17.693   7.377  34.463  1.00  0.00     0.030 A 
HETATM   13  C4  UNK     1      20.622   6.331  32.607  1.00  0.00     0.013 A 
HETATM   14  H5  UNK     1      20.517   6.934  34.637  1.00  0.00     0.166 HD
HETATM   15  C8  UNK     1      22.072   6.060  32.545  1.00  0.00     0.068 C 
HETATM   16  C11 UNK     1      16.384   7.466  33.981  1.00  0.00     0.002 A 
HETATM   17  C10 UNK     1      16.081   7.139  32.661  1.00  0.00     0.001 A 
ENDBRANCH   6   7
ENDBRANCH   5   6
ENDBRANCH   2   5
BRANCH   3  18
HETATM   18  C13 UNK     1      18.928   1.132  30.445  1.00  0.00     0.108 A 
HETATM   19  C15 UNK     1      19.072   0.592  31.663  1.00  0.00     0.037 A 
HETATM   20  C14 UNK     1      19.684  -0.718  31.816  1.00  0.00     0.002 A 
HETATM   21  C16 UNK     1      20.115  -1.397  30.680  1.00  0.00     0.089 A 
HETATM   22  C18 UNK     1      19.855  -1.320  33.065  1.00  0.00     0.051 A 
HETATM   23  O1  UNK     1      19.960  -0.824  29.402  1.00  0.00    -0.274 OA
HETATM   24  C19 UNK     1      20.710  -2.655  30.758  1.00  0.00     0.041 A 
HETATM   25  C17 UNK     1      19.378   0.428  29.224  1.00  0.00     0.304 A 
HETATM   26  O4  UNK     1      19.249   0.919  28.108  1.00  0.00    -0.259 OA
HETATM   27  C21 UNK     1      20.876  -3.247  32.007  1.00  0.00     0.039 A 
HETATM   28  C20 UNK     1      20.450  -2.581  33.159  1.00  0.00     0.069 A 
BRANCH  28  29
HETATM   29  O3  UNK     1      20.614  -3.164  34.379  1.00  0.00    -0.356 OA
HETATM   30  C22 UNK     1      20.318  -2.368  35.524  1.00  0.00     0.210 C 
ENDBRANCH  28  29
ENDBRANCH   3  18
TORSDOF 5
ENDMDL
MODEL 3
REMARK VINA RESULT:      -9.9      5.452     11.612
REMARK  5 active torsions:
REMARK  status: ('A' for Active; 'I' for Inactive)
REMARK    1  A    between atoms: C20_26  and  O3_3 
REMARK       I    between atoms: C12_18  and  N2_6 
REMARK    2  A    between atoms: C6_12  and  N2_6 
REMARK    3  A    between atoms: C1_7  and  C2_8 
REMARK    4  A    between atoms: C2_8  and  C6_12 
REMARK    5  A    between atoms: C12_18  and  C13_19 
ROOT
HETATM    1  O2  UNK     1      20.374  -1.710  35.449  1.00  0.00    -0.267 OA
HETATM    2  N2  UNK     1      20.001  -3.931  34.846  1.00  0.00    -0.356 N 
HETATM    3  C12 UNK     1      20.217  -2.587  34.602  1.00  0.00     0.257 C 
HETATM    4  H11 UNK     1      19.851  -4.573  34.074  1.00  0.00     0.162 HD
ENDROOT
BRANCH   2   5
HETATM    5  C6  UNK     1      19.932  -4.489  36.178  1.00  0.00     0.127 C 
BRANCH   5   6
HETATM    6  C2  UNK     1      18.562  -5.090  36.490  1.00  0.00     0.061 C 
BRANCH   6   7
HETATM    7  C1  UNK     1      18.623  -6.568  36.786  1.00  0.00    -0.022 A 
HETATM    8  C3  UNK     1      19.432  -7.166  37.766  1.00  0.00    -0.001 A 
HETATM    9  C5  UNK     1      19.174  -8.537  37.696  1.00  0.00     0.043 A 
HETATM   10  C7  UNK     1      20.363  -6.699  38.715  1.00  0.00     0.014 A 
HETATM   11  N1  UNK     1      18.241  -8.723  36.701  1.00  0.00    -0.359 N 
HETATM   12  C9  UNK     1      19.804  -9.468  38.530  1.00  0.00     0.030 A 
HETATM   13  C4  UNK     1      17.902  -7.521  36.141  1.00  0.00     0.013 A 
HETATM   14  H5  UNK     1      17.866  -9.621  36.427  1.00  0.00     0.166 HD
HETATM   15  C8  UNK     1      16.915  -7.444  35.046  1.00  0.00     0.068 C 
HETATM   16  C11 UNK     1      20.723  -8.980  39.464  1.00  0.00     0.002 A 
HETATM   17  C10 UNK     1      20.999  -7.619  39.557  1.00  0.00     0.001 A 
ENDBRANCH   6   7
ENDBRANCH   5   6
ENDBRANCH   2   5
BRANCH   3  18
HETATM   18  C13 UNK     1      20.250  -2.266  33.170  1.00  0.00     0.108 A 
HETATM   19  C15 UNK     1      19.693  -1.102  32.812  1.00  0.00     0.037 A 
HETATM   20  C14 UNK     1      19.677  -0.696  31.416  1.00  0.00     0.002 A 
HETATM   21  C16 UNK     1      20.247  -1.535  30.464  1.00  0.00     0.089 A 
HETATM   22  C18 UNK     1      19.107   0.509  30.996  1.00  0.00     0.051 A 
HETATM   23  O1  UNK     1      20.832  -2.758  30.847  1.00  0.00    -0.274 OA
HETATM   24  C19 UNK     1      20.264  -1.205  29.110  1.00  0.00     0.041 A 
HETATM   25  C17 UNK     1      20.863  -3.174  32.175  1.00  0.00     0.304 A 
HETATM   26  O4  UNK     1      21.372  -4.241  32.499  1.00  0.00    -0.259 OA
HETATM   27  C21 UNK     1      19.694  -0.002  28.701  1.00  0.00     0.039 A 
HETATM   28  C20 UNK     1      19.117   0.853  29.642  1.00  0.00     0.069 A 
BRANCH  28  29
HETATM   29  O3  UNK     1      18.561   2.029  29.237  1.00  0.00    -0.356 OA
HETATM   30  C22 UNK     1      18.686   3.144  30.119  1.00  0.00     0.210 C 
ENDBRANCH  28  29
ENDBRANCH   3  18
TORSDOF 5
ENDMDL
MODEL 4
REMARK VINA RESULT:      -9.7      2.774      3.820
REMARK  5 active torsions:
REMARK  status: ('A' for Active; 'I' for Inactive)
REMARK    1  A    between atoms: C20_26  and  O3_3 
REMARK       I    between atoms: C12_18  and  N2_6 
REMARK    2  A    between atoms: C6_12  and  N2_6 
REMARK    3  A    between atoms: C1_7  and  C2_8 
REMARK    4  A    between atoms: C2_8  and  C6_12 
REMARK    5  A    between atoms: C12_18  and  C13_19 
ROOT
HETATM    1  O2  UNK     1      17.533   2.246  29.600  1.00  0.00    -0.267 OA
HETATM    2  N2  UNK     1      19.108   3.615  30.640  1.00  0.00    -0.356 N 
HETATM    3  C12 UNK     1      18.346   2.470  30.495  1.00  0.00     0.257 C 
HETATM    4  H11 UNK     1      19.732   3.716  31.435  1.00  0.00     0.162 HD
ENDROOT
BRANCH   2   5
HETATM    5  C6  UNK     1      19.038   4.729  29.722  1.00  0.00     0.127 C 
BRANCH   5   6
HETATM    6  C2  UNK     1      19.808   5.950  30.224  1.00  0.00     0.061 C 
BRANCH   6   7
HETATM    7  C1  UNK     1      19.530   6.266  31.672  1.00  0.00    -0.022 A 
HETATM    8  C3  UNK     1      18.267   6.573  32.207  1.00  0.00    -0.001 A 
HETATM    9  C5  UNK     1      18.470   6.795  33.570  1.00  0.00     0.043 A 
HETATM   10  C7  UNK     1      16.963   6.688  31.687  1.00  0.00     0.014 A 
HETATM   11  N1  UNK     1      19.813   6.621  33.815  1.00  0.00    -0.359 N 
HETATM   12  C9  UNK     1      17.428   7.128  34.444  1.00  0.00     0.030 A 
HETATM   13  C4  UNK     1      20.466   6.298  32.656  1.00  0.00     0.013 A 
HETATM   14  H5  UNK     1      20.249   6.720  34.722  1.00  0.00     0.166 HD
HETATM   15  C8  UNK     1      21.923   6.059  32.644  1.00  0.00     0.068 C 
HETATM   16  C11 UNK     1      16.143   7.236  33.905  1.00  0.00     0.002 A 
HETATM   17  C10 UNK     1      15.911   7.020  32.549  1.00  0.00     0.001 A 
ENDBRANCH   6   7
ENDBRANCH   5   6
ENDBRANCH   2   5
BRANCH   3  18
HETATM   18  C13 UNK     1      18.597   1.481  31.550  1.00  0.00     0.108 A 
HETATM   19  C15 UNK     1      18.160   1.799  32.775  1.00  0.00     0.037 A 
HETATM   20  C14 UNK     1      18.363   0.882  33.886  1.00  0.00     0.002 A 
HETATM   21  C16 UNK     1      19.014  -0.324  33.653  1.00  0.00     0.089 A 
HETATM   22  C18 UNK     1      17.924   1.172  35.181  1.00  0.00     0.051 A 
HETATM   23  O1  UNK     1      19.471  -0.654  32.362  1.00  0.00    -0.274 OA
HETATM   24  C19 UNK     1      19.240  -1.246  34.675  1.00  0.00     0.041 A 
HETATM   25  C17 UNK     1      19.293   0.202  31.280  1.00  0.00     0.304 A 
HETATM   26  O4  UNK     1      19.695  -0.091  30.159  1.00  0.00    -0.259 OA
HETATM   27  C21 UNK     1      18.800  -0.948  35.962  1.00  0.00     0.039 A 
HETATM   28  C20 UNK     1      18.143   0.258  36.215  1.00  0.00     0.069 A 
BRANCH  28  29
HETATM   29  O3  UNK     1      17.713   0.544  37.475  1.00  0.00    -0.356 OA
HETATM   30  C22 UNK     1      16.721   1.561  37.608  1.00  0.00     0.210 C 
ENDBRANCH  28  29
ENDBRANCH   3  18
TORSDOF 5
ENDMDL
MODEL 5
REMARK VINA RESULT:      -9.6     13.864     18.604
REMARK  5 active torsions:
REMARK  status: ('A' for Active; 'I' for Inactive)
REMARK    1  A    between atoms: C20_26  and  O3_3 
REMARK       I    between atoms: C12_18  and  N2_6 
REMARK    2  A    between atoms: C6_12  and  N2_6 
REMARK    3  A    between atoms: C1_7  and  C2_8 
REMARK    4  A    between atoms: C2_8  and  C6_12 
REMARK    5  A    between atoms: C12_18  and  C13_19 
ROOT
HETATM    1  O2  UNK     1      17.891  -3.100  14.502  1.00  0.00    -0.267 OA
HETATM    2  N2  UNK     1      20.092  -3.405  15.207  1.00  0.00    -0.356 N 
HETATM    3  C12 UNK     1      18.915  -2.695  15.049  1.00  0.00     0.257 C 
HETATM    4  H11 UNK     1      20.896  -2.969  15.647  1.00  0.00     0.162 HD
ENDROOT
BRANCH   2   5
HETATM    5  C6  UNK     1      20.266  -4.759  14.731  1.00  0.00     0.127 C 
BRANCH   5   6
HETATM    6  C2  UNK     1      19.649  -5.793  15.671  1.00  0.00     0.061 C 
BRANCH   6   7
HETATM    7  C1  UNK     1      18.396  -6.422  15.114  1.00  0.00    -0.022 A 
HETATM    8  C3  UNK     1      17.135  -6.400  15.731  1.00  0.00    -0.001 A 
HETATM    9  C5  UNK     1      16.275  -7.093  14.877  1.00  0.00     0.043 A 
HETATM   10  C7  UNK     1      16.617  -5.866  16.928  1.00  0.00     0.014 A 
HETATM   11  N1  UNK     1      17.021  -7.504  13.796  1.00  0.00    -0.359 N 
HETATM   12  C9  UNK     1      14.917  -7.280  15.161  1.00  0.00     0.030 A 
HETATM   13  C4  UNK     1      18.320  -7.096  13.937  1.00  0.00     0.013 A 
HETATM   14  H5  UNK     1      16.657  -8.031  13.014  1.00  0.00     0.166 HD
HETATM   15  C8  UNK     1      19.332  -7.410  12.909  1.00  0.00     0.068 C 
HETATM   16  C11 UNK     1      14.426  -6.741  16.354  1.00  0.00     0.002 A 
HETATM   17  C10 UNK     1      15.261  -6.045  17.225  1.00  0.00     0.001 A 
ENDBRANCH   6   7
ENDBRANCH   5   6
ENDBRANCH   2   5
BRANCH   3  18
HETATM   18  C13 UNK     1      18.984  -1.345  15.618  1.00  0.00     0.108 A 
HETATM   19  C15 UNK     1      18.813  -1.252  16.943  1.00  0.00     0.037 A 
HETATM   20  C14 UNK     1      18.863   0.045  17.599  1.00  0.00     0.002 A 
HETATM   21  C16 UNK     1      19.091   1.181  16.829  1.00  0.00     0.089 A 
HETATM   22  C18 UNK     1      18.691   0.190  18.978  1.00  0.00     0.051 A 
HETATM   23  O1  UNK     1      19.270   1.077  15.436  1.00  0.00    -0.274 OA
HETATM   24  C19 UNK     1      19.150   2.453  17.396  1.00  0.00     0.041 A 
HETATM   25  C17 UNK     1      19.227  -0.149  14.779  1.00  0.00     0.304 A 
HETATM   26  O4  UNK     1      19.383  -0.231  13.566  1.00  0.00    -0.259 OA
HETATM   27  C21 UNK     1      18.977   2.588  18.771  1.00  0.00     0.039 A 
HETATM   28  C20 UNK     1      18.748   1.458  19.561  1.00  0.00     0.069 A 
BRANCH  28  29
HETATM   29  O3  UNK     1      18.580   1.595  20.906  1.00  0.00    -0.356 OA
HETATM   30  C22 UNK     1      19.706   2.041  21.659  1.00  0.00     0.210 C 
ENDBRANCH  28  29
ENDBRANCH   3  18
TORSDOF 5
ENDMDL
MODEL 6
REMARK VINA RESULT:      -9.5      2.916      9.736
REMARK  5 active torsions:
REMARK  status: ('A' for Active; 'I' for Inactive)
REMARK    1  A    between atoms: C20_26  and  O3_3 
REMARK       I    between atoms: C12_18  and  N2_6 
REMARK    2  A    between atoms: C6_12  and  N2_6 
REMARK    3  A    between atoms: C1_7  and  C2_8 
REMARK    4  A    between atoms: C2_8  and  C6_12 
REMARK    5  A    between atoms: C12_18  and  C13_19 
ROOT
HETATM    1  O2  UNK     1      19.682   5.748  33.395  1.00  0.00    -0.267 OA
HETATM    2  N2  UNK     1      18.509   5.480  31.399  1.00  0.00    -0.356 N 
HETATM    3  C12 UNK     1      18.800   6.085  32.608  1.00  0.00     0.257 C 
HETATM    4  H11 UNK     1      17.736   5.816  30.832  1.00  0.00     0.162 HD
ENDROOT
BRANCH   2   5
HETATM    5  C6  UNK     1      19.234   4.336  30.895  1.00  0.00     0.127 C 
BRANCH   5   6
HETATM    6  C2  UNK     1      18.310   3.188  30.492  1.00  0.00     0.061 C 
BRANCH   6   7
HETATM    7  C1  UNK     1      18.703   1.871  31.114  1.00  0.00    -0.022 A 
HETATM    8  C3  UNK     1      19.269   0.785  30.424  1.00  0.00    -0.001 A 
HETATM    9  C5  UNK     1      19.470  -0.215  31.377  1.00  0.00     0.043 A 
HETATM   10  C7  UNK     1      19.638   0.534  29.088  1.00  0.00     0.014 A 
HETATM   11  N1  UNK     1      19.031   0.281  32.584  1.00  0.00    -0.359 N 
HETATM   12  C9  UNK     1      20.024  -1.461  31.059  1.00  0.00     0.030 A 
HETATM   13  C4  UNK     1      18.561   1.556  32.427  1.00  0.00     0.013 A 
HETATM   14  H5  UNK     1      19.055  -0.229  33.457  1.00  0.00     0.166 HD
HETATM   15  C8  UNK     1      18.029   2.318  33.575  1.00  0.00     0.068 C 
HETATM   16  C11 UNK     1      20.383  -1.687  29.727  1.00  0.00     0.002 A 
HETATM   17  C10 UNK     1      20.194  -0.707  28.755  1.00  0.00     0.001 A 
ENDBRANCH   6   7
ENDBRANCH   5   6
ENDBRANCH   2   5
BRANCH   3  18
HETATM   18  C13 UNK     1      17.927   7.229  32.898  1.00  0.00     0.108 A 
HETATM   19  C15 UNK     1      18.535   8.340  33.333  1.00  0.00     0.037 A 
HETATM   20  C14 UNK     1      17.754   9.527  33.647  1.00  0.00     0.002 A 
HETATM   21  C16 UNK     1      16.373   9.486  33.487  1.00  0.00     0.089 A 
HETATM   22  C18 UNK     1      18.345  10.708  34.104  1.00  0.00     0.051 A 
HETATM   23  O1  UNK     1      15.740   8.314  33.028  1.00  0.00    -0.274 OA
HETATM   24  C19 UNK     1      15.568  10.588  33.770  1.00  0.00     0.041 A 
HETATM   25  C17 UNK     1      16.460   7.163  32.720  1.00  0.00     0.304 A 
HETATM   26  O4  UNK     1      15.901   6.147  32.323  1.00  0.00    -0.259 OA
HETATM   27  C21 UNK     1      16.165  11.761  34.226  1.00  0.00     0.039 A 
HETATM   28  C20 UNK     1      17.551  11.821  34.392  1.00  0.00     0.069 A 
BRANCH  28  29
HETATM   29  O3  UNK     1      18.130  12.971  34.837  1.00  0.00    -0.356 OA
HETATM   30  C22 UNK     1      18.393  13.983  33.867  1.00  0.00     0.210 C 
ENDBRANCH  28  29
ENDBRANCH   3  18
TORSDOF 5
ENDMDL
MODEL 7
REMARK VINA RESULT:      -9.5      2.830      9.717
REMARK  5 active torsions:
REMARK  status: ('A' for Active; 'I' for Inactive)
REMARK    1  A    between atoms: C20_26  and  O3_3 
REMARK       I    between atoms: C12_18  and  N2_6 
REMARK    2  A    between atoms: C6_12  and  N2_6 
REMARK    3  A    between atoms: C1_7  and  C2_8 
REMARK    4  A    between atoms: C2_8  and  C6_12 
REMARK    5  A    between atoms: C12_18  and  C13_19 
ROOT
HETATM    1  O2  UNK     1      18.508   6.585  29.893  1.00  0.00    -0.267 OA
HETATM    2  N2  UNK     1      18.714   5.110  31.686  1.00  0.00    -0.356 N 
HETATM    3  C12 UNK     1      18.397   6.315  31.087  1.00  0.00     0.257 C 
HETATM    4  H11 UNK     1      18.614   4.996  32.690  1.00  0.00     0.162 HD
ENDROOT
BRANCH   2   5
HETATM    5  C6  UNK     1      19.234   3.978  30.952  1.00  0.00     0.127 C 
BRANCH   5   6
HETATM    6  C2  UNK     1      18.205   2.861  30.792  1.00  0.00     0.061 C 
BRANCH   6   7
HETATM    7  C1  UNK     1      18.689   1.534  31.321  1.00  0.00    -0.022 A 
HETATM    8  C3  UNK     1      19.297   0.528  30.551  1.00  0.00    -0.001 A 
HETATM    9  C5  UNK     1      19.582  -0.515  31.436  1.00  0.00     0.043 A 
HETATM   10  C7  UNK     1      19.642   0.379  29.194  1.00  0.00     0.014 A 
HETATM   11  N1  UNK     1      19.150  -0.120  32.681  1.00  0.00    -0.359 N 
HETATM   12  C9  UNK     1      20.198  -1.704  31.028  1.00  0.00     0.030 A 
HETATM   13  C4  UNK     1      18.603   1.133  32.616  1.00  0.00     0.013 A 
HETATM   14  H5  UNK     1      19.228  -0.679  33.520  1.00  0.00     0.166 HD
HETATM   15  C8  UNK     1      18.061   1.791  33.821  1.00  0.00     0.068 C 
HETATM   16  C11 UNK     1      20.531  -1.828  29.676  1.00  0.00     0.002 A 
HETATM   17  C10 UNK     1      20.259  -0.804  28.771  1.00  0.00     0.001 A 
ENDBRANCH   6   7
ENDBRANCH   5   6
ENDBRANCH   2   5
BRANCH   3  18
HETATM   18  C13 UNK     1      17.884   7.307  32.039  1.00  0.00     0.108 A 
HETATM   19  C15 UNK     1      16.660   7.790  31.789  1.00  0.00     0.037 A 
HETATM   20  C14 UNK     1      16.066   8.778  32.676  1.00  0.00     0.002 A 
HETATM   21  C16 UNK     1      16.789   9.209  33.783  1.00  0.00     0.089 A 
HETATM   22  C18 UNK     1      14.793   9.309  32.453  1.00  0.00     0.051 A 
HETATM   23  O1  UNK     1      18.075   8.697  34.042  1.00  0.00    -0.274 OA
HETATM   24  C19 UNK     1      16.277  10.153  34.671  1.00  0.00     0.041 A 
HETATM   25  C17 UNK     1      18.670   7.752  33.212  1.00  0.00     0.304 A 
HETATM   26  O4  UNK     1      19.791   7.312  33.443  1.00  0.00    -0.259 OA
HETATM   27  C21 UNK     1      15.007  10.678  34.442  1.00  0.00     0.039 A 
HETATM   28  C20 UNK     1      14.267  10.256  33.336  1.00  0.00     0.069 A 
BRANCH  28  29
HETATM   29  O3  UNK     1      13.025  10.771  33.116  1.00  0.00    -0.356 OA
HETATM   30  C22 UNK     1      12.955  12.085  32.566  1.00  0.00     0.210 C 
ENDBRANCH  28  29
ENDBRANCH   3  18
TORSDOF 5
ENDMDL
MODEL 8
REMARK VINA RESULT:      -9.4      6.056      9.844
REMARK  5 active torsions:
REMARK  status: ('A' for Active; 'I' for Inactive)
REMARK    1  A    between atoms: C20_26  and  O3_3 
REMARK       I    between atoms: C12_18  and  N2_6 
REMARK    2  A    between atoms: C6_12  and  N2_6 
REMARK    3  A    between atoms: C1_7  and  C2_8 
REMARK    4  A    between atoms: C2_8  and  C6_12 
REMARK    5  A    between atoms: C12_18  and  C13_19 
ROOT
HETATM    1  O2  UNK     1      20.331  -4.282  34.954  1.00  0.00    -0.267 OA
HETATM    2  N2  UNK     1      19.111  -3.802  36.882  1.00  0.00    -0.356 N 
HETATM    3  C12 UNK     1      19.708  -4.635  35.953  1.00  0.00     0.257 C 
HETATM    4  H11 UNK     1      18.591  -4.194  37.660  1.00  0.00     0.162 HD
ENDROOT
BRANCH   2   5
HETATM    5  C6  UNK     1      19.150  -2.360  36.787  1.00  0.00     0.127 C 
BRANCH   5   6
HETATM    6  C2  UNK     1      17.787  -1.759  36.446  1.00  0.00     0.061 C 
BRANCH   6   7
HETATM    7  C1  UNK     1      17.890  -0.473  35.664  1.00  0.00    -0.022 A 
HETATM    8  C3  UNK     1      18.302  -0.370  34.325  1.00  0.00    -0.001 A 
HETATM    9  C5  UNK     1      18.249   0.989  34.009  1.00  0.00     0.043 A 
HETATM   10  C7  UNK     1      18.717  -1.282  33.334  1.00  0.00     0.014 A 
HETATM   11  N1  UNK     1      17.818   1.651  35.136  1.00  0.00    -0.359 N 
HETATM   12  C9  UNK     1      18.593   1.485  32.746  1.00  0.00     0.030 A 
HETATM   13  C4  UNK     1      17.598   0.760  36.152  1.00  0.00     0.013 A 
HETATM   14  H5  UNK     1      17.686   2.651  35.199  1.00  0.00     0.166 HD
HETATM   15  C8  UNK     1      17.128   1.215  37.475  1.00  0.00     0.068 C 
HETATM   16  C11 UNK     1      19.001   0.561  31.779  1.00  0.00     0.002 A 
HETATM   17  C10 UNK     1      19.063  -0.800  32.066  1.00  0.00     0.001 A 
ENDBRANCH   6   7
ENDBRANCH   5   6
ENDBRANCH   2   5
BRANCH   3  18
HETATM   18  C13 UNK     1      19.535  -6.058  36.269  1.00  0.00     0.108 A 
HETATM   19  C15 UNK     1      20.614  -6.834  36.113  1.00  0.00     0.037 A 
HETATM   20  C14 UNK     1      20.541  -8.258  36.401  1.00  0.00     0.002 A 
HETATM   21  C16 UNK     1      19.335  -8.795  36.840  1.00  0.00     0.089 A 
HETATM   22  C18 UNK     1      21.642  -9.106  36.253  1.00  0.00     0.051 A 
HETATM   23  O1  UNK     1      18.203  -7.973  37.002  1.00  0.00    -0.274 OA
HETATM   24  C19 UNK     1      19.199 -10.151  37.132  1.00  0.00     0.041 A 
HETATM   25  C17 UNK     1      18.242  -6.608  36.735  1.00  0.00     0.304 A 
HETATM   26  O4  UNK     1      17.251  -5.900  36.878  1.00  0.00    -0.259 OA
HETATM   27  C21 UNK     1      20.301 -10.989  36.981  1.00  0.00     0.039 A 
HETATM   28  C20 UNK     1      21.520 -10.467  36.542  1.00  0.00     0.069 A 
BRANCH  28  29
HETATM   29  O3  UNK     1      22.596 -11.291  36.397  1.00  0.00    -0.356 OA
HETATM   30  C22 UNK     1      23.832 -10.684  36.028  1.00  0.00     0.210 C 
ENDBRANCH  28  29
ENDBRANCH   3  18
TORSDOF 5
ENDMDL
MODEL 9
REMARK VINA RESULT:      -9.3      5.455     11.214
REMARK  5 active torsions:
REMARK  status: ('A' for Active; 'I' for Inactive)
REMARK    1  A    between atoms: C20_26  and  O3_3 
REMARK       I    between atoms: C12_18  and  N2_6 
REMARK    2  A    between atoms: C6_12  and  N2_6 
REMARK    3  A    between atoms: C1_7  and  C2_8 
REMARK    4  A    between atoms: C2_8  and  C6_12 
REMARK    5  A    between atoms: C12_18  and  C13_19 
ROOT
HETATM    1  O2  UNK     1      17.310  -1.775  36.530  1.00  0.00    -0.267 OA
HETATM    2  N2  UNK     1      19.565  -2.071  36.022  1.00  0.00    -0.356 N 
HETATM    3  C12 UNK     1      18.325  -1.469  35.908  1.00  0.00     0.257 C 
HETATM    4  H11 UNK     1      20.338  -1.764  35.439  1.00  0.00     0.162 HD
ENDROOT
BRANCH   2   5
HETATM    5  C6  UNK     1      19.827  -3.173  36.920  1.00  0.00     0.127 C 
BRANCH   5   6
HETATM    6  C2  UNK     1      19.977  -4.504  36.186  1.00  0.00     0.061 C 
BRANCH   6   7
HETATM    7  C1  UNK     1      19.859  -5.698  37.101  1.00  0.00    -0.022 A 
HETATM    8  C3  UNK     1      20.865  -6.157  37.968  1.00  0.00    -0.001 A 
HETATM    9  C5  UNK     1      20.334  -7.272  38.618  1.00  0.00     0.043 A 
HETATM   10  C7  UNK     1      22.178  -5.751  38.280  1.00  0.00     0.014 A 
HETATM   11  N1  UNK     1      19.056  -7.451  38.139  1.00  0.00    -0.359 N 
HETATM   12  C9  UNK     1      21.053  -8.006  39.569  1.00  0.00     0.030 A 
HETATM   13  C4  UNK     1      18.762  -6.490  37.210  1.00  0.00     0.013 A 
HETATM   14  H5  UNK     1      18.430  -8.189  38.433  1.00  0.00     0.166 HD
HETATM   15  C8  UNK     1      17.447  -6.457  36.539  1.00  0.00     0.068 C 
HETATM   16  C11 UNK     1      22.353  -7.584  39.862  1.00  0.00     0.002 A 
HETATM   17  C10 UNK     1      22.909  -6.475  39.229  1.00  0.00     0.001 A 
ENDBRANCH   6   7
ENDBRANCH   5   6
ENDBRANCH   2   5
BRANCH   3  18
HETATM   18  C13 UNK     1      18.312  -0.372  34.934  1.00  0.00     0.108 A 
HETATM   19  C15 UNK     1      18.723  -0.675  33.696  1.00  0.00     0.037 A 
HETATM   20  C14 UNK     1      18.746   0.347  32.661  1.00  0.00     0.002 A 
HETATM   21  C16 UNK     1      18.333   1.636  32.979  1.00  0.00     0.089 A 
HETATM   22  C18 UNK     1      19.167   0.076  31.356  1.00  0.00     0.051 A 
HETATM   23  O1  UNK     1      17.900   1.949  34.282  1.00  0.00    -0.274 OA
HETATM   24  C19 UNK     1      18.330   2.660  32.033  1.00  0.00     0.041 A 
HETATM   25  C17 UNK     1      17.868   0.993  35.294  1.00  0.00     0.304 A 
HETATM   26  O4  UNK     1      17.491   1.274  36.427  1.00  0.00    -0.259 OA
HETATM   27  C21 UNK     1      18.752   2.382  30.735  1.00  0.00     0.039 A 
HETATM   28  C20 UNK     1      19.170   1.093  30.398  1.00  0.00     0.069 A 
BRANCH  28  29
HETATM   29  O3  UNK     1      19.581   0.825  29.127  1.00  0.00    -0.356 OA
HETATM   30  C22 UNK     1      20.285  -0.397  28.916  1.00  0.00     0.210 C 
ENDBRANCH  28  29
ENDBRANCH   3  18
TORSDOF 5
ENDMDL
MODEL 10
REMARK VINA RESULT:      -9.3      5.981     10.025
REMARK  5 active torsions:
REMARK  status: ('A' for Active; 'I' for Inactive)
REMARK    1  A    between atoms: C20_26  and  O3_3 
REMARK       I    between atoms: C12_18  and  N2_6 
REMARK    2  A    between atoms: C6_12  and  N2_6 
REMARK    3  A    between atoms: C1_7  and  C2_8 
REMARK    4  A    between atoms: C2_8  and  C6_12 
REMARK    5  A    between atoms: C12_18  and  C13_19 
ROOT
HETATM    1  O2  UNK     1      20.252  -3.569  37.508  1.00  0.00    -0.267 OA
HETATM    2  N2  UNK     1      19.769  -3.751  35.235  1.00  0.00    -0.356 N 
HETATM    3  C12 UNK     1      19.921  -4.228  36.524  1.00  0.00     0.257 C 
HETATM    4  H11 UNK     1      19.521  -4.385  34.482  1.00  0.00     0.162 HD
ENDROOT
BRANCH   2   5
HETATM    5  C6  UNK     1      19.989  -2.369  34.875  1.00  0.00     0.127 C 
BRANCH   5   6
HETATM    6  C2  UNK     1      18.696  -1.651  34.490  1.00  0.00     0.061 C 
BRANCH   6   7
HETATM    7  C1  UNK     1      18.874  -0.696  33.336  1.00  0.00    -0.022 A 
HETATM    8  C3  UNK     1      19.416  -1.030  32.083  1.00  0.00    -0.001 A 
HETATM    9  C5  UNK     1      19.393   0.144  31.328  1.00  0.00     0.043 A 
HETATM   10  C7  UNK     1      19.927  -2.205  31.497  1.00  0.00     0.014 A 
HETATM   11  N1  UNK     1      18.853   1.128  32.124  1.00  0.00    -0.359 N 
HETATM   12  C9  UNK     1      19.859   0.202  30.009  1.00  0.00     0.030 A 
HETATM   13  C4  UNK     1      18.535   0.619  33.354  1.00  0.00     0.013 A 
HETATM   14  H5  UNK     1      18.715   2.088  31.837  1.00  0.00     0.166 HD
HETATM   15  C8  UNK     1      17.937   1.472  34.400  1.00  0.00     0.068 C 
HETATM   16  C11 UNK     1      20.361  -0.976  29.448  1.00  0.00     0.002 A 
HETATM   17  C10 UNK     1      20.395  -2.162  30.178  1.00  0.00     0.001 A 
ENDBRANCH   6   7
ENDBRANCH   5   6
ENDBRANCH   2   5
BRANCH   3  18
HETATM   18  C13 UNK     1      19.638  -5.663  36.639  1.00  0.00     0.108 A 
HETATM   19  C15 UNK     1      20.700  -6.479  36.618  1.00  0.00     0.037 A 
HETATM   20  C14 UNK     1      20.522  -7.918  36.726  1.00  0.00     0.002 A 
HETATM   21  C16 UNK     1      19.233  -8.429  36.849  1.00  0.00     0.089 A 
HETATM   22  C18 UNK     1      21.600  -8.806  36.709  1.00  0.00     0.051 A 
HETATM   23  O1  UNK     1      18.120  -7.566  36.870  1.00  0.00    -0.274 OA
HETATM   24  C19 UNK     1      18.994  -9.798  36.956  1.00  0.00     0.041 A 
HETATM   25  C17 UNK     1      18.259  -6.185  36.769  1.00  0.00     0.304 A 
HETATM   26  O4  UNK     1      17.285  -5.441  36.787  1.00  0.00    -0.259 OA
HETATM   27  C21 UNK     1      20.074 -10.676  36.938  1.00  0.00     0.039 A 
HETATM   28  C20 UNK     1      21.375 -10.181  36.815  1.00  0.00     0.069 A 
BRANCH  28  29
HETATM   29  O3  UNK     1      22.429 -11.044  36.799  1.00  0.00    -0.356 OA
HETATM   30  C22 UNK     1      23.075 -11.256  35.546  1.00  0.00     0.210 C 
ENDBRANCH  28  29
ENDBRANCH   3  18
TORSDOF 5
ENDMDL
