MODEL 1
REMARK VINA RESULT:     -10.3      0.000      0.000
REMARK  5 active torsions:
REMARK  status: ('A' for Active; 'I' for Inactive)
REMARK    1  A    between atoms: C1_11  and  S1_1 
REMARK    2  A    between atoms: N1_8  and  S1_1 
REMARK    3  A    between atoms: C2_12  and  N1_8 
REMARK       I    between atoms: C14_24  and  N2_9 
REMARK    4  A    between atoms: C4_14  and  N2_9 
REMARK    5  A    between atoms: C10_20  and  C14_24 
ROOT
HETATM    1  C1  UNK     1      21.096  -9.475  38.344  1.00  0.00     0.080 A 
HETATM    2  C4  UNK     1      23.554  -8.203  38.416  1.00  0.00     0.035 A 
HETATM    3  C5  UNK     1      21.896  -9.439  37.202  1.00  0.00     0.027 A 
HETATM    4  C6  UNK     1      21.534  -8.871  39.522  1.00  0.00     0.027 A 
HETATM    5  C7  UNK     1      23.136  -8.798  37.238  1.00  0.00     0.031 A 
HETATM    6  C8  UNK     1      22.772  -8.230  39.558  1.00  0.00     0.031 A 
ENDROOT
BRANCH   2   7
HETATM    7  N2  UNK     1      24.811  -7.552  38.452  1.00  0.00    -0.323 N 
HETATM    8  C14 UNK     1      26.008  -8.047  38.951  1.00  0.00     0.262 C 
HETATM    9  O5  UNK     1      26.219  -9.147  39.461  1.00  0.00    -0.267 OA
HETATM   10  H6  UNK     1      24.807  -6.621  38.040  1.00  0.00     0.169 HD
BRANCH   8  11
HETATM   11  C10 UNK     1      27.105  -7.083  38.817  1.00  0.00     0.108 A 
HETATM   12  C12 UNK     1      28.334  -7.599  38.692  1.00  0.00     0.037 A 
HETATM   13  C11 UNK     1      29.487  -6.723  38.554  1.00  0.00    -0.001 A 
HETATM   14  C13 UNK     1      29.290  -5.346  38.554  1.00  0.00     0.089 A 
HETATM   15  C18 UNK     1      30.787  -7.217  38.421  1.00  0.00     0.014 A 
HETATM   16  O2  UNK     1      27.994  -4.808  38.684  1.00  0.00    -0.274 OA
HETATM   17  C19 UNK     1      30.351  -4.452  38.425  1.00  0.00     0.038 A 
HETATM   18  C17 UNK     1      26.872  -5.621  38.819  1.00  0.00     0.304 A 
HETATM   19  O6  UNK     1      25.748  -5.144  38.933  1.00  0.00    -0.259 OA
HETATM   20  C21 UNK     1      31.644  -4.954  38.294  1.00  0.00     0.003 A 
HETATM   21  C20 UNK     1      31.862  -6.333  38.292  1.00  0.00     0.001 A 
ENDBRANCH   8  11
ENDBRANCH   2   7
BRANCH   1  22
HETATM   22  S1  UNK     1      19.546 -10.277  38.298  1.00  0.00     0.264 S 
HETATM   23  O3  UNK     1      19.328 -10.896  39.601  1.00  0.00    -0.200 OA
HETATM   24  O4  UNK     1      19.487 -11.113  37.105  1.00  0.00    -0.200 OA
BRANCH  22  25
HETATM   25  N1  UNK     1      18.441  -8.964  38.137  1.00  0.00    -0.258 N 
HETATM   26  H1  UNK     1      17.717  -8.780  38.841  1.00  0.00     0.181 HD
BRANCH  25  27
HETATM   27  C2  UNK     1      18.746  -7.938  37.178  1.00  0.00     0.190 A 
HETATM   28  O1  UNK     1      18.542  -8.044  35.832  1.00  0.00    -0.194 OA
HETATM   29  N3  UNK     1      18.948  -6.873  35.202  1.00  0.00    -0.131 NA
HETATM   30  C9  UNK     1      19.389  -6.085  36.187  1.00  0.00     0.068 A 
HETATM   31  C16 UNK     1      19.902  -4.743  35.870  1.00  0.00     0.073 C 
HETATM   32  C3  UNK     1      19.286  -6.700  37.448  1.00  0.00     0.018 A 
HETATM   33  C15 UNK     1      19.669  -6.149  38.759  1.00  0.00     0.055 C 
ENDBRANCH  25  27
ENDBRANCH  22  25
ENDBRANCH   1  22
TORSDOF 5
ENDMDL
MODEL 2
REMARK VINA RESULT:     -10.1      6.691     10.442
REMARK  5 active torsions:
REMARK  status: ('A' for Active; 'I' for Inactive)
REMARK    1  A    between atoms: C1_11  and  S1_1 
REMARK    2  A    between atoms: N1_8  and  S1_1 
REMARK    3  A    between atoms: C2_12  and  N1_8 
REMARK       I    between atoms: C14_24  and  N2_9 
REMARK    4  A    between atoms: C4_14  and  N2_9 
REMARK    5  A    between atoms: C10_20  and  C14_24 
ROOT
HETATM    1  C1  UNK     1      18.705  -0.010  35.942  1.00  0.00     0.080 A 
HETATM    2  C4  UNK     1      19.114  -2.739  36.162  1.00  0.00     0.035 A 
HETATM    3  C5  UNK     1      19.391  -0.696  34.939  1.00  0.00     0.027 A 
HETATM    4  C6  UNK     1      18.225  -0.699  37.055  1.00  0.00     0.027 A 
HETATM    5  C7  UNK     1      19.596  -2.072  35.050  1.00  0.00     0.031 A 
HETATM    6  C8  UNK     1      18.431  -2.074  37.166  1.00  0.00     0.031 A 
ENDROOT
BRANCH   2   7
HETATM    7  N2  UNK     1      19.323  -4.136  36.275  1.00  0.00    -0.323 N 
HETATM    8  C14 UNK     1      20.422  -4.786  36.820  1.00  0.00     0.262 C 
HETATM    9  O5  UNK     1      21.431  -4.285  37.314  1.00  0.00    -0.267 OA
HETATM   10  H6  UNK     1      18.553  -4.699  35.923  1.00  0.00     0.169 HD
BRANCH   8  11
HETATM   11  C10 UNK     1      20.285  -6.246  36.764  1.00  0.00     0.108 A 
HETATM   12  C12 UNK     1      20.060  -6.863  37.931  1.00  0.00     0.037 A 
HETATM   13  C11 UNK     1      19.911  -8.309  37.977  1.00  0.00    -0.001 A 
HETATM   14  C13 UNK     1      20.005  -9.034  36.795  1.00  0.00     0.089 A 
HETATM   15  C18 UNK     1      19.676  -8.996  39.171  1.00  0.00     0.014 A 
HETATM   16  O2  UNK     1      20.241  -8.379  35.570  1.00  0.00    -0.274 OA
HETATM   17  C19 UNK     1      19.872 -10.422  36.770  1.00  0.00     0.038 A 
HETATM   18  C17 UNK     1      20.389  -6.997  35.493  1.00  0.00     0.304 A 
HETATM   19  O6  UNK     1      20.595  -6.435  34.423  1.00  0.00    -0.259 OA
HETATM   20  C21 UNK     1      19.638 -11.097  37.966  1.00  0.00     0.003 A 
HETATM   21  C20 UNK     1      19.540 -10.387  39.164  1.00  0.00     0.001 A 
ENDBRANCH   8  11
ENDBRANCH   2   7
BRANCH   1  22
HETATM   22  S1  UNK     1      18.447   1.712  35.803  1.00  0.00     0.264 S 
HETATM   23  O3  UNK     1      19.709   2.375  36.109  1.00  0.00    -0.200 OA
HETATM   24  O4  UNK     1      17.261   2.069  36.571  1.00  0.00    -0.200 OA
BRANCH  22  25
HETATM   25  N1  UNK     1      18.129   1.916  34.122  1.00  0.00    -0.258 N 
HETATM   26  H1  UNK     1      17.658   1.190  33.570  1.00  0.00     0.181 HD
BRANCH  25  27
HETATM   27  C2  UNK     1      18.238   3.239  33.568  1.00  0.00     0.190 A 
HETATM   28  O1  UNK     1      18.268   4.390  34.302  1.00  0.00    -0.194 OA
HETATM   29  N3  UNK     1      18.376   5.485  33.453  1.00  0.00    -0.131 NA
HETATM   30  C9  UNK     1      18.409   4.966  32.222  1.00  0.00     0.068 A 
HETATM   31  C16 UNK     1      18.522   5.860  31.058  1.00  0.00     0.073 C 
HETATM   32  C3  UNK     1      18.327   3.562  32.233  1.00  0.00     0.018 A 
HETATM   33  C15 UNK     1      18.333   2.645  31.080  1.00  0.00     0.055 C 
ENDBRANCH  25  27
ENDBRANCH  22  25
ENDBRANCH   1  22
TORSDOF 5
ENDMDL
MODEL 3
REMARK VINA RESULT:     -10.0      6.140      9.605
REMARK  5 active torsions:
REMARK  status: ('A' for Active; 'I' for Inactive)
REMARK    1  A    between atoms: C1_11  and  S1_1 
REMARK    2  A    between atoms: N1_8  and  S1_1 
REMARK    3  A    between atoms: C2_12  and  N1_8 
REMARK       I    between atoms: C14_24  and  N2_9 
REMARK    4  A    between atoms: C4_14  and  N2_9 
REMARK    5  A    between atoms: C10_20  and  C14_24 
ROOT
HETATM    1  C1  UNK     1      18.161  -0.613  35.324  1.00  0.00     0.080 A 
HETATM    2  C4  UNK     1      18.976  -3.169  36.007  1.00  0.00     0.035 A 
HETATM    3  C5  UNK     1      19.216  -1.215  34.639  1.00  0.00     0.027 A 
HETATM    4  C6  UNK     1      17.516  -1.298  36.353  1.00  0.00     0.027 A 
HETATM    5  C7  UNK     1      19.626  -2.504  34.982  1.00  0.00     0.031 A 
HETATM    6  C8  UNK     1      17.927  -2.586  36.698  1.00  0.00     0.031 A 
ENDROOT
BRANCH   2   7
HETATM    7  N2  UNK     1      19.393  -4.476  36.357  1.00  0.00    -0.323 N 
HETATM    8  C14 UNK     1      20.450  -4.836  37.182  1.00  0.00     0.262 C 
HETATM    9  O5  UNK     1      21.235  -4.096  37.774  1.00  0.00    -0.267 OA
HETATM   10  H6  UNK     1      18.820  -5.215  35.955  1.00  0.00     0.169 HD
BRANCH   8  11
HETATM   11  C10 UNK     1      20.579  -6.292  37.313  1.00  0.00     0.108 A 
HETATM   12  C12 UNK     1      20.973  -6.951  36.218  1.00  0.00     0.037 A 
HETATM   13  C11 UNK     1      21.130  -8.397  36.249  1.00  0.00    -0.001 A 
HETATM   14  C13 UNK     1      20.862  -9.078  37.431  1.00  0.00     0.089 A 
HETATM   15  C18 UNK     1      21.539  -9.126  35.129  1.00  0.00     0.014 A 
HETATM   16  O2  UNK     1      20.448  -8.378  38.582  1.00  0.00    -0.274 OA
HETATM   17  C19 UNK     1      20.992 -10.462  37.527  1.00  0.00     0.038 A 
HETATM   18  C17 UNK     1      20.289  -6.995  38.583  1.00  0.00     0.304 A 
HETATM   19  O6  UNK     1      19.927  -6.395  39.588  1.00  0.00    -0.259 OA
HETATM   20  C21 UNK     1      21.400 -11.181  36.406  1.00  0.00     0.003 A 
HETATM   21  C20 UNK     1      21.673 -10.515  35.210  1.00  0.00     0.001 A 
ENDBRANCH   8  11
ENDBRANCH   2   7
BRANCH   1  22
HETATM   22  S1  UNK     1      17.647   1.000  34.893  1.00  0.00     0.264 S 
HETATM   23  O3  UNK     1      17.750   1.831  36.087  1.00  0.00    -0.200 OA
HETATM   24  O4  UNK     1      16.365   0.913  34.206  1.00  0.00    -0.200 OA
BRANCH  22  25
HETATM   25  N1  UNK     1      18.864   1.505  33.782  1.00  0.00    -0.258 N 
HETATM   26  H1  UNK     1      19.863   1.385  33.986  1.00  0.00     0.181 HD
BRANCH  25  27
HETATM   27  C2  UNK     1      18.467   1.798  32.432  1.00  0.00     0.190 A 
HETATM   28  O1  UNK     1      17.594   2.784  32.072  1.00  0.00    -0.194 OA
HETATM   29  N3  UNK     1      17.433   2.789  30.692  1.00  0.00    -0.131 NA
HETATM   30  C9  UNK     1      18.217   1.801  30.249  1.00  0.00     0.068 A 
HETATM   31  C16 UNK     1      18.290   1.522  28.806  1.00  0.00     0.073 C 
HETATM   32  C3  UNK     1      18.890   1.145  31.295  1.00  0.00     0.018 A 
HETATM   33  C15 UNK     1      19.832   0.017  31.199  1.00  0.00     0.055 C 
ENDBRANCH  25  27
ENDBRANCH  22  25
ENDBRANCH   1  22
TORSDOF 5
ENDMDL
MODEL 4
REMARK VINA RESULT:      -9.8     11.878     15.867
REMARK  5 active torsions:
REMARK  status: ('A' for Active; 'I' for Inactive)
REMARK    1  A    between atoms: C1_11  and  S1_1 
REMARK    2  A    between atoms: N1_8  and  S1_1 
REMARK    3  A    between atoms: C2_12  and  N1_8 
REMARK       I    between atoms: C14_24  and  N2_9 
REMARK    4  A    between atoms: C4_14  and  N2_9 
REMARK    5  A    between atoms: C10_20  and  C14_24 
ROOT
HETATM    1  C1  UNK     1      18.916   2.075  31.221  1.00  0.00     0.080 A 
HETATM    2  C4  UNK     1      18.159   4.579  32.128  1.00  0.00     0.035 A 
HETATM    3  C5  UNK     1      18.454   2.234  32.528  1.00  0.00     0.027 A 
HETATM    4  C6  UNK     1      18.996   3.178  30.371  1.00  0.00     0.027 A 
HETATM    5  C7  UNK     1      18.072   3.496  32.985  1.00  0.00     0.031 A 
HETATM    6  C8  UNK     1      18.615   4.440  30.828  1.00  0.00     0.031 A 
ENDROOT
BRANCH   2   7
HETATM    7  N2  UNK     1      17.772   5.861  32.592  1.00  0.00    -0.323 N 
HETATM    8  C14 UNK     1      18.403   6.639  33.552  1.00  0.00     0.262 C 
HETATM    9  O5  UNK     1      19.420   6.377  34.193  1.00  0.00    -0.267 OA
HETATM   10  H6  UNK     1      16.943   6.233  32.135  1.00  0.00     0.169 HD
BRANCH   8  11
HETATM   11  C10 UNK     1      17.711   7.915  33.772  1.00  0.00     0.108 A 
HETATM   12  C12 UNK     1      18.480   9.011  33.778  1.00  0.00     0.037 A 
HETATM   13  C11 UNK     1      17.886  10.322  33.988  1.00  0.00    -0.001 A 
HETATM   14  C13 UNK     1      16.512  10.415  34.183  1.00  0.00     0.089 A 
HETATM   15  C18 UNK     1      18.649  11.492  34.002  1.00  0.00     0.014 A 
HETATM   16  O2  UNK     1      15.708   9.258  34.175  1.00  0.00    -0.274 OA
HETATM   17  C19 UNK     1      15.881  11.640  34.390  1.00  0.00     0.038 A 
HETATM   18  C17 UNK     1      16.247   7.990  33.977  1.00  0.00     0.304 A 
HETATM   19  O6  UNK     1      15.540   6.988  33.973  1.00  0.00    -0.259 OA
HETATM   20  C21 UNK     1      16.649  12.801  34.403  1.00  0.00     0.003 A 
HETATM   21  C20 UNK     1      18.031  12.728  34.209  1.00  0.00     0.001 A 
ENDBRANCH   8  11
ENDBRANCH   2   7
BRANCH   1  22
HETATM   22  S1  UNK     1      19.394   0.496  30.650  1.00  0.00     0.264 S 
HETATM   23  O3  UNK     1      20.806   0.318  30.968  1.00  0.00    -0.200 OA
HETATM   24  O4  UNK     1      18.962   0.351  29.265  1.00  0.00    -0.200 OA
BRANCH  22  25
HETATM   25  N1  UNK     1      18.480  -0.566  31.653  1.00  0.00    -0.258 N 
HETATM   26  H1  UNK     1      17.551  -0.904  31.376  1.00  0.00     0.181 HD
BRANCH  25  27
HETATM   27  C2  UNK     1      19.161  -1.232  32.730  1.00  0.00     0.190 A 
HETATM   28  O1  UNK     1      20.300  -1.974  32.592  1.00  0.00    -0.194 OA
HETATM   29  N3  UNK     1      20.686  -2.476  33.829  1.00  0.00    -0.131 NA
HETATM   30  C9  UNK     1      19.767  -2.024  34.688  1.00  0.00     0.068 A 
HETATM   31  C16 UNK     1      19.871  -2.372  36.114  1.00  0.00     0.073 C 
HETATM   32  C3  UNK     1      18.787  -1.239  34.055  1.00  0.00     0.018 A 
HETATM   33  C15 UNK     1      17.624  -0.574  34.668  1.00  0.00     0.055 C 
ENDBRANCH  25  27
ENDBRANCH  22  25
ENDBRANCH   1  22
TORSDOF 5
ENDMDL
MODEL 5
REMARK VINA RESULT:      -9.7     13.996     17.576
REMARK  5 active torsions:
REMARK  status: ('A' for Active; 'I' for Inactive)
REMARK    1  A    between atoms: C1_11  and  S1_1 
REMARK    2  A    between atoms: N1_8  and  S1_1 
REMARK    3  A    between atoms: C2_12  and  N1_8 
REMARK       I    between atoms: C14_24  and  N2_9 
REMARK    4  A    between atoms: C4_14  and  N2_9 
REMARK    5  A    between atoms: C10_20  and  C14_24 
ROOT
HETATM    1  C1  UNK     1      17.220   8.256  33.269  1.00  0.00     0.080 A 
HETATM    2  C4  UNK     1      17.945   5.842  32.123  1.00  0.00     0.035 A 
HETATM    3  C5  UNK     1      16.259   7.467  32.637  1.00  0.00     0.027 A 
HETATM    4  C6  UNK     1      18.547   7.828  33.324  1.00  0.00     0.027 A 
HETATM    5  C7  UNK     1      16.624   6.250  32.060  1.00  0.00     0.031 A 
HETATM    6  C8  UNK     1      18.912   6.612  32.746  1.00  0.00     0.031 A 
ENDROOT
BRANCH   2   7
HETATM    7  N2  UNK     1      18.316   4.607  31.536  1.00  0.00    -0.323 N 
HETATM    8  C14 UNK     1      18.147   3.334  32.064  1.00  0.00     0.262 C 
HETATM    9  O5  UNK     1      17.645   3.021  33.142  1.00  0.00    -0.267 OA
HETATM   10  H6  UNK     1      18.734   4.697  30.613  1.00  0.00     0.169 HD
BRANCH   8  11
HETATM   11  C10 UNK     1      18.654   2.292  31.164  1.00  0.00     0.108 A 
HETATM   12  C12 UNK     1      19.052   1.153  31.745  1.00  0.00     0.037 A 
HETATM   13  C11 UNK     1      19.571   0.060  30.937  1.00  0.00    -0.001 A 
HETATM   14  C13 UNK     1      19.647   0.220  29.558  1.00  0.00     0.089 A 
HETATM   15  C18 UNK     1      19.996  -1.146  31.500  1.00  0.00     0.014 A 
HETATM   16  O2  UNK     1      19.227   1.421  28.952  1.00  0.00    -0.274 OA
HETATM   17  C19 UNK     1      20.135  -0.787  28.727  1.00  0.00     0.038 A 
HETATM   18  C17 UNK     1      18.726   2.484  29.699  1.00  0.00     0.304 A 
HETATM   19  O6  UNK     1      18.364   3.526  29.164  1.00  0.00    -0.259 OA
HETATM   20  C21 UNK     1      20.557  -1.986  29.297  1.00  0.00     0.003 A 
HETATM   21  C20 UNK     1      20.488  -2.165  30.680  1.00  0.00     0.001 A 
ENDBRANCH   8  11
ENDBRANCH   2   7
BRANCH   1  22
HETATM   22  S1  UNK     1      16.763   9.779  33.991  1.00  0.00     0.264 S 
HETATM   23  O3  UNK     1      16.210   9.496  35.310  1.00  0.00    -0.200 OA
HETATM   24  O4  UNK     1      15.955  10.525  33.035  1.00  0.00    -0.200 OA
BRANCH  22  25
HETATM   25  N1  UNK     1      18.279  10.570  34.205  1.00  0.00    -0.258 N 
HETATM   26  H1  UNK     1      19.150  10.041  34.334  1.00  0.00     0.181 HD
BRANCH  25  27
HETATM   27  C2  UNK     1      18.365  11.968  33.881  1.00  0.00     0.190 A 
HETATM   28  O1  UNK     1      19.071  12.482  32.831  1.00  0.00    -0.194 OA
HETATM   29  N3  UNK     1      18.940  13.866  32.811  1.00  0.00    -0.131 NA
HETATM   30  C9  UNK     1      18.156  14.155  33.853  1.00  0.00     0.068 A 
HETATM   31  C16 UNK     1      17.805  15.556  34.134  1.00  0.00     0.073 C 
HETATM   32  C3  UNK     1      17.764  13.004  34.560  1.00  0.00     0.018 A 
HETATM   33  C15 UNK     1      16.907  12.923  35.755  1.00  0.00     0.055 C 
ENDBRANCH  25  27
ENDBRANCH  22  25
ENDBRANCH   1  22
TORSDOF 5
ENDMDL
MODEL 6
REMARK VINA RESULT:      -9.7      6.354      9.554
REMARK  5 active torsions:
REMARK  status: ('A' for Active; 'I' for Inactive)
REMARK    1  A    between atoms: C1_11  and  S1_1 
REMARK    2  A    between atoms: N1_8  and  S1_1 
REMARK    3  A    between atoms: C2_12  and  N1_8 
REMARK       I    between atoms: C14_24  and  N2_9 
REMARK    4  A    between atoms: C4_14  and  N2_9 
REMARK    5  A    between atoms: C10_20  and  C14_24 
ROOT
HETATM    1  C1  UNK     1      18.016  -0.437  35.811  1.00  0.00     0.080 A 
HETATM    2  C4  UNK     1      19.367  -2.827  36.162  1.00  0.00     0.035 A 
HETATM    3  C5  UNK     1      18.758  -0.979  34.762  1.00  0.00     0.027 A 
HETATM    4  C6  UNK     1      17.954  -1.099  37.037  1.00  0.00     0.027 A 
HETATM    5  C7  UNK     1      19.439  -2.184  34.938  1.00  0.00     0.031 A 
HETATM    6  C8  UNK     1      18.635  -2.303  37.214  1.00  0.00     0.031 A 
ENDROOT
BRANCH   2   7
HETATM    7  N2  UNK     1      20.059  -4.050  36.341  1.00  0.00    -0.323 N 
HETATM    8  C14 UNK     1      19.513  -5.316  36.504  1.00  0.00     0.262 C 
HETATM    9  O5  UNK     1      18.324  -5.632  36.525  1.00  0.00    -0.267 OA
HETATM   10  H6  UNK     1      21.072  -3.958  36.326  1.00  0.00     0.169 HD
BRANCH   8  11
HETATM   11  C10 UNK     1      20.545  -6.347  36.662  1.00  0.00     0.108 A 
HETATM   12  C12 UNK     1      20.444  -7.413  35.859  1.00  0.00     0.037 A 
HETATM   13  C11 UNK     1      21.419  -8.489  35.941  1.00  0.00    -0.001 A 
HETATM   14  C13 UNK     1      22.453  -8.390  36.866  1.00  0.00     0.089 A 
HETATM   15  C18 UNK     1      21.353  -9.620  35.123  1.00  0.00     0.014 A 
HETATM   16  O2  UNK     1      22.556  -7.265  37.708  1.00  0.00    -0.274 OA
HETATM   17  C19 UNK     1      23.420  -9.386  36.996  1.00  0.00     0.038 A 
HETATM   18  C17 UNK     1      21.637  -6.221  37.653  1.00  0.00     0.304 A 
HETATM   19  O6  UNK     1      21.733  -5.246  38.391  1.00  0.00    -0.259 OA
HETATM   20  C21 UNK     1      23.345 -10.509  36.176  1.00  0.00     0.003 A 
HETATM   21  C20 UNK     1      22.314 -10.627  35.242  1.00  0.00     0.001 A 
ENDBRANCH   8  11
ENDBRANCH   2   7
BRANCH   1  22
HETATM   22  S1  UNK     1      17.164   1.072  35.590  1.00  0.00     0.264 S 
HETATM   23  O3  UNK     1      16.757   1.549  36.906  1.00  0.00    -0.200 OA
HETATM   24  O4  UNK     1      16.145   0.886  34.563  1.00  0.00    -0.200 OA
BRANCH  22  25
HETATM   25  N1  UNK     1      18.395   2.122  34.996  1.00  0.00    -0.258 N 
HETATM   26  H1  UNK     1      19.317   2.180  35.445  1.00  0.00     0.181 HD
BRANCH  25  27
HETATM   27  C2  UNK     1      18.235   2.677  33.680  1.00  0.00     0.190 A 
HETATM   28  O1  UNK     1      17.865   1.965  32.574  1.00  0.00    -0.194 OA
HETATM   29  N3  UNK     1      17.809   2.808  31.470  1.00  0.00    -0.131 NA
HETATM   30  C9  UNK     1      18.149   4.013  31.938  1.00  0.00     0.068 A 
HETATM   31  C16 UNK     1      18.193   5.163  31.021  1.00  0.00     0.073 C 
HETATM   32  C3  UNK     1      18.426   3.991  33.316  1.00  0.00     0.018 A 
HETATM   33  C15 UNK     1      18.830   5.116  34.177  1.00  0.00     0.055 C 
ENDBRANCH  25  27
ENDBRANCH  22  25
ENDBRANCH   1  22
TORSDOF 5
ENDMDL
MODEL 7
REMARK VINA RESULT:      -9.7      6.475     10.751
REMARK  5 active torsions:
REMARK  status: ('A' for Active; 'I' for Inactive)
REMARK    1  A    between atoms: C1_11  and  S1_1 
REMARK    2  A    between atoms: N1_8  and  S1_1 
REMARK    3  A    between atoms: C2_12  and  N1_8 
REMARK       I    between atoms: C14_24  and  N2_9 
REMARK    4  A    between atoms: C4_14  and  N2_9 
REMARK    5  A    between atoms: C10_20  and  C14_24 
ROOT
HETATM    1  C1  UNK     1      20.068  -4.084  36.669  1.00  0.00     0.080 A 
HETATM    2  C4  UNK     1      19.545  -1.612  35.539  1.00  0.00     0.035 A 
HETATM    3  C5  UNK     1      20.381  -3.849  35.331  1.00  0.00     0.027 A 
HETATM    4  C6  UNK     1      19.491  -3.074  37.438  1.00  0.00     0.027 A 
HETATM    5  C7  UNK     1      20.118  -2.602  34.761  1.00  0.00     0.031 A 
HETATM    6  C8  UNK     1      19.227  -1.828  36.869  1.00  0.00     0.031 A 
ENDROOT
BRANCH   2   7
HETATM    7  N2  UNK     1      19.276  -0.347  34.960  1.00  0.00    -0.323 N 
HETATM    8  C14 UNK     1      18.211   0.001  34.141  1.00  0.00     0.262 C 
HETATM    9  O5  UNK     1      17.289  -0.714  33.752  1.00  0.00    -0.267 OA
HETATM   10  H6  UNK     1      19.951   0.373  35.209  1.00  0.00     0.169 HD
BRANCH   8  11
HETATM   11  C10 UNK     1      18.264   1.409  33.733  1.00  0.00     0.108 A 
HETATM   12  C12 UNK     1      18.432   1.640  32.425  1.00  0.00     0.037 A 
HETATM   13  C11 UNK     1      18.498   3.004  31.923  1.00  0.00    -0.001 A 
HETATM   14  C13 UNK     1      18.385   4.058  32.823  1.00  0.00     0.089 A 
HETATM   15  C18 UNK     1      18.672   3.291  30.567  1.00  0.00     0.014 A 
HETATM   16  O2  UNK     1      18.207   3.809  34.198  1.00  0.00    -0.274 OA
HETATM   17  C19 UNK     1      18.440   5.387  32.407  1.00  0.00     0.038 A 
HETATM   18  C17 UNK     1      18.141   2.516  34.708  1.00  0.00     0.304 A 
HETATM   19  O6  UNK     1      17.988   2.309  35.907  1.00  0.00    -0.259 OA
HETATM   20  C21 UNK     1      18.614   5.664  31.054  1.00  0.00     0.003 A 
HETATM   21  C20 UNK     1      18.730   4.619  30.135  1.00  0.00     0.001 A 
ENDBRANCH   8  11
ENDBRANCH   2   7
BRANCH   1  22
HETATM   22  S1  UNK     1      20.397  -5.644  37.382  1.00  0.00     0.264 S 
HETATM   23  O3  UNK     1      19.730  -5.689  38.678  1.00  0.00    -0.200 OA
HETATM   24  O4  UNK     1      21.833  -5.891  37.322  1.00  0.00    -0.200 OA
BRANCH  22  25
HETATM   25  N1  UNK     1      19.581  -6.729  36.321  1.00  0.00    -0.258 N 
HETATM   26  H1  UNK     1      18.651  -6.515  35.942  1.00  0.00     0.181 HD
BRANCH  25  27
HETATM   27  C2  UNK     1      20.345  -7.785  35.714  1.00  0.00     0.190 A 
HETATM   28  O1  UNK     1      20.910  -7.724  34.472  1.00  0.00    -0.194 OA
HETATM   29  N3  UNK     1      21.573  -8.915  34.198  1.00  0.00    -0.131 NA
HETATM   30  C9  UNK     1      21.390  -9.670  35.286  1.00  0.00     0.068 A 
HETATM   31  C16 UNK     1      21.969 -11.022  35.338  1.00  0.00     0.073 C 
HETATM   32  C3  UNK     1      20.628  -9.013  36.269  1.00  0.00     0.018 A 
HETATM   33  C15 UNK     1      20.224  -9.521  37.591  1.00  0.00     0.055 C 
ENDBRANCH  25  27
ENDBRANCH  22  25
ENDBRANCH   1  22
TORSDOF 5
ENDMDL
MODEL 8
REMARK VINA RESULT:      -9.6      8.128     11.748
REMARK  5 active torsions:
REMARK  status: ('A' for Active; 'I' for Inactive)
REMARK    1  A    between atoms: C1_11  and  S1_1 
REMARK    2  A    between atoms: N1_8  and  S1_1 
REMARK    3  A    between atoms: C2_12  and  N1_8 
REMARK       I    between atoms: C14_24  and  N2_9 
REMARK    4  A    between atoms: C4_14  and  N2_9 
REMARK    5  A    between atoms: C10_20  and  C14_24 
ROOT
HETATM    1  C1  UNK     1      18.813   0.786  31.481  1.00  0.00     0.080 A 
HETATM    2  C4  UNK     1      19.122  -1.251  33.330  1.00  0.00     0.035 A 
HETATM    3  C5  UNK     1      19.399  -0.420  31.098  1.00  0.00     0.027 A 
HETATM    4  C6  UNK     1      18.382   0.966  32.795  1.00  0.00     0.027 A 
HETATM    5  C7  UNK     1      19.554  -1.448  32.029  1.00  0.00     0.031 A 
HETATM    6  C8  UNK     1      18.538  -0.060  33.727  1.00  0.00     0.031 A 
ENDROOT
BRANCH   2   7
HETATM    7  N2  UNK     1      19.281  -2.294  34.275  1.00  0.00    -0.323 N 
HETATM    8  C14 UNK     1      20.437  -2.651  34.956  1.00  0.00     0.262 C 
HETATM    9  O5  UNK     1      21.552  -2.138  34.877  1.00  0.00    -0.267 OA
HETATM   10  H6  UNK     1      18.425  -2.809  34.470  1.00  0.00     0.169 HD
BRANCH   8  11
HETATM   11  C10 UNK     1      20.218  -3.785  35.861  1.00  0.00     0.108 A 
HETATM   12  C12 UNK     1      20.091  -4.986  35.283  1.00  0.00     0.037 A 
HETATM   13  C11 UNK     1      19.870  -6.171  36.097  1.00  0.00    -0.001 A 
HETATM   14  C13 UNK     1      19.793  -6.034  37.478  1.00  0.00     0.089 A 
HETATM   15  C18 UNK     1      19.733  -7.444  35.537  1.00  0.00     0.014 A 
HETATM   16  O2  UNK     1      19.928  -4.768  38.081  1.00  0.00    -0.274 OA
HETATM   17  C19 UNK     1      19.583  -7.130  38.314  1.00  0.00     0.038 A 
HETATM   18  C17 UNK     1      20.139  -3.616  37.329  1.00  0.00     0.304 A 
HETATM   19  O6  UNK     1      20.254  -2.518  37.862  1.00  0.00    -0.259 OA
HETATM   20  C21 UNK     1      19.446  -8.395  37.748  1.00  0.00     0.003 A 
HETATM   21  C20 UNK     1      19.521  -8.552  36.362  1.00  0.00     0.001 A 
ENDBRANCH   8  11
ENDBRANCH   2   7
BRANCH   1  22
HETATM   22  S1  UNK     1      18.618   2.071  30.315  1.00  0.00     0.264 S 
HETATM   23  O3  UNK     1      17.227   2.505  30.360  1.00  0.00    -0.200 OA
HETATM   24  O4  UNK     1      19.177   1.635  29.041  1.00  0.00    -0.200 OA
BRANCH  22  25
HETATM   25  N1  UNK     1      19.594   3.332  30.970  1.00  0.00    -0.258 N 
HETATM   26  H1  UNK     1      20.602   3.211  31.121  1.00  0.00     0.181 HD
BRANCH  25  27
HETATM   27  C2  UNK     1      19.048   4.662  31.001  1.00  0.00     0.190 A 
HETATM   28  O1  UNK     1      19.041   5.527  29.945  1.00  0.00    -0.194 OA
HETATM   29  N3  UNK     1      18.442   6.723  30.320  1.00  0.00    -0.131 NA
HETATM   30  C9  UNK     1      18.100   6.551  31.601  1.00  0.00     0.068 A 
HETATM   31  C16 UNK     1      17.431   7.642  32.328  1.00  0.00     0.073 C 
HETATM   32  C3  UNK     1      18.456   5.278  32.081  1.00  0.00     0.018 A 
HETATM   33  C15 UNK     1      18.243   4.727  33.430  1.00  0.00     0.055 C 
ENDBRANCH  25  27
ENDBRANCH  22  25
ENDBRANCH   1  22
TORSDOF 5
ENDMDL
MODEL 9
REMARK VINA RESULT:      -9.5     13.856     17.418
REMARK  5 active torsions:
REMARK  status: ('A' for Active; 'I' for Inactive)
REMARK    1  A    between atoms: C1_11  and  S1_1 
REMARK    2  A    between atoms: N1_8  and  S1_1 
REMARK    3  A    between atoms: C2_12  and  N1_8 
REMARK       I    between atoms: C14_24  and  N2_9 
REMARK    4  A    between atoms: C4_14  and  N2_9 
REMARK    5  A    between atoms: C10_20  and  C14_24 
ROOT
HETATM    1  C1  UNK     1      16.434   8.348  33.544  1.00  0.00     0.080 A 
HETATM    2  C4  UNK     1      17.294   5.778  32.976  1.00  0.00     0.035 A 
HETATM    3  C5  UNK     1      15.793   7.601  32.556  1.00  0.00     0.027 A 
HETATM    4  C6  UNK     1      17.507   7.800  34.246  1.00  0.00     0.027 A 
HETATM    5  C7  UNK     1      16.226   6.305  32.270  1.00  0.00     0.031 A 
HETATM    6  C8  UNK     1      17.941   6.506  33.960  1.00  0.00     0.031 A 
ENDROOT
BRANCH   2   7
HETATM    7  N2  UNK     1      17.734   4.464  32.684  1.00  0.00    -0.323 N 
HETATM    8  C14 UNK     1      18.286   3.999  31.498  1.00  0.00     0.262 C 
HETATM    9  O5  UNK     1      18.502   4.629  30.464  1.00  0.00    -0.267 OA
HETATM   10  H6  UNK     1      17.640   3.814  33.462  1.00  0.00     0.169 HD
BRANCH   8  11
HETATM   11  C10 UNK     1      18.624   2.573  31.567  1.00  0.00     0.108 A 
HETATM   12  C12 UNK     1      19.188   2.045  30.474  1.00  0.00     0.037 A 
HETATM   13  C11 UNK     1      19.559   0.639  30.446  1.00  0.00    -0.001 A 
HETATM   14  C13 UNK     1      19.318  -0.143  31.570  1.00  0.00     0.089 A 
HETATM   15  C18 UNK     1      20.149   0.047  29.326  1.00  0.00     0.014 A 
HETATM   16  O2  UNK     1      18.726   0.418  32.719  1.00  0.00    -0.274 OA
HETATM   17  C19 UNK     1      19.649  -1.496  31.608  1.00  0.00     0.038 A 
HETATM   18  C17 UNK     1      18.359   1.760  32.775  1.00  0.00     0.304 A 
HETATM   19  O6  UNK     1      17.843   2.239  33.779  1.00  0.00    -0.259 OA
HETATM   20  C21 UNK     1      20.237  -2.078  30.487  1.00  0.00     0.003 A 
HETATM   21  C20 UNK     1      20.486  -1.309  29.349  1.00  0.00     0.001 A 
ENDBRANCH   8  11
ENDBRANCH   2   7
BRANCH   1  22
HETATM   22  S1  UNK     1      15.891   9.968  33.902  1.00  0.00     0.264 S 
HETATM   23  O3  UNK     1      15.297  10.516  32.689  1.00  0.00    -0.200 OA
HETATM   24  O4  UNK     1      16.982  10.695  34.540  1.00  0.00    -0.200 OA
BRANCH  22  25
HETATM   25  N1  UNK     1      14.629   9.705  35.046  1.00  0.00    -0.258 N 
HETATM   26  H1  UNK     1      14.354   8.759  35.337  1.00  0.00     0.181 HD
BRANCH  25  27
HETATM   27  C2  UNK     1      14.182  10.824  35.830  1.00  0.00     0.190 A 
HETATM   28  O1  UNK     1      14.583  11.089  37.108  1.00  0.00    -0.194 OA
HETATM   29  N3  UNK     1      13.957  12.242  37.568  1.00  0.00    -0.131 NA
HETATM   30  C9  UNK     1      13.189  12.646  36.551  1.00  0.00     0.068 A 
HETATM   31  C16 UNK     1      12.372  13.862  36.696  1.00  0.00     0.073 C 
HETATM   32  C3  UNK     1      13.290  11.796  35.436  1.00  0.00     0.018 A 
HETATM   33  C15 UNK     1      12.600  11.916  34.140  1.00  0.00     0.055 C 
ENDBRANCH  25  27
ENDBRANCH  22  25
ENDBRANCH   1  22
TORSDOF 5
ENDMDL
MODEL 10
REMARK VINA RESULT:      -9.5     14.382     17.950
REMARK  5 active torsions:
REMARK  status: ('A' for Active; 'I' for Inactive)
REMARK    1  A    between atoms: C1_11  and  S1_1 
REMARK    2  A    between atoms: N1_8  and  S1_1 
REMARK    3  A    between atoms: C2_12  and  N1_8 
REMARK       I    between atoms: C14_24  and  N2_9 
REMARK    4  A    between atoms: C4_14  and  N2_9 
REMARK    5  A    between atoms: C10_20  and  C14_24 
ROOT
HETATM    1  C1  UNK     1      16.121   8.613  33.468  1.00  0.00     0.080 A 
HETATM    2  C4  UNK     1      17.055   6.072  32.890  1.00  0.00     0.035 A 
HETATM    3  C5  UNK     1      17.108   8.034  34.266  1.00  0.00     0.027 A 
HETATM    4  C6  UNK     1      15.604   7.911  32.379  1.00  0.00     0.027 A 
HETATM    5  C7  UNK     1      17.579   6.754  33.974  1.00  0.00     0.031 A 
HETATM    6  C8  UNK     1      16.075   6.631  32.088  1.00  0.00     0.031 A 
ENDROOT
BRANCH   2   7
HETATM    7  N2  UNK     1      17.533   4.771  32.595  1.00  0.00    -0.323 N 
HETATM    8  C14 UNK     1      18.226   4.360  31.464  1.00  0.00     0.262 C 
HETATM    9  O5  UNK     1      18.565   5.037  30.495  1.00  0.00    -0.267 OA
HETATM   10  H6  UNK     1      17.346   4.087  33.324  1.00  0.00     0.169 HD
BRANCH   8  11
HETATM   11  C10 UNK     1      18.559   2.932  31.509  1.00  0.00     0.108 A 
HETATM   12  C12 UNK     1      19.036   2.400  30.377  1.00  0.00     0.037 A 
HETATM   13  C11 UNK     1      19.395   0.992  30.323  1.00  0.00    -0.001 A 
HETATM   14  C13 UNK     1      19.232   0.211  31.462  1.00  0.00     0.089 A 
HETATM   15  C18 UNK     1      19.896   0.395  29.163  1.00  0.00     0.014 A 
HETATM   16  O2  UNK     1      18.731   0.776  32.651  1.00  0.00    -0.274 OA
HETATM   17  C19 UNK     1      19.556  -1.144  31.476  1.00  0.00     0.038 A 
HETATM   18  C17 UNK     1      18.379   2.120  32.734  1.00  0.00     0.304 A 
HETATM   19  O6  UNK     1      17.941   2.603  33.773  1.00  0.00    -0.259 OA
HETATM   20  C21 UNK     1      20.055  -1.731  30.316  1.00  0.00     0.003 A 
HETATM   21  C20 UNK     1      20.225  -0.964  29.161  1.00  0.00     0.001 A 
ENDBRANCH   8  11
ENDBRANCH   2   7
BRANCH   1  22
HETATM   22  S1  UNK     1      15.531  10.215  33.833  1.00  0.00     0.264 S 
HETATM   23  O3  UNK     1      16.658  11.136  33.738  1.00  0.00    -0.200 OA
HETATM   24  O4  UNK     1      14.772  10.161  35.076  1.00  0.00    -0.200 OA
BRANCH  22  25
HETATM   25  N1  UNK     1      14.464  10.538  32.519  1.00  0.00    -0.258 N 
HETATM   26  H1  UNK     1      14.478   9.974  31.662  1.00  0.00     0.181 HD
BRANCH  25  27
HETATM   27  C2  UNK     1      13.335  11.396  32.759  1.00  0.00     0.190 A 
HETATM   28  O1  UNK     1      12.054  10.964  32.952  1.00  0.00    -0.194 OA
HETATM   29  N3  UNK     1      11.216  12.054  33.153  1.00  0.00    -0.131 NA
HETATM   30  C9  UNK     1      12.014  13.123  33.077  1.00  0.00     0.068 A 
HETATM   31  C16 UNK     1      11.445  14.469  33.247  1.00  0.00     0.073 C 
HETATM   32  C3  UNK     1      13.353  12.771  32.832  1.00  0.00     0.018 A 
HETATM   33  C15 UNK     1      14.513  13.667  32.685  1.00  0.00     0.055 C 
ENDBRANCH  25  27
ENDBRANCH  22  25
ENDBRANCH   1  22
TORSDOF 5
ENDMDL
