MODEL 1
REMARK VINA RESULT:      -7.7      0.000      0.000
REMARK  7 active torsions:
REMARK  status: ('A' for Active; 'I' for Inactive)
REMARK    1  A    between atoms: C22_29  and  S1_1 
REMARK    2  A    between atoms: C23_30  and  S1_1 
REMARK    3  A    between atoms: C11_18  and  O3_4 
REMARK    4  A    between atoms: C19_26  and  O3_4 
REMARK    5  A    between atoms: C1_8  and  C10_17 
REMARK    6  A    between atoms: C11_18  and  C6_13 
REMARK    7  A    between atoms: C19_26  and  C22_29 
ROOT
HETATM    1  O1  UNK     1      29.316  -5.229  31.933  1.00  0.00    -0.293 OA
HETATM    2  N1  UNK     1      28.858  -9.926  31.529  1.00  0.00    -0.362 N 
HETATM    3  C1  UNK     1      30.165  -7.813  32.896  1.00  0.00     0.104 C 
HETATM    4  C2  UNK     1      29.076  -7.590  31.853  1.00  0.00     0.024 C 
HETATM    5  C3  UNK     1      28.466  -8.632  31.248  1.00  0.00     0.020 C 
HETATM    6  C4  UNK     1      27.350  -8.471  30.249  1.00  0.00     0.058 C 
HETATM    7  C5  UNK     1      26.660  -7.120  30.372  1.00  0.00     0.014 C 
HETATM    8  C6  UNK     1      30.591  -9.280  33.006  1.00  0.00     0.052 C 
HETATM    9  C7  UNK     1      27.675  -5.991  30.375  1.00  0.00     0.084 C 
HETATM   10  C8  UNK     1      28.722  -6.193  31.449  1.00  0.00     0.158 C 
HETATM   11  C9  UNK     1      29.928 -10.258  32.348  1.00  0.00     0.018 C 
HETATM   12  C13 UNK     1      30.249 -11.729  32.381  1.00  0.00     0.069 C 
HETATM   13  H8  UNK     1      28.382 -10.680  31.045  1.00  0.00     0.165 HD
ENDROOT
BRANCH   3  14
HETATM   14  C10 UNK     1      29.711  -7.301  34.237  1.00  0.00     0.029 A 
HETATM   15  C12 UNK     1      30.525  -6.258  34.910  1.00  0.00     0.194 A 
HETATM   16  O5  UNK     1      31.546  -5.805  34.410  1.00  0.00    -0.287 OA
HETATM   17  C15 UNK     1      30.037  -5.793  36.222  1.00  0.00     0.048 A 
HETATM   18  C16 UNK     1      28.866  -6.344  36.744  1.00  0.00     0.089 A 
HETATM   19  C17 UNK     1      30.733  -4.815  36.935  1.00  0.00     0.018 A 
HETATM   20  O2  UNK     1      28.142  -7.307  36.087  1.00  0.00    -0.321 OA
HETATM   21  C18 UNK     1      28.386  -5.919  37.983  1.00  0.00     0.038 A 
HETATM   22  C14 UNK     1      28.610  -7.731  34.867  1.00  0.00     0.154 A 
HETATM   23  C21 UNK     1      29.078  -4.941  38.697  1.00  0.00     0.003 A 
HETATM   24  C20 UNK     1      30.250  -4.390  38.174  1.00  0.00     0.001 A 
ENDBRANCH   3  14
BRANCH   8  25
HETATM   25  C11 UNK     1      31.762  -9.550  33.857  1.00  0.00     0.292 C 
HETATM   26  O4  UNK     1      32.909  -9.379  33.489  1.00  0.00    -0.259 OA
BRANCH  25  27
HETATM   27  O3  UNK     1      31.323 -10.001  35.057  1.00  0.00    -0.317 OA
BRANCH  27  28
HETATM   28  C19 UNK     1      32.145  -9.647  36.174  1.00  0.00     0.189 C 
BRANCH  28  29
HETATM   29  C22 UNK     1      31.277  -9.165  37.327  1.00  0.00     0.100 C 
BRANCH  29  30
HETATM   30  S1  UNK     1      32.148  -7.934  38.345  1.00  0.00    -0.167 SA
BRANCH  30  31
HETATM   31  C23 UNK     1      33.462  -7.515  37.176  1.00  0.00     0.069 C 
HETATM   32  C24 UNK     1      34.178  -6.252  37.612  1.00  0.00     0.016 C 
ENDBRANCH  30  31
ENDBRANCH  29  30
ENDBRANCH  28  29
ENDBRANCH  27  28
ENDBRANCH  25  27
ENDBRANCH   8  25
TORSDOF 7
ENDMDL
MODEL 2
REMARK VINA RESULT:      -7.5      1.200      1.524
REMARK  7 active torsions:
REMARK  status: ('A' for Active; 'I' for Inactive)
REMARK    1  A    between atoms: C22_29  and  S1_1 
REMARK    2  A    between atoms: C23_30  and  S1_1 
REMARK    3  A    between atoms: C11_18  and  O3_4 
REMARK    4  A    between atoms: C19_26  and  O3_4 
REMARK    5  A    between atoms: C1_8  and  C10_17 
REMARK    6  A    between atoms: C11_18  and  C6_13 
REMARK    7  A    between atoms: C19_26  and  C22_29 
ROOT
HETATM    1  O1  UNK     1      29.384  -5.281  32.049  1.00  0.00    -0.293 OA
HETATM    2  N1  UNK     1      29.046  -9.993  31.703  1.00  0.00    -0.362 N 
HETATM    3  C1  UNK     1      30.279  -7.830  33.062  1.00  0.00     0.104 C 
HETATM    4  C2  UNK     1      29.202  -7.648  31.998  1.00  0.00     0.024 C 
HETATM    5  C3  UNK     1      28.627  -8.712  31.398  1.00  0.00     0.020 C 
HETATM    6  C4  UNK     1      27.525  -8.592  30.380  1.00  0.00     0.058 C 
HETATM    7  C5  UNK     1      26.800  -7.257  30.472  1.00  0.00     0.014 C 
HETATM    8  C6  UNK     1      30.739  -9.284  33.199  1.00  0.00     0.052 C 
HETATM    9  C7  UNK     1      27.788  -6.104  30.476  1.00  0.00     0.084 C 
HETATM   10  C8  UNK     1      28.821  -6.266  31.569  1.00  0.00     0.158 C 
HETATM   11  C9  UNK     1      30.110 -10.288  32.544  1.00  0.00     0.018 C 
HETATM   12  C13 UNK     1      30.466 -11.749  32.602  1.00  0.00     0.069 C 
HETATM   13  H8  UNK     1      28.597 -10.765  31.222  1.00  0.00     0.165 HD
ENDROOT
BRANCH   3  14
HETATM   14  C10 UNK     1      29.791  -7.311  34.388  1.00  0.00     0.029 A 
HETATM   15  C12 UNK     1      30.571  -6.243  35.061  1.00  0.00     0.194 A 
HETATM   16  O5  UNK     1      31.591  -5.774  34.572  1.00  0.00    -0.287 OA
HETATM   17  C15 UNK     1      30.051  -5.771  36.358  1.00  0.00     0.048 A 
HETATM   18  C16 UNK     1      28.883  -6.341  36.868  1.00  0.00     0.089 A 
HETATM   19  C17 UNK     1      30.713  -4.770  37.070  1.00  0.00     0.018 A 
HETATM   20  O2  UNK     1      28.191  -7.328  36.211  1.00  0.00    -0.321 OA
HETATM   21  C18 UNK     1      28.373  -5.911  38.093  1.00  0.00     0.038 A 
HETATM   22  C14 UNK     1      28.689  -7.757  35.004  1.00  0.00     0.154 A 
HETATM   23  C21 UNK     1      29.032  -4.909  38.806  1.00  0.00     0.003 A 
HETATM   24  C20 UNK     1      30.200  -4.340  38.295  1.00  0.00     0.001 A 
ENDBRANCH   3  14
BRANCH   8  25
HETATM   25  C11 UNK     1      31.902  -9.515  34.071  1.00  0.00     0.292 C 
HETATM   26  O4  UNK     1      31.812  -9.943  35.206  1.00  0.00    -0.259 OA
BRANCH  25  27
HETATM   27  O3  UNK     1      33.022  -9.173  33.389  1.00  0.00    -0.317 OA
BRANCH  27  28
HETATM   28  C19 UNK     1      34.110  -8.716  34.200  1.00  0.00     0.189 C 
BRANCH  28  29
HETATM   29  C22 UNK     1      34.602  -7.367  33.699  1.00  0.00     0.100 C 
BRANCH  29  30
HETATM   30  S1  UNK     1      35.221  -6.337  35.065  1.00  0.00    -0.167 SA
BRANCH  30  31
HETATM   31  C23 UNK     1      34.303  -7.116  36.413  1.00  0.00     0.069 C 
HETATM   32  C24 UNK     1      34.164  -6.162  37.583  1.00  0.00     0.016 C 
ENDBRANCH  30  31
ENDBRANCH  29  30
ENDBRANCH  28  29
ENDBRANCH  27  28
ENDBRANCH  25  27
ENDBRANCH   8  25
TORSDOF 7
ENDMDL
MODEL 3
REMARK VINA RESULT:      -7.4      1.980      3.074
REMARK  7 active torsions:
REMARK  status: ('A' for Active; 'I' for Inactive)
REMARK    1  A    between atoms: C22_29  and  S1_1 
REMARK    2  A    between atoms: C23_30  and  S1_1 
REMARK    3  A    between atoms: C11_18  and  O3_4 
REMARK    4  A    between atoms: C19_26  and  O3_4 
REMARK    5  A    between atoms: C1_8  and  C10_17 
REMARK    6  A    between atoms: C11_18  and  C6_13 
REMARK    7  A    between atoms: C19_26  and  C22_29 
ROOT
HETATM    1  O1  UNK     1      29.451  -5.277  31.942  1.00  0.00    -0.293 OA
HETATM    2  N1  UNK     1      28.988  -9.978  31.589  1.00  0.00    -0.362 N 
HETATM    3  C1  UNK     1      30.292  -7.851  32.939  1.00  0.00     0.104 C 
HETATM    4  C2  UNK     1      29.208  -7.638  31.888  1.00  0.00     0.024 C 
HETATM    5  C3  UNK     1      28.599  -8.686  31.292  1.00  0.00     0.020 C 
HETATM    6  C4  UNK     1      27.489  -8.535  30.286  1.00  0.00     0.058 C 
HETATM    7  C5  UNK     1      26.800  -7.181  30.390  1.00  0.00     0.014 C 
HETATM    8  C6  UNK     1      30.715  -9.317  33.067  1.00  0.00     0.052 C 
HETATM    9  C7  UNK     1      27.817  -6.054  30.386  1.00  0.00     0.084 C 
HETATM   10  C8  UNK     1      28.858  -6.246  31.467  1.00  0.00     0.158 C 
HETATM   11  C9  UNK     1      30.053 -10.302  32.417  1.00  0.00     0.018 C 
HETATM   12  C13 UNK     1      30.372 -11.773  32.467  1.00  0.00     0.069 C 
HETATM   13  H8  UNK     1      28.514 -10.736  31.111  1.00  0.00     0.165 HD
ENDROOT
BRANCH   3  14
HETATM   14  C10 UNK     1      29.832  -7.324  34.272  1.00  0.00     0.029 A 
HETATM   15  C12 UNK     1      30.658  -6.294  34.950  1.00  0.00     0.194 A 
HETATM   16  O5  UNK     1      31.693  -5.863  34.459  1.00  0.00    -0.287 OA
HETATM   17  C15 UNK     1      30.163  -5.812  36.253  1.00  0.00     0.048 A 
HETATM   18  C16 UNK     1      28.976  -6.337  36.764  1.00  0.00     0.089 A 
HETATM   19  C17 UNK     1      30.870  -4.843  36.969  1.00  0.00     0.018 A 
HETATM   20  O2  UNK     1      28.242  -7.290  36.103  1.00  0.00    -0.321 OA
HETATM   21  C18 UNK     1      28.490  -5.897  37.995  1.00  0.00     0.038 A 
HETATM   22  C14 UNK     1      28.715  -7.729  34.891  1.00  0.00     0.154 A 
HETATM   23  C21 UNK     1      29.192  -4.929  38.712  1.00  0.00     0.003 A 
HETATM   24  C20 UNK     1      30.380  -4.404  38.200  1.00  0.00     0.001 A 
ENDBRANCH   3  14
BRANCH   8  25
HETATM   25  C11 UNK     1      31.882  -9.580  33.927  1.00  0.00     0.292 C 
HETATM   26  O4  UNK     1      31.817 -10.202  34.970  1.00  0.00    -0.259 OA
BRANCH  25  27
HETATM   27  O3  UNK     1      32.972  -9.022  33.348  1.00  0.00    -0.317 OA
BRANCH  27  28
HETATM   28  C19 UNK     1      33.672  -9.868  32.430  1.00  0.00     0.189 C 
BRANCH  28  29
HETATM   29  C22 UNK     1      34.028  -9.091  31.172  1.00  0.00     0.100 C 
BRANCH  29  30
HETATM   30  S1  UNK     1      32.753  -9.286  29.888  1.00  0.00    -0.167 SA
BRANCH  30  31
HETATM   31  C23 UNK     1      32.272  -7.551  29.735  1.00  0.00     0.069 C 
HETATM   32  C24 UNK     1      31.151  -7.397  28.726  1.00  0.00     0.016 C 
ENDBRANCH  30  31
ENDBRANCH  29  30
ENDBRANCH  28  29
ENDBRANCH  27  28
ENDBRANCH  25  27
ENDBRANCH   8  25
TORSDOF 7
ENDMDL
MODEL 4
REMARK VINA RESULT:      -7.4      2.086      5.870
REMARK  7 active torsions:
REMARK  status: ('A' for Active; 'I' for Inactive)
REMARK    1  A    between atoms: C22_29  and  S1_1 
REMARK    2  A    between atoms: C23_30  and  S1_1 
REMARK    3  A    between atoms: C11_18  and  O3_4 
REMARK    4  A    between atoms: C19_26  and  O3_4 
REMARK    5  A    between atoms: C1_8  and  C10_17 
REMARK    6  A    between atoms: C11_18  and  C6_13 
REMARK    7  A    between atoms: C19_26  and  C22_29 
ROOT
HETATM    1  O1  UNK     1      28.014  -9.587  36.116  1.00  0.00    -0.293 OA
HETATM    2  N1  UNK     1      29.162  -5.283  37.726  1.00  0.00    -0.362 N 
HETATM    3  C1  UNK     1      29.588  -7.207  35.686  1.00  0.00     0.104 C 
HETATM    4  C2  UNK     1      28.572  -7.386  36.809  1.00  0.00     0.024 C 
HETATM    5  C3  UNK     1      28.389  -6.428  37.743  1.00  0.00     0.020 C 
HETATM    6  C4  UNK     1      27.366  -6.530  38.843  1.00  0.00     0.058 C 
HETATM    7  C5  UNK     1      26.261  -7.524  38.510  1.00  0.00     0.014 C 
HETATM    8  C6  UNK     1      30.462  -5.964  35.868  1.00  0.00     0.052 C 
HETATM    9  C7  UNK     1      26.845  -8.852  38.062  1.00  0.00     0.084 C 
HETATM   10  C8  UNK     1      27.811  -8.670  36.912  1.00  0.00     0.158 C 
HETATM   11  C9  UNK     1      30.213  -5.063  36.847  1.00  0.00     0.018 C 
HETATM   12  C13 UNK     1      30.996  -3.807  37.121  1.00  0.00     0.069 C 
HETATM   13  H8  UNK     1      29.001  -4.593  38.451  1.00  0.00     0.165 HD
ENDROOT
BRANCH   3  14
HETATM   14  C10 UNK     1      28.885  -7.159  34.355  1.00  0.00     0.029 A 
HETATM   15  C12 UNK     1      29.199  -8.204  33.349  1.00  0.00     0.194 A 
HETATM   16  O5  UNK     1      30.005  -9.099  33.570  1.00  0.00    -0.287 OA
HETATM   17  C15 UNK     1      28.484  -8.109  32.063  1.00  0.00     0.048 A 
HETATM   18  C16 UNK     1      27.576  -7.069  31.866  1.00  0.00     0.089 A 
HETATM   19  C17 UNK     1      28.711  -9.045  31.051  1.00  0.00     0.018 A 
HETATM   20  O2  UNK     1      27.315  -6.122  32.825  1.00  0.00    -0.321 OA
HETATM   21  C18 UNK     1      26.889  -6.959  30.657  1.00  0.00     0.038 A 
HETATM   22  C14 UNK     1      27.988  -6.223  34.018  1.00  0.00     0.154 A 
HETATM   23  C21 UNK     1      27.112  -7.893  29.645  1.00  0.00     0.003 A 
HETATM   24  C20 UNK     1      28.022  -8.934  29.842  1.00  0.00     0.001 A 
ENDBRANCH   3  14
BRANCH   8  25
HETATM   25  C11 UNK     1      31.586  -5.821  34.927  1.00  0.00     0.292 C 
HETATM   26  O4  UNK     1      31.711  -4.874  34.174  1.00  0.00    -0.259 OA
BRANCH  25  27
HETATM   27  O3  UNK     1      32.400  -6.895  35.068  1.00  0.00    -0.317 OA
BRANCH  27  28
HETATM   28  C19 UNK     1      33.327  -6.814  36.156  1.00  0.00     0.189 C 
BRANCH  28  29
HETATM   29  C22 UNK     1      33.301  -8.106  36.959  1.00  0.00     0.100 C 
BRANCH  29  30
HETATM   30  S1  UNK     1      32.126  -8.003  38.344  1.00  0.00    -0.167 SA
BRANCH  30  31
HETATM   31  C23 UNK     1      31.290  -9.585  38.093  1.00  0.00     0.069 C 
HETATM   32  C24 UNK     1      31.489 -10.071  36.670  1.00  0.00     0.016 C 
ENDBRANCH  30  31
ENDBRANCH  29  30
ENDBRANCH  28  29
ENDBRANCH  27  28
ENDBRANCH  25  27
ENDBRANCH   8  25
TORSDOF 7
ENDMDL
MODEL 5
REMARK VINA RESULT:      -7.3      1.892      2.605
REMARK  7 active torsions:
REMARK  status: ('A' for Active; 'I' for Inactive)
REMARK    1  A    between atoms: C22_29  and  S1_1 
REMARK    2  A    between atoms: C23_30  and  S1_1 
REMARK    3  A    between atoms: C11_18  and  O3_4 
REMARK    4  A    between atoms: C19_26  and  O3_4 
REMARK    5  A    between atoms: C1_8  and  C10_17 
REMARK    6  A    between atoms: C11_18  and  C6_13 
REMARK    7  A    between atoms: C19_26  and  C22_29 
ROOT
HETATM    1  O1  UNK     1      27.611  -5.922  33.111  1.00  0.00    -0.293 OA
HETATM    2  N1  UNK     1      30.759  -8.917  31.225  1.00  0.00    -0.362 N 
HETATM    3  C1  UNK     1      30.114  -7.311  33.472  1.00  0.00     0.104 C 
HETATM    4  C2  UNK     1      29.189  -7.485  32.272  1.00  0.00     0.024 C 
HETATM    5  C3  UNK     1      29.532  -8.282  31.238  1.00  0.00     0.020 C 
HETATM    6  C4  UNK     1      28.637  -8.530  30.053  1.00  0.00     0.058 C 
HETATM    7  C5  UNK     1      27.177  -8.230  30.363  1.00  0.00     0.014 C 
HETATM    8  C6  UNK     1      31.487  -7.957  33.263  1.00  0.00     0.052 C 
HETATM    9  C7  UNK     1      27.029  -6.856  30.993  1.00  0.00     0.084 C 
HETATM   10  C8  UNK     1      27.910  -6.711  32.215  1.00  0.00     0.158 C 
HETATM   11  C9  UNK     1      31.745  -8.729  32.183  1.00  0.00     0.018 C 
HETATM   12  C13 UNK     1      33.048  -9.417  31.872  1.00  0.00     0.069 C 
HETATM   13  H8  UNK     1      30.983  -9.498  30.424  1.00  0.00     0.165 HD
ENDROOT
BRANCH   3  14
HETATM   14  C10 UNK     1      29.463  -7.862  34.713  1.00  0.00     0.029 A 
HETATM   15  C12 UNK     1      29.359  -6.986  35.907  1.00  0.00     0.194 A 
HETATM   16  O5  UNK     1      29.782  -5.838  35.911  1.00  0.00    -0.287 OA
HETATM   17  C15 UNK     1      28.714  -7.575  37.095  1.00  0.00     0.048 A 
HETATM   18  C16 UNK     1      28.250  -8.889  37.034  1.00  0.00     0.089 A 
HETATM   19  C17 UNK     1      28.568  -6.832  38.269  1.00  0.00     0.018 A 
HETATM   20  O2  UNK     1      28.366  -9.665  35.907  1.00  0.00    -0.321 OA
HETATM   21  C18 UNK     1      27.637  -9.467  38.146  1.00  0.00     0.038 A 
HETATM   22  C14 UNK     1      28.969  -9.103  34.808  1.00  0.00     0.154 A 
HETATM   23  C21 UNK     1      27.489  -8.727  39.319  1.00  0.00     0.003 A 
HETATM   24  C20 UNK     1      27.954  -7.412  39.380  1.00  0.00     0.001 A 
ENDBRANCH   3  14
BRANCH   8  25
HETATM   25  C11 UNK     1      32.497  -7.676  34.297  1.00  0.00     0.292 C 
HETATM   26  O4  UNK     1      32.990  -8.537  35.002  1.00  0.00    -0.259 OA
BRANCH  25  27
HETATM   27  O3  UNK     1      32.749  -6.344  34.297  1.00  0.00    -0.317 OA
BRANCH  27  28
HETATM   28  C19 UNK     1      34.056  -5.975  34.748  1.00  0.00     0.189 C 
BRANCH  28  29
HETATM   29  C22 UNK     1      33.956  -5.175  36.038  1.00  0.00     0.100 C 
BRANCH  29  30
HETATM   30  S1  UNK     1      34.230  -6.229  37.495  1.00  0.00    -0.167 SA
BRANCH  30  31
HETATM   31  C23 UNK     1      32.505  -6.424  38.001  1.00  0.00     0.069 C 
HETATM   32  C24 UNK     1      32.216  -7.868  38.358  1.00  0.00     0.016 C 
ENDBRANCH  30  31
ENDBRANCH  29  30
ENDBRANCH  28  29
ENDBRANCH  27  28
ENDBRANCH  25  27
ENDBRANCH   8  25
TORSDOF 7
ENDMDL
MODEL 6
REMARK VINA RESULT:      -7.3      2.144      5.809
REMARK  7 active torsions:
REMARK  status: ('A' for Active; 'I' for Inactive)
REMARK    1  A    between atoms: C22_29  and  S1_1 
REMARK    2  A    between atoms: C23_30  and  S1_1 
REMARK    3  A    between atoms: C11_18  and  O3_4 
REMARK    4  A    between atoms: C19_26  and  O3_4 
REMARK    5  A    between atoms: C1_8  and  C10_17 
REMARK    6  A    between atoms: C11_18  and  C6_13 
REMARK    7  A    between atoms: C19_26  and  C22_29 
ROOT
HETATM    1  O1  UNK     1      31.541  -5.079  33.869  1.00  0.00    -0.293 OA
HETATM    2  N1  UNK     1      32.304  -8.482  37.074  1.00  0.00    -0.362 N 
HETATM    3  C1  UNK     1      30.382  -7.227  35.408  1.00  0.00     0.104 C 
HETATM    4  C2  UNK     1      31.863  -6.863  35.402  1.00  0.00     0.024 C 
HETATM    5  C3  UNK     1      32.743  -7.508  36.198  1.00  0.00     0.020 C 
HETATM    6  C4  UNK     1      34.221  -7.225  36.197  1.00  0.00     0.058 C 
HETATM    7  C5  UNK     1      34.676  -6.547  34.911  1.00  0.00     0.014 C 
HETATM    8  C6  UNK     1      30.019  -8.218  36.516  1.00  0.00     0.052 C 
HETATM    9  C7  UNK     1      33.799  -5.348  34.593  1.00  0.00     0.084 C 
HETATM   10  C8  UNK     1      32.336  -5.730  34.547  1.00  0.00     0.158 C 
HETATM   11  C9  UNK     1      30.970  -8.806  37.278  1.00  0.00     0.018 C 
HETATM   12  C13 UNK     1      30.737  -9.794  38.390  1.00  0.00     0.069 C 
HETATM   13  H8  UNK     1      32.995  -8.935  37.663  1.00  0.00     0.165 HD
ENDROOT
BRANCH   3  14
HETATM   14  C10 UNK     1      29.979  -7.777  34.065  1.00  0.00     0.029 A 
HETATM   15  C12 UNK     1      28.813  -7.175  33.374  1.00  0.00     0.194 A 
HETATM   16  O5  UNK     1      28.174  -6.250  33.859  1.00  0.00    -0.287 OA
HETATM   17  C15 UNK     1      28.460  -7.751  32.063  1.00  0.00     0.048 A 
HETATM   18  C16 UNK     1      29.222  -8.805  31.558  1.00  0.00     0.089 A 
HETATM   19  C17 UNK     1      27.377  -7.254  31.334  1.00  0.00     0.018 A 
HETATM   20  O2  UNK     1      30.296  -9.332  32.231  1.00  0.00    -0.321 OA
HETATM   21  C18 UNK     1      28.907  -9.366  30.320  1.00  0.00     0.038 A 
HETATM   22  C14 UNK     1      30.612  -8.786  33.450  1.00  0.00     0.154 A 
HETATM   23  C21 UNK     1      27.827  -8.870  29.589  1.00  0.00     0.003 A 
HETATM   24  C20 UNK     1      27.064  -7.817  30.095  1.00  0.00     0.001 A 
ENDBRANCH   3  14
BRANCH   8  25
HETATM   25  C11 UNK     1      28.581  -8.479  36.705  1.00  0.00     0.292 C 
HETATM   26  O4  UNK     1      28.052  -9.538  36.427  1.00  0.00    -0.259 OA
BRANCH  25  27
HETATM   27  O3  UNK     1      28.009  -7.363  37.219  1.00  0.00    -0.317 OA
BRANCH  27  28
HETATM   28  C19 UNK     1      27.584  -7.474  38.582  1.00  0.00     0.189 C 
BRANCH  28  29
HETATM   29  C22 UNK     1      28.366  -6.501  39.452  1.00  0.00     0.100 C 
BRANCH  29  30
HETATM   30  S1  UNK     1      28.651  -4.923  38.591  1.00  0.00    -0.167 SA
BRANCH  30  31
HETATM   31  C23 UNK     1      30.453  -5.006  38.490  1.00  0.00     0.069 C 
HETATM   32  C24 UNK     1      30.973  -4.034  37.449  1.00  0.00     0.016 C 
ENDBRANCH  30  31
ENDBRANCH  29  30
ENDBRANCH  28  29
ENDBRANCH  27  28
ENDBRANCH  25  27
ENDBRANCH   8  25
TORSDOF 7
ENDMDL
MODEL 7
REMARK VINA RESULT:      -7.2      1.707      2.029
REMARK  7 active torsions:
REMARK  status: ('A' for Active; 'I' for Inactive)
REMARK    1  A    between atoms: C22_29  and  S1_1 
REMARK    2  A    between atoms: C23_30  and  S1_1 
REMARK    3  A    between atoms: C11_18  and  O3_4 
REMARK    4  A    between atoms: C19_26  and  O3_4 
REMARK    5  A    between atoms: C1_8  and  C10_17 
REMARK    6  A    between atoms: C11_18  and  C6_13 
REMARK    7  A    between atoms: C19_26  and  C22_29 
ROOT
HETATM    1  O1  UNK     1      29.339  -5.276  32.108  1.00  0.00    -0.293 OA
HETATM    2  N1  UNK     1      29.046  -9.989  31.752  1.00  0.00    -0.362 N 
HETATM    3  C1  UNK     1      30.238  -7.818  33.133  1.00  0.00     0.104 C 
HETATM    4  C2  UNK     1      29.177  -7.643  32.051  1.00  0.00     0.024 C 
HETATM    5  C3  UNK     1      28.622  -8.712  31.441  1.00  0.00     0.020 C 
HETATM    6  C4  UNK     1      27.536  -8.600  30.403  1.00  0.00     0.058 C 
HETATM    7  C5  UNK     1      26.799  -7.270  30.485  1.00  0.00     0.014 C 
HETATM    8  C6  UNK     1      30.706  -9.269  33.277  1.00  0.00     0.052 C 
HETATM    9  C7  UNK     1      27.777  -6.109  30.507  1.00  0.00     0.084 C 
HETATM   10  C8  UNK     1      28.793  -6.264  31.618  1.00  0.00     0.158 C 
HETATM   11  C9  UNK     1      30.097 -10.276  32.610  1.00  0.00     0.018 C 
HETATM   12  C13 UNK     1      30.464 -11.735  32.673  1.00  0.00     0.069 C 
HETATM   13  H8  UNK     1      28.611 -10.764  31.262  1.00  0.00     0.165 HD
ENDROOT
BRANCH   3  14
HETATM   14  C10 UNK     1      29.722  -7.304  34.451  1.00  0.00     0.029 A 
HETATM   15  C12 UNK     1      30.488  -6.239  35.145  1.00  0.00     0.194 A 
HETATM   16  O5  UNK     1      31.517  -5.768  34.679  1.00  0.00    -0.287 OA
HETATM   17  C15 UNK     1      29.940  -5.773  36.433  1.00  0.00     0.048 A 
HETATM   18  C16 UNK     1      28.763  -6.345  36.916  1.00  0.00     0.089 A 
HETATM   19  C17 UNK     1      30.588  -4.774  37.163  1.00  0.00     0.018 A 
HETATM   20  O2  UNK     1      28.085  -7.329  36.241  1.00  0.00    -0.321 OA
HETATM   21  C18 UNK     1      28.227  -5.919  38.132  1.00  0.00     0.038 A 
HETATM   22  C14 UNK     1      28.607  -7.753  35.044  1.00  0.00     0.154 A 
HETATM   23  C21 UNK     1      28.872  -4.921  38.863  1.00  0.00     0.003 A 
HETATM   24  C20 UNK     1      30.050  -4.350  38.379  1.00  0.00     0.001 A 
ENDBRANCH   3  14
BRANCH   8  25
HETATM   25  C11 UNK     1      31.856  -9.491  34.170  1.00  0.00     0.292 C 
HETATM   26  O4  UNK     1      31.791 -10.143  35.195  1.00  0.00    -0.259 OA
BRANCH  25  27
HETATM   27  O3  UNK     1      32.933  -8.858  33.644  1.00  0.00    -0.317 OA
BRANCH  27  28
HETATM   28  C19 UNK     1      34.144  -9.622  33.644  1.00  0.00     0.189 C 
BRANCH  28  29
HETATM   29  C22 UNK     1      35.237  -8.865  32.904  1.00  0.00     0.100 C 
BRANCH  29  30
HETATM   30  S1  UNK     1      34.947  -7.070  32.947  1.00  0.00    -0.167 SA
BRANCH  30  31
HETATM   31  C23 UNK     1      35.742  -6.717  34.531  1.00  0.00     0.069 C 
HETATM   32  C24 UNK     1      37.147  -7.285  34.559  1.00  0.00     0.016 C 
ENDBRANCH  30  31
ENDBRANCH  29  30
ENDBRANCH  28  29
ENDBRANCH  27  28
ENDBRANCH  25  27
ENDBRANCH   8  25
TORSDOF 7
ENDMDL
MODEL 8
REMARK VINA RESULT:      -7.2      2.752      6.229
REMARK  7 active torsions:
REMARK  status: ('A' for Active; 'I' for Inactive)
REMARK    1  A    between atoms: C22_29  and  S1_1 
REMARK    2  A    between atoms: C23_30  and  S1_1 
REMARK    3  A    between atoms: C11_18  and  O3_4 
REMARK    4  A    between atoms: C19_26  and  O3_4 
REMARK    5  A    between atoms: C1_8  and  C10_17 
REMARK    6  A    between atoms: C11_18  and  C6_13 
REMARK    7  A    between atoms: C19_26  and  C22_29 
ROOT
HETATM    1  O1  UNK     1      27.384 -10.087  36.372  1.00  0.00    -0.293 OA
HETATM    2  N1  UNK     1      30.083  -6.809  38.470  1.00  0.00    -0.362 N 
HETATM    3  C1  UNK     1      29.749  -8.445  36.178  1.00  0.00     0.104 C 
HETATM    4  C2  UNK     1      28.738  -8.381  37.318  1.00  0.00     0.024 C 
HETATM    5  C3  UNK     1      28.932  -7.566  38.376  1.00  0.00     0.020 C 
HETATM    6  C4  UNK     1      27.944  -7.426  39.504  1.00  0.00     0.058 C 
HETATM    7  C5  UNK     1      26.544  -7.870  39.100  1.00  0.00     0.014 C 
HETATM    8  C6  UNK     1      31.031  -7.664  36.477  1.00  0.00     0.052 C 
HETATM    9  C7  UNK     1      26.578  -9.244  38.454  1.00  0.00     0.084 C 
HETATM   10  C8  UNK     1      27.544  -9.283  37.290  1.00  0.00     0.158 C 
HETATM   11  C9  UNK     1      31.141  -6.882  37.575  1.00  0.00     0.018 C 
HETATM   12  C13 UNK     1      32.344  -6.069  37.972  1.00  0.00     0.069 C 
HETATM   13  H8  UNK     1      30.196  -6.218  39.286  1.00  0.00     0.165 HD
ENDROOT
BRANCH   3  14
HETATM   14  C10 UNK     1      29.123  -7.949  34.901  1.00  0.00     0.029 A 
HETATM   15  C12 UNK     1      29.114  -8.847  33.720  1.00  0.00     0.194 A 
HETATM   16  O5  UNK     1      29.596  -9.972  33.753  1.00  0.00    -0.287 OA
HETATM   17  C15 UNK     1      28.490  -8.312  32.496  1.00  0.00     0.048 A 
HETATM   18  C16 UNK     1      27.956  -7.023  32.515  1.00  0.00     0.089 A 
HETATM   19  C17 UNK     1      28.433  -9.079  31.331  1.00  0.00     0.018 A 
HETATM   20  O2  UNK     1      27.984  -6.224  33.631  1.00  0.00    -0.321 OA
HETATM   21  C18 UNK     1      27.361  -6.496  31.368  1.00  0.00     0.038 A 
HETATM   22  C14 UNK     1      28.569  -6.737  34.764  1.00  0.00     0.154 A 
HETATM   23  C21 UNK     1      27.301  -7.261  30.203  1.00  0.00     0.003 A 
HETATM   24  C20 UNK     1      27.837  -8.550  30.185  1.00  0.00     0.001 A 
ENDBRANCH   3  14
BRANCH   8  25
HETATM   25  C11 UNK     1      32.128  -7.827  35.507  1.00  0.00     0.292 C 
HETATM   26  O4  UNK     1      32.805  -8.835  35.426  1.00  0.00    -0.259 OA
BRANCH  25  27
HETATM   27  O3  UNK     1      32.219  -6.693  34.771  1.00  0.00    -0.317 OA
BRANCH  27  28
HETATM   28  C19 UNK     1      32.909  -6.833  33.525  1.00  0.00     0.189 C 
BRANCH  28  29
HETATM   29  C22 UNK     1      31.908  -6.950  32.385  1.00  0.00     0.100 C 
BRANCH  29  30
HETATM   30  S1  UNK     1      32.277  -8.380  31.322  1.00  0.00    -0.167 SA
BRANCH  30  31
HETATM   31  C23 UNK     1      31.562  -7.751  29.786  1.00  0.00     0.069 C 
HETATM   32  C24 UNK     1      30.936  -6.389  30.009  1.00  0.00     0.016 C 
ENDBRANCH  30  31
ENDBRANCH  29  30
ENDBRANCH  28  29
ENDBRANCH  27  28
ENDBRANCH  25  27
ENDBRANCH   8  25
TORSDOF 7
ENDMDL
MODEL 9
REMARK VINA RESULT:      -7.2      2.779      6.476
REMARK  7 active torsions:
REMARK  status: ('A' for Active; 'I' for Inactive)
REMARK    1  A    between atoms: C22_29  and  S1_1 
REMARK    2  A    between atoms: C23_30  and  S1_1 
REMARK    3  A    between atoms: C11_18  and  O3_4 
REMARK    4  A    between atoms: C19_26  and  O3_4 
REMARK    5  A    between atoms: C1_8  and  C10_17 
REMARK    6  A    between atoms: C11_18  and  C6_13 
REMARK    7  A    between atoms: C19_26  and  C22_29 
ROOT
HETATM    1  O1  UNK     1      28.736  -7.862  36.770  1.00  0.00    -0.293 OA
HETATM    2  N1  UNK     1      32.570  -5.085  36.923  1.00  0.00    -0.362 N 
HETATM    3  C1  UNK     1      31.257  -7.185  35.540  1.00  0.00     0.104 C 
HETATM    4  C2  UNK     1      30.643  -6.449  36.727  1.00  0.00     0.024 C 
HETATM    5  C3  UNK     1      31.300  -5.438  37.335  1.00  0.00     0.020 C 
HETATM    6  C4  UNK     1      30.721  -4.644  38.477  1.00  0.00     0.058 C 
HETATM    7  C5  UNK     1      29.203  -4.740  38.531  1.00  0.00     0.014 C 
HETATM    8  C6  UNK     1      32.712  -6.786  35.282  1.00  0.00     0.052 C 
HETATM    9  C7  UNK     1      28.749  -6.188  38.471  1.00  0.00     0.084 C 
HETATM   10  C8  UNK     1      29.320  -6.896  37.262  1.00  0.00     0.158 C 
HETATM   11  C9  UNK     1      33.295  -5.766  35.955  1.00  0.00     0.018 C 
HETATM   12  C13 UNK     1      34.710  -5.281  35.786  1.00  0.00     0.069 C 
HETATM   13  H8  UNK     1      33.034  -4.328  37.414  1.00  0.00     0.165 HD
ENDROOT
BRANCH   3  14
HETATM   14  C10 UNK     1      30.428  -6.958  34.305  1.00  0.00     0.029 A 
HETATM   15  C12 UNK     1      29.850  -8.137  33.612  1.00  0.00     0.194 A 
HETATM   16  O5  UNK     1      30.026  -9.279  34.015  1.00  0.00    -0.287 OA
HETATM   17  C15 UNK     1      29.047  -7.859  32.407  1.00  0.00     0.048 A 
HETATM   18  C16 UNK     1      28.880  -6.537  31.993  1.00  0.00     0.089 A 
HETATM   19  C17 UNK     1      28.462  -8.902  31.684  1.00  0.00     0.018 A 
HETATM   20  O2  UNK     1      29.432  -5.475  32.664  1.00  0.00    -0.321 OA
HETATM   21  C18 UNK     1      28.125  -6.251  30.855  1.00  0.00     0.038 A 
HETATM   22  C14 UNK     1      30.177  -5.749  33.785  1.00  0.00     0.154 A 
HETATM   23  C21 UNK     1      27.538  -7.290  30.133  1.00  0.00     0.003 A 
HETATM   24  C20 UNK     1      27.707  -8.613  30.547  1.00  0.00     0.001 A 
ENDBRANCH   3  14
BRANCH   8  25
HETATM   25  C11 UNK     1      33.432  -7.582  34.273  1.00  0.00     0.292 C 
HETATM   26  O4  UNK     1      33.783  -8.732  34.456  1.00  0.00    -0.259 OA
BRANCH  25  27
HETATM   27  O3  UNK     1      33.607  -6.815  33.170  1.00  0.00    -0.317 OA
BRANCH  27  28
HETATM   28  C19 UNK     1      33.868  -7.540  31.963  1.00  0.00     0.189 C 
BRANCH  28  29
HETATM   29  C22 UNK     1      32.588  -7.680  31.153  1.00  0.00     0.100 C 
BRANCH  29  30
HETATM   30  S1  UNK     1      32.847  -7.208  29.415  1.00  0.00    -0.167 SA
BRANCH  30  31
HETATM   31  C23 UNK     1      31.120  -7.225  28.882  1.00  0.00     0.069 C 
HETATM   32  C24 UNK     1      30.729  -8.604  28.389  1.00  0.00     0.016 C 
ENDBRANCH  30  31
ENDBRANCH  29  30
ENDBRANCH  28  29
ENDBRANCH  27  28
ENDBRANCH  25  27
ENDBRANCH   8  25
TORSDOF 7
ENDMDL
MODEL 10
REMARK VINA RESULT:      -7.0      2.679      6.269
REMARK  7 active torsions:
REMARK  status: ('A' for Active; 'I' for Inactive)
REMARK    1  A    between atoms: C22_29  and  S1_1 
REMARK    2  A    between atoms: C23_30  and  S1_1 
REMARK    3  A    between atoms: C11_18  and  O3_4 
REMARK    4  A    between atoms: C19_26  and  O3_4 
REMARK    5  A    between atoms: C1_8  and  C10_17 
REMARK    6  A    between atoms: C11_18  and  C6_13 
REMARK    7  A    between atoms: C19_26  and  C22_29 
ROOT
HETATM    1  O1  UNK     1      29.298  -9.548  36.539  1.00  0.00    -0.293 OA
HETATM    2  N1  UNK     1      30.067  -5.049  37.805  1.00  0.00    -0.362 N 
HETATM    3  C1  UNK     1      30.510  -7.030  35.823  1.00  0.00     0.104 C 
HETATM    4  C2  UNK     1      29.649  -7.259  37.061  1.00  0.00     0.024 C 
HETATM    5  C3  UNK     1      29.449  -6.274  37.963  1.00  0.00     0.020 C 
HETATM    6  C4  UNK     1      28.569  -6.429  39.175  1.00  0.00     0.058 C 
HETATM    7  C5  UNK     1      27.567  -7.565  39.016  1.00  0.00     0.014 C 
HETATM    8  C6  UNK     1      31.238  -5.683  35.847  1.00  0.00     0.052 C 
HETATM    9  C7  UNK     1      28.260  -8.839  38.568  1.00  0.00     0.084 C 
HETATM   10  C8  UNK     1      29.068  -8.615  37.309  1.00  0.00     0.158 C 
HETATM   11  C9  UNK     1      30.984  -4.760  36.804  1.00  0.00     0.018 C 
HETATM   12  C13 UNK     1      31.630  -3.407  36.929  1.00  0.00     0.069 C 
HETATM   13  H8  UNK     1      29.900  -4.341  38.511  1.00  0.00     0.165 HD
ENDROOT
BRANCH   3  14
HETATM   14  C10 UNK     1      29.669  -7.145  34.579  1.00  0.00     0.029 A 
HETATM   15  C12 UNK     1      30.038  -8.165  33.566  1.00  0.00     0.194 A 
HETATM   16  O5  UNK     1      30.997  -8.911  33.713  1.00  0.00    -0.287 OA
HETATM   17  C15 UNK     1      29.184  -8.235  32.366  1.00  0.00     0.048 A 
HETATM   18  C16 UNK     1      28.103  -7.360  32.252  1.00  0.00     0.089 A 
HETATM   19  C17 UNK     1      29.449  -9.162  31.356  1.00  0.00     0.018 A 
HETATM   20  O2  UNK     1      27.796  -6.430  33.214  1.00  0.00    -0.321 OA
HETATM   21  C18 UNK     1      27.281  -7.408  31.125  1.00  0.00     0.038 A 
HETATM   22  C14 UNK     1      28.601  -6.377  34.325  1.00  0.00     0.154 A 
HETATM   23  C21 UNK     1      27.543  -8.333  30.115  1.00  0.00     0.003 A 
HETATM   24  C20 UNK     1      28.624  -9.208  30.230  1.00  0.00     0.001 A 
ENDBRANCH   3  14
BRANCH   8  25
HETATM   25  C11 UNK     1      32.229  -5.465  34.780  1.00  0.00     0.292 C 
HETATM   26  O4  UNK     1      31.991  -4.840  33.763  1.00  0.00    -0.259 OA
BRANCH  25  27
HETATM   27  O3  UNK     1      33.388  -6.067  35.144  1.00  0.00    -0.317 OA
BRANCH  27  28
HETATM   28  C19 UNK     1      34.577  -5.424  34.675  1.00  0.00     0.189 C 
BRANCH  28  29
HETATM   29  C22 UNK     1      35.604  -6.468  34.261  1.00  0.00     0.100 C 
BRANCH  29  30
HETATM   30  S1  UNK     1      35.706  -6.616  32.450  1.00  0.00    -0.167 SA
BRANCH  30  31
HETATM   31  C23 UNK     1      34.519  -7.962  32.234  1.00  0.00     0.069 C 
HETATM   32  C24 UNK     1      33.272  -7.463  31.530  1.00  0.00     0.016 C 
ENDBRANCH  30  31
ENDBRANCH  29  30
ENDBRANCH  28  29
ENDBRANCH  27  28
ENDBRANCH  25  27
ENDBRANCH   8  25
TORSDOF 7
ENDMDL
