MODEL 1
REMARK VINA RESULT:     -10.6      0.000      0.000
REMARK  3 active torsions:
REMARK  status: ('A' for Active; 'I' for Inactive)
REMARK    1  A    between atoms: C17_24  and  O3_4 
REMARK       I    between atoms: C11_18  and  N1_6 
REMARK    2  A    between atoms: C9_16  and  N1_6 
REMARK    3  A    between atoms: C11_18  and  C12_19 
ROOT
HETATM    1  S1  UNK     1      19.869  -5.436  37.186  1.00  0.00    -0.075 SA
HETATM    2  N2  UNK     1      20.996  -7.563  32.702  1.00  0.00    -0.191 NA
HETATM    3  C1  UNK     1      20.256  -9.228  38.746  1.00  0.00    -0.014 C 
HETATM    4  C2  UNK     1      21.239  -9.727  37.662  1.00  0.00     0.009 C 
HETATM    5  C3  UNK     1      20.244  -7.684  38.816  1.00  0.00     0.051 C 
HETATM    6  C4  UNK     1      20.912  -9.197  36.256  1.00  0.00     0.042 C 
HETATM    7  C5  UNK     1      20.567  -7.741  36.278  1.00  0.00    -0.021 A 
HETATM    8  C6  UNK     1      20.244  -7.077  37.446  1.00  0.00    -0.007 A 
HETATM    9  C7  UNK     1      18.846  -9.790  38.535  1.00  0.00     0.010 C 
HETATM   10  C8  UNK     1      20.495  -6.871  35.149  1.00  0.00     0.085 A 
HETATM   11  C9  UNK     1      20.128  -5.590  35.501  1.00  0.00     0.098 A 
HETATM   12  C10 UNK     1      20.772  -7.253  33.798  1.00  0.00     0.103 C 
ENDROOT
BRANCH  11  13
HETATM   13  N1  UNK     1      19.944  -4.460  34.750  1.00  0.00    -0.316 N 
HETATM   14  C11 UNK     1      20.388  -3.168  35.061  1.00  0.00     0.262 C 
HETATM   15  O2  UNK     1      21.015  -2.793  36.043  1.00  0.00    -0.267 OA
HETATM   16  H11 UNK     1      19.414  -4.601  33.895  1.00  0.00     0.170 HD
BRANCH  14  17
HETATM   17  C12 UNK     1      20.015  -2.180  34.026  1.00  0.00     0.108 A 
HETATM   18  C14 UNK     1      20.546  -2.367  32.811  1.00  0.00     0.037 A 
HETATM   19  C13 UNK     1      20.238  -1.449  31.726  1.00  0.00     0.002 A 
HETATM   20  C15 UNK     1      19.386  -0.377  31.974  1.00  0.00     0.123 A 
HETATM   21  C18 UNK     1      20.769  -1.606  30.444  1.00  0.00     0.014 A 
HETATM   22  C17 UNK     1      19.051   0.539  30.978  1.00  0.00     0.102 A 
HETATM   23  O1  UNK     1      18.831  -0.185  33.254  1.00  0.00    -0.271 OA
HETATM   24  C19 UNK     1      19.585   0.374  29.701  1.00  0.00     0.040 A 
HETATM   25  C20 UNK     1      20.441  -0.696  29.435  1.00  0.00     0.004 A 
HETATM   26  C16 UNK     1      19.107  -1.047  34.312  1.00  0.00     0.304 A 
HETATM   27  O4  UNK     1      18.618  -0.873  35.422  1.00  0.00    -0.259 OA
BRANCH  22  28
HETATM   28  O3  UNK     1      18.216   1.582  31.234  1.00  0.00    -0.353 OA
HETATM   29  C21 UNK     1      18.476   2.806  30.548  1.00  0.00     0.210 C 
ENDBRANCH  22  28
ENDBRANCH  14  17
ENDBRANCH  11  13
TORSDOF 3
ENDMDL
MODEL 2
REMARK VINA RESULT:     -10.5      2.562      4.150
REMARK  3 active torsions:
REMARK  status: ('A' for Active; 'I' for Inactive)
REMARK    1  A    between atoms: C17_24  and  O3_4 
REMARK       I    between atoms: C11_18  and  N1_6 
REMARK    2  A    between atoms: C9_16  and  N1_6 
REMARK    3  A    between atoms: C11_18  and  C12_19 
ROOT
HETATM    1  S1  UNK     1      20.680  -7.394  34.549  1.00  0.00    -0.075 SA
HETATM    2  N2  UNK     1      19.826  -6.479  39.482  1.00  0.00    -0.191 NA
HETATM    3  C1  UNK     1      22.073 -11.070  35.777  1.00  0.00    -0.014 C 
HETATM    4  C2  UNK     1      21.217 -11.122  37.064  1.00  0.00     0.009 C 
HETATM    5  C3  UNK     1      21.480 -10.070  34.757  1.00  0.00     0.051 C 
HETATM    6  C4  UNK     1      21.089  -9.759  37.764  1.00  0.00     0.042 C 
HETATM    7  C5  UNK     1      20.826  -8.656  36.788  1.00  0.00    -0.021 A 
HETATM    8  C6  UNK     1      21.032  -8.809  35.429  1.00  0.00    -0.007 A 
HETATM    9  C7  UNK     1      23.540 -10.754  36.084  1.00  0.00     0.010 C 
HETATM   10  C8  UNK     1      20.375  -7.339  37.100  1.00  0.00     0.085 A 
HETATM   11  C9  UNK     1      20.251  -6.551  35.977  1.00  0.00     0.098 A 
HETATM   12  C10 UNK     1      20.072  -6.864  38.416  1.00  0.00     0.103 C 
ENDROOT
BRANCH  11  13
HETATM   13  N1  UNK     1      19.855  -5.249  35.820  1.00  0.00    -0.316 N 
HETATM   14  C11 UNK     1      20.450  -4.119  36.397  1.00  0.00     0.262 C 
HETATM   15  O2  UNK     1      21.422  -4.064  37.140  1.00  0.00    -0.267 OA
HETATM   16  H11 UNK     1      19.034  -5.123  35.236  1.00  0.00     0.170 HD
BRANCH  14  17
HETATM   17  C12 UNK     1      19.765  -2.865  36.015  1.00  0.00     0.108 A 
HETATM   18  C14 UNK     1      19.052  -2.265  36.977  1.00  0.00     0.037 A 
HETATM   19  C13 UNK     1      18.343  -1.026  36.701  1.00  0.00     0.002 A 
HETATM   20  C15 UNK     1      18.418  -0.479  35.423  1.00  0.00     0.123 A 
HETATM   21  C18 UNK     1      17.588  -0.367  37.673  1.00  0.00     0.014 A 
HETATM   22  C17 UNK     1      17.761   0.705  35.092  1.00  0.00     0.102 A 
HETATM   23  O1  UNK     1      19.169  -1.115  34.415  1.00  0.00    -0.271 OA
HETATM   24  C19 UNK     1      17.011   1.357  36.069  1.00  0.00     0.040 A 
HETATM   25  C20 UNK     1      16.924   0.823  37.356  1.00  0.00     0.004 A 
HETATM   26  C16 UNK     1      19.858  -2.302  34.650  1.00  0.00     0.304 A 
HETATM   27  O4  UNK     1      20.511  -2.847  33.767  1.00  0.00    -0.259 OA
BRANCH  22  28
HETATM   28  O3  UNK     1      17.845   1.229  33.840  1.00  0.00    -0.353 OA
HETATM   29  C21 UNK     1      18.212   2.604  33.734  1.00  0.00     0.210 C 
ENDBRANCH  22  28
ENDBRANCH  14  17
ENDBRANCH  11  13
TORSDOF 3
ENDMDL
MODEL 3
REMARK VINA RESULT:     -10.5      2.239      3.352
REMARK  3 active torsions:
REMARK  status: ('A' for Active; 'I' for Inactive)
REMARK    1  A    between atoms: C17_24  and  O3_4 
REMARK       I    between atoms: C11_18  and  N1_6 
REMARK    2  A    between atoms: C9_16  and  N1_6 
REMARK    3  A    between atoms: C11_18  and  C12_19 
ROOT
HETATM    1  S1  UNK     1      19.964  -6.879  37.793  1.00  0.00    -0.075 SA
HETATM    2  N2  UNK     1      20.848  -6.998  32.782  1.00  0.00    -0.191 NA
HETATM    3  C1  UNK     1      20.885 -10.893  37.750  1.00  0.00    -0.014 C 
HETATM    4  C2  UNK     1      21.800 -10.814  36.507  1.00  0.00     0.009 C 
HETATM    5  C3  UNK     1      20.724  -9.503  38.409  1.00  0.00     0.051 C 
HETATM    6  C4  UNK     1      21.283  -9.843  35.433  1.00  0.00     0.042 C 
HETATM    7  C5  UNK     1      20.798  -8.561  36.031  1.00  0.00    -0.021 A 
HETATM    8  C6  UNK     1      20.527  -8.432  37.381  1.00  0.00    -0.007 A 
HETATM    9  C7  UNK     1      19.525 -11.514  37.415  1.00  0.00     0.010 C 
HETATM   10  C8  UNK     1      20.526  -7.348  35.330  1.00  0.00     0.085 A 
HETATM   11  C9  UNK     1      20.069  -6.353  36.166  1.00  0.00     0.098 A 
HETATM   12  C10 UNK     1      20.705  -7.155  33.923  1.00  0.00     0.103 C 
ENDROOT
BRANCH  11  13
HETATM   13  N1  UNK     1      19.699  -5.058  35.919  1.00  0.00    -0.316 N 
HETATM   14  C11 UNK     1      20.332  -3.902  36.394  1.00  0.00     0.262 C 
HETATM   15  O2  UNK     1      21.322  -3.814  37.109  1.00  0.00    -0.267 OA
HETATM   16  H11 UNK     1      18.867  -4.957  35.345  1.00  0.00     0.170 HD
BRANCH  14  17
HETATM   17  C12 UNK     1      19.666  -2.665  35.933  1.00  0.00     0.108 A 
HETATM   18  C14 UNK     1      18.898  -2.037  36.832  1.00  0.00     0.037 A 
HETATM   19  C13 UNK     1      18.202  -0.811  36.474  1.00  0.00     0.002 A 
HETATM   20  C15 UNK     1      18.347  -0.307  35.185  1.00  0.00     0.123 A 
HETATM   21  C18 UNK     1      17.392  -0.123  37.380  1.00  0.00     0.014 A 
HETATM   22  C17 UNK     1      17.708   0.863  34.779  1.00  0.00     0.102 A 
HETATM   23  O1  UNK     1      19.156  -0.972  34.244  1.00  0.00    -0.271 OA
HETATM   24  C19 UNK     1      16.901   1.543  35.690  1.00  0.00     0.040 A 
HETATM   25  C20 UNK     1      16.744   1.052  36.987  1.00  0.00     0.004 A 
HETATM   26  C16 UNK     1      19.834  -2.147  34.557  1.00  0.00     0.304 A 
HETATM   27  O4  UNK     1      20.537  -2.719  33.731  1.00  0.00    -0.259 OA
BRANCH  22  28
HETATM   28  O3  UNK     1      17.860   1.345  33.516  1.00  0.00    -0.353 OA
HETATM   29  C21 UNK     1      18.280   2.703  33.385  1.00  0.00     0.210 C 
ENDBRANCH  22  28
ENDBRANCH  14  17
ENDBRANCH  11  13
TORSDOF 3
ENDMDL
MODEL 4
REMARK VINA RESULT:     -10.0     15.681     19.523
REMARK  3 active torsions:
REMARK  status: ('A' for Active; 'I' for Inactive)
REMARK    1  A    between atoms: C17_24  and  O3_4 
REMARK       I    between atoms: C11_18  and  N1_6 
REMARK    2  A    between atoms: C9_16  and  N1_6 
REMARK    3  A    between atoms: C11_18  and  C12_19 
ROOT
HETATM    1  S1  UNK     1      20.551  -4.794  15.199  1.00  0.00    -0.075 SA
HETATM    2  N2  UNK     1      18.926  -1.482  11.692  1.00  0.00    -0.191 NA
HETATM    3  C1  UNK     1      20.354  -7.611  12.200  1.00  0.00    -0.014 C 
HETATM    4  C2  UNK     1      20.568  -6.604  11.047  1.00  0.00     0.009 C 
HETATM    5  C3  UNK     1      20.859  -7.032  13.543  1.00  0.00     0.051 C 
HETATM    6  C4  UNK     1      19.858  -5.259  11.275  1.00  0.00     0.042 C 
HETATM    7  C5  UNK     1      20.032  -4.770  12.678  1.00  0.00    -0.021 A 
HETATM    8  C6  UNK     1      20.465  -5.595  13.699  1.00  0.00    -0.007 A 
HETATM    9  C7  UNK     1      18.892  -8.058  12.298  1.00  0.00     0.010 C 
HETATM   10  C8  UNK     1      19.762  -3.452  13.154  1.00  0.00     0.085 A 
HETATM   11  C9  UNK     1      20.004  -3.327  14.505  1.00  0.00     0.098 A 
HETATM   12  C10 UNK     1      19.301  -2.364  12.347  1.00  0.00     0.103 C 
ENDROOT
BRANCH  11  13
HETATM   13  N1  UNK     1      19.882  -2.259  15.354  1.00  0.00    -0.316 N 
HETATM   14  C11 UNK     1      18.722  -1.853  16.026  1.00  0.00     0.262 C 
HETATM   15  O2  UNK     1      17.606  -2.357  15.993  1.00  0.00    -0.267 OA
HETATM   16  H11 UNK     1      20.731  -1.715  15.476  1.00  0.00     0.170 HD
BRANCH  14  17
HETATM   17  C12 UNK     1      18.946  -0.656  16.864  1.00  0.00     0.108 A 
HETATM   18  C14 UNK     1      18.957  -0.856  18.188  1.00  0.00     0.037 A 
HETATM   19  C13 UNK     1      19.172   0.260  19.097  1.00  0.00     0.002 A 
HETATM   20  C15 UNK     1      19.363   1.532  18.566  1.00  0.00     0.123 A 
HETATM   21  C18 UNK     1      19.191   0.098  20.484  1.00  0.00     0.014 A 
HETATM   22  C17 UNK     1      19.573   2.643  19.381  1.00  0.00     0.102 A 
HETATM   23  O1  UNK     1      19.350   1.736  17.173  1.00  0.00    -0.271 OA
HETATM   24  C19 UNK     1      19.592   2.471  20.764  1.00  0.00     0.040 A 
HETATM   25  C20 UNK     1      19.401   1.203  21.314  1.00  0.00     0.004 A 
HETATM   26  C16 UNK     1      19.147   0.688  16.278  1.00  0.00     0.304 A 
HETATM   27  O4  UNK     1      19.139   0.874  15.067  1.00  0.00    -0.259 OA
BRANCH  22  28
HETATM   28  O3  UNK     1      19.760   3.880  18.849  1.00  0.00    -0.353 OA
HETATM   29  C21 UNK     1      21.097   4.246  18.509  1.00  0.00     0.210 C 
ENDBRANCH  22  28
ENDBRANCH  14  17
ENDBRANCH  11  13
TORSDOF 3
ENDMDL
MODEL 5
REMARK VINA RESULT:      -9.8      6.010     12.060
REMARK  3 active torsions:
REMARK  status: ('A' for Active; 'I' for Inactive)
REMARK    1  A    between atoms: C17_24  and  O3_4 
REMARK       I    between atoms: C11_18  and  N1_6 
REMARK    2  A    between atoms: C9_16  and  N1_6 
REMARK    3  A    between atoms: C11_18  and  C12_19 
ROOT
HETATM    1  S1  UNK     1      15.444   6.565  32.504  1.00  0.00    -0.075 SA
HETATM    2  N2  UNK     1      20.262   7.315  33.961  1.00  0.00    -0.191 NA
HETATM    3  C1  UNK     1      14.755  10.399  33.844  1.00  0.00    -0.014 C 
HETATM    4  C2  UNK     1      16.205  10.887  33.623  1.00  0.00     0.009 C 
HETATM    5  C3  UNK     1      14.459   9.141  32.994  1.00  0.00     0.051 C 
HETATM    6  C4  UNK     1      17.263   9.827  33.969  1.00  0.00     0.042 C 
HETATM    7  C5  UNK     1      16.888   8.477  33.445  1.00  0.00    -0.021 A 
HETATM    8  C6  UNK     1      15.604   8.177  33.029  1.00  0.00    -0.007 A 
HETATM    9  C7  UNK     1      14.459  10.154  35.327  1.00  0.00     0.010 C 
HETATM   10  C8  UNK     1      17.749   7.344  33.330  1.00  0.00     0.085 A 
HETATM   11  C9  UNK     1      17.093   6.240  32.831  1.00  0.00     0.098 A 
HETATM   12  C10 UNK     1      19.137   7.328  33.678  1.00  0.00     0.103 C 
ENDROOT
BRANCH  11  13
HETATM   13  N1  UNK     1      17.529   4.970  32.562  1.00  0.00    -0.316 N 
HETATM   14  C11 UNK     1      18.235   4.551  31.427  1.00  0.00     0.262 C 
HETATM   15  O2  UNK     1      18.598   5.217  30.466  1.00  0.00    -0.267 OA
HETATM   16  H11 UNK     1      17.286   4.280  33.267  1.00  0.00     0.170 HD
BRANCH  14  17
HETATM   17  C12 UNK     1      18.548   3.106  31.460  1.00  0.00     0.108 A 
HETATM   18  C14 UNK     1      19.001   2.573  30.318  1.00  0.00     0.037 A 
HETATM   19  C13 UNK     1      19.339   1.160  30.251  1.00  0.00     0.002 A 
HETATM   20  C15 UNK     1      19.181   0.376  31.390  1.00  0.00     0.123 A 
HETATM   21  C18 UNK     1      19.814   0.562  29.081  1.00  0.00     0.014 A 
HETATM   22  C17 UNK     1      19.486  -0.984  31.392  1.00  0.00     0.102 A 
HETATM   23  O1  UNK     1      18.704   0.942  32.588  1.00  0.00    -0.271 OA
HETATM   24  C19 UNK     1      19.960  -1.572  30.221  1.00  0.00     0.040 A 
HETATM   25  C20 UNK     1      20.124  -0.801  29.069  1.00  0.00     0.004 A 
HETATM   26  C16 UNK     1      18.373   2.291  32.683  1.00  0.00     0.304 A 
HETATM   27  O4  UNK     1      17.960   2.776  33.731  1.00  0.00    -0.259 OA
BRANCH  22  28
HETATM   28  O3  UNK     1      19.328  -1.738  32.513  1.00  0.00    -0.353 OA
HETATM   29  C21 UNK     1      20.504  -2.321  33.075  1.00  0.00     0.210 C 
ENDBRANCH  22  28
ENDBRANCH  14  17
ENDBRANCH  11  13
TORSDOF 3
ENDMDL
MODEL 6
REMARK VINA RESULT:      -9.7     15.693     20.141
REMARK  3 active torsions:
REMARK  status: ('A' for Active; 'I' for Inactive)
REMARK    1  A    between atoms: C17_24  and  O3_4 
REMARK       I    between atoms: C11_18  and  N1_6 
REMARK    2  A    between atoms: C9_16  and  N1_6 
REMARK    3  A    between atoms: C11_18  and  C12_19 
ROOT
HETATM    1  S1  UNK     1      19.324  -1.749  12.102  1.00  0.00    -0.075 SA
HETATM    2  N2  UNK     1      20.968  -5.013  15.644  1.00  0.00    -0.191 NA
HETATM    3  C1  UNK     1      20.100  -4.755   9.396  1.00  0.00    -0.014 C 
HETATM    4  C2  UNK     1      19.908  -5.908  10.408  1.00  0.00     0.009 C 
HETATM    5  C3  UNK     1      19.407  -3.463   9.889  1.00  0.00     0.051 C 
HETATM    6  C4  UNK     1      20.456  -5.586  11.807  1.00  0.00     0.042 C 
HETATM    7  C5  UNK     1      20.093  -4.201  12.241  1.00  0.00    -0.021 A 
HETATM    8  C6  UNK     1      19.641  -3.244  11.352  1.00  0.00    -0.007 A 
HETATM    9  C7  UNK     1      21.582  -4.512   9.088  1.00  0.00     0.010 C 
HETATM   10  C8  UNK     1      20.183  -3.678  13.566  1.00  0.00     0.085 A 
HETATM   11  C9  UNK     1      19.793  -2.358  13.632  1.00  0.00     0.098 A 
HETATM   12  C10 UNK     1      20.616  -4.416  14.713  1.00  0.00     0.103 C 
ENDROOT
BRANCH  11  13
HETATM   13  N1  UNK     1      19.723  -1.484  14.684  1.00  0.00    -0.316 N 
HETATM   14  C11 UNK     1      18.790  -1.507  15.730  1.00  0.00     0.262 C 
HETATM   15  O2  UNK     1      17.870  -2.294  15.913  1.00  0.00    -0.267 OA
HETATM   16  H11 UNK     1      20.419  -0.745  14.669  1.00  0.00     0.170 HD
BRANCH  14  17
HETATM   17  C12 UNK     1      19.004  -0.412  16.700  1.00  0.00     0.108 A 
HETATM   18  C14 UNK     1      19.003  -0.760  17.993  1.00  0.00     0.037 A 
HETATM   19  C13 UNK     1      19.207   0.246  19.023  1.00  0.00     0.002 A 
HETATM   20  C15 UNK     1      19.400   1.570  18.642  1.00  0.00     0.123 A 
HETATM   21  C18 UNK     1      19.214  -0.072  20.384  1.00  0.00     0.014 A 
HETATM   22  C17 UNK     1      19.600   2.582  19.579  1.00  0.00     0.102 A 
HETATM   23  O1  UNK     1      19.400   1.930  17.280  1.00  0.00    -0.271 OA
HETATM   24  C19 UNK     1      19.606   2.256  20.934  1.00  0.00     0.040 A 
HETATM   25  C20 UNK     1      19.414   0.933  21.335  1.00  0.00     0.004 A 
HETATM   26  C16 UNK     1      19.207   0.989  16.271  1.00  0.00     0.304 A 
HETATM   27  O4  UNK     1      19.210   1.311  15.088  1.00  0.00    -0.259 OA
BRANCH  22  28
HETATM   28  O3  UNK     1      19.789   3.872  19.191  1.00  0.00    -0.353 OA
HETATM   29  C21 UNK     1      21.026   4.183  18.550  1.00  0.00     0.210 C 
ENDBRANCH  22  28
ENDBRANCH  14  17
ENDBRANCH  11  13
TORSDOF 3
ENDMDL
MODEL 7
REMARK VINA RESULT:      -9.6      2.790      3.790
REMARK  3 active torsions:
REMARK  status: ('A' for Active; 'I' for Inactive)
REMARK    1  A    between atoms: C17_24  and  O3_4 
REMARK       I    between atoms: C11_18  and  N1_6 
REMARK    2  A    between atoms: C9_16  and  N1_6 
REMARK    3  A    between atoms: C11_18  and  C12_19 
ROOT
HETATM    1  S1  UNK     1      20.443  -6.567  38.302  1.00  0.00    -0.075 SA
HETATM    2  N2  UNK     1      16.905  -7.381  34.735  1.00  0.00    -0.191 NA
HETATM    3  C1  UNK     1      20.200 -10.611  39.044  1.00  0.00    -0.014 C 
HETATM    4  C2  UNK     1      19.738 -10.988  37.617  1.00  0.00     0.009 C 
HETATM    5  C3  UNK     1      20.891  -9.227  39.055  1.00  0.00     0.051 C 
HETATM    6  C4  UNK     1      18.760  -9.971  37.007  1.00  0.00     0.042 C 
HETATM    7  C5  UNK     1      19.197  -8.562  37.255  1.00  0.00    -0.021 A 
HETATM    8  C6  UNK     1      20.149  -8.241  38.206  1.00  0.00    -0.007 A 
HETATM    9  C7  UNK     1      19.044 -10.668  40.048  1.00  0.00     0.010 C 
HETATM   10  C8  UNK     1      18.701  -7.394  36.603  1.00  0.00     0.085 A 
HETATM   11  C9  UNK     1      19.294  -6.242  37.074  1.00  0.00     0.098 A 
HETATM   12  C10 UNK     1      17.710  -7.387  35.571  1.00  0.00     0.103 C 
ENDROOT
BRANCH  11  13
HETATM   13  N1  UNK     1      19.121  -4.928  36.733  1.00  0.00    -0.316 N 
HETATM   14  C11 UNK     1      20.125  -3.960  36.596  1.00  0.00     0.262 C 
HETATM   15  O2  UNK     1      21.333  -4.088  36.748  1.00  0.00    -0.267 OA
HETATM   16  H11 UNK     1      18.154  -4.650  36.589  1.00  0.00     0.170 HD
BRANCH  14  17
HETATM   17  C12 UNK     1      19.584  -2.637  36.217  1.00  0.00     0.108 A 
HETATM   18  C14 UNK     1      18.900  -1.984  37.165  1.00  0.00     0.037 A 
HETATM   19  C13 UNK     1      18.331  -0.675  36.889  1.00  0.00     0.002 A 
HETATM   20  C15 UNK     1      18.509  -0.116  35.626  1.00  0.00     0.123 A 
HETATM   21  C18 UNK     1      17.610   0.041  37.847  1.00  0.00     0.014 A 
HETATM   22  C17 UNK     1      17.989   1.134  35.297  1.00  0.00     0.102 A 
HETATM   23  O1  UNK     1      19.230  -0.808  34.633  1.00  0.00    -0.271 OA
HETATM   24  C19 UNK     1      17.271   1.842  36.260  1.00  0.00     0.040 A 
HETATM   25  C20 UNK     1      17.083   1.297  37.532  1.00  0.00     0.004 A 
HETATM   26  C16 UNK     1      19.786  -2.062  34.868  1.00  0.00     0.304 A 
HETATM   27  O4  UNK     1      20.413  -2.656  33.998  1.00  0.00    -0.259 OA
BRANCH  22  28
HETATM   28  O3  UNK     1      18.171   1.668  34.060  1.00  0.00    -0.353 OA
HETATM   29  C21 UNK     1      18.268   3.090  33.973  1.00  0.00     0.210 C 
ENDBRANCH  22  28
ENDBRANCH  14  17
ENDBRANCH  11  13
TORSDOF 3
ENDMDL
MODEL 8
REMARK VINA RESULT:      -9.3      8.439     11.480
REMARK  3 active torsions:
REMARK  status: ('A' for Active; 'I' for Inactive)
REMARK    1  A    between atoms: C17_24  and  O3_4 
REMARK       I    between atoms: C11_18  and  N1_6 
REMARK    2  A    between atoms: C9_16  and  N1_6 
REMARK    3  A    between atoms: C11_18  and  C12_19 
ROOT
HETATM    1  S1  UNK     1      30.352  -8.485  36.791  1.00  0.00    -0.075 SA
HETATM    2  N2  UNK     1      28.985  -4.364  39.446  1.00  0.00    -0.191 NA
HETATM    3  C1  UNK     1      34.159  -6.915  36.881  1.00  0.00    -0.014 C 
HETATM    4  C2  UNK     1      33.953  -6.122  38.192  1.00  0.00     0.009 C 
HETATM    5  C3  UNK     1      33.119  -8.053  36.752  1.00  0.00     0.051 C 
HETATM    6  C4  UNK     1      32.554  -5.495  38.309  1.00  0.00     0.042 C 
HETATM    7  C5  UNK     1      31.481  -6.448  37.887  1.00  0.00    -0.021 A 
HETATM    8  C6  UNK     1      31.754  -7.592  37.161  1.00  0.00    -0.007 A 
HETATM    9  C7  UNK     1      34.139  -5.997  35.654  1.00  0.00     0.010 C 
HETATM   10  C8  UNK     1      30.082  -6.311  38.133  1.00  0.00     0.085 A 
HETATM   11  C9  UNK     1      29.354  -7.349  37.595  1.00  0.00     0.098 A 
HETATM   12  C10 UNK     1      29.477  -5.236  38.859  1.00  0.00     0.103 C 
ENDROOT
BRANCH  11  13
HETATM   13  N1  UNK     1      28.010  -7.612  37.596  1.00  0.00    -0.316 N 
HETATM   14  C11 UNK     1      27.264  -8.148  38.654  1.00  0.00     0.262 C 
HETATM   15  O2  UNK     1      27.650  -8.482  39.767  1.00  0.00    -0.267 OA
HETATM   16  H11 UNK     1      27.536  -7.404  36.722  1.00  0.00     0.170 HD
BRANCH  14  17
HETATM   17  C12 UNK     1      25.833  -8.302  38.314  1.00  0.00     0.108 A 
HETATM   18  C14 UNK     1      24.968  -7.618  39.073  1.00  0.00     0.037 A 
HETATM   19  C13 UNK     1      23.539  -7.704  38.816  1.00  0.00     0.002 A 
HETATM   20  C15 UNK     1      23.091  -8.507  37.771  1.00  0.00     0.123 A 
HETATM   21  C18 UNK     1      22.601  -7.008  39.582  1.00  0.00     0.014 A 
HETATM   22  C17 UNK     1      21.735  -8.633  37.472  1.00  0.00     0.102 A 
HETATM   23  O1  UNK     1      24.006  -9.224  36.976  1.00  0.00    -0.271 OA
HETATM   24  C19 UNK     1      20.806  -7.935  38.242  1.00  0.00     0.040 A 
HETATM   25  C20 UNK     1      21.238  -7.124  39.293  1.00  0.00     0.004 A 
HETATM   26  C16 UNK     1      25.379  -9.162  37.198  1.00  0.00     0.304 A 
HETATM   27  O4  UNK     1      26.169  -9.788  36.500  1.00  0.00    -0.259 OA
BRANCH  22  28
HETATM   28  O3  UNK     1      21.312  -9.420  36.448  1.00  0.00    -0.353 OA
HETATM   29  C21 UNK     1      20.789 -10.705  36.788  1.00  0.00     0.210 C 
ENDBRANCH  22  28
ENDBRANCH  14  17
ENDBRANCH  11  13
TORSDOF 3
ENDMDL
MODEL 9
REMARK VINA RESULT:      -9.2      7.274     10.262
REMARK  3 active torsions:
REMARK  status: ('A' for Active; 'I' for Inactive)
REMARK    1  A    between atoms: C17_24  and  O3_4 
REMARK       I    between atoms: C11_18  and  N1_6 
REMARK    2  A    between atoms: C9_16  and  N1_6 
REMARK    3  A    between atoms: C11_18  and  C12_19 
ROOT
HETATM    1  S1  UNK     1      22.895  -6.953  39.345  1.00  0.00    -0.075 SA
HETATM    2  N2  UNK     1      24.242 -10.575  36.032  1.00  0.00    -0.191 NA
HETATM    3  C1  UNK     1      19.017  -8.115  38.584  1.00  0.00    -0.014 C 
HETATM    4  C2  UNK     1      19.379  -9.568  38.196  1.00  0.00     0.009 C 
HETATM    5  C3  UNK     1      20.143  -7.470  39.425  1.00  0.00     0.051 C 
HETATM    6  C4  UNK     1      20.686  -9.674  37.393  1.00  0.00     0.042 C 
HETATM    7  C5  UNK     1      21.763  -8.810  37.967  1.00  0.00    -0.021 A 
HETATM    8  C6  UNK     1      21.495  -7.798  38.871  1.00  0.00    -0.007 A 
HETATM    9  C7  UNK     1      18.681  -7.267  37.353  1.00  0.00     0.010 C 
HETATM   10  C8  UNK     1      23.155  -8.877  37.661  1.00  0.00     0.085 A 
HETATM   11  C9  UNK     1      23.885  -7.926  38.342  1.00  0.00     0.098 A 
HETATM   12  C10 UNK     1      23.755  -9.815  36.762  1.00  0.00     0.103 C 
ENDROOT
BRANCH  11  13
HETATM   13  N1  UNK     1      25.224  -7.642  38.348  1.00  0.00    -0.316 N 
HETATM   14  C11 UNK     1      26.225  -8.345  39.031  1.00  0.00     0.262 C 
HETATM   15  O2  UNK     1      26.111  -9.334  39.746  1.00  0.00    -0.267 OA
HETATM   16  H11 UNK     1      25.487  -6.823  37.807  1.00  0.00     0.170 HD
BRANCH  14  17
HETATM   17  C12 UNK     1      27.568  -7.764  38.818  1.00  0.00     0.108 A 
HETATM   18  C14 UNK     1      28.551  -8.632  38.543  1.00  0.00     0.037 A 
HETATM   19  C13 UNK     1      29.906  -8.157  38.316  1.00  0.00     0.002 A 
HETATM   20  C15 UNK     1      30.162  -6.791  38.390  1.00  0.00     0.123 A 
HETATM   21  C18 UNK     1      30.961  -9.025  38.027  1.00  0.00     0.014 A 
HETATM   22  C17 UNK     1      31.438  -6.271  38.183  1.00  0.00     0.102 A 
HETATM   23  O1  UNK     1      29.124  -5.883  38.679  1.00  0.00    -0.271 OA
HETATM   24  C19 UNK     1      32.485  -7.145  37.894  1.00  0.00     0.040 A 
HETATM   25  C20 UNK     1      32.247  -8.518  37.817  1.00  0.00     0.004 A 
HETATM   26  C16 UNK     1      27.817  -6.308  38.901  1.00  0.00     0.304 A 
HETATM   27  O4  UNK     1      26.920  -5.510  39.151  1.00  0.00    -0.259 OA
BRANCH  22  28
HETATM   28  O3  UNK     1      31.673  -4.933  38.257  1.00  0.00    -0.353 OA
HETATM   29  C21 UNK     1      31.845  -4.234  37.024  1.00  0.00     0.210 C 
ENDBRANCH  22  28
ENDBRANCH  14  17
ENDBRANCH  11  13
TORSDOF 3
ENDMDL
MODEL 10
REMARK VINA RESULT:      -9.1      8.462     11.442
REMARK  3 active torsions:
REMARK  status: ('A' for Active; 'I' for Inactive)
REMARK    1  A    between atoms: C17_24  and  O3_4 
REMARK       I    between atoms: C11_18  and  N1_6 
REMARK    2  A    between atoms: C9_16  and  N1_6 
REMARK    3  A    between atoms: C11_18  and  C12_19 
ROOT
HETATM    1  S1  UNK     1      30.590  -8.491  36.248  1.00  0.00    -0.075 SA
HETATM    2  N2  UNK     1      29.065  -4.783  39.384  1.00  0.00    -0.191 NA
HETATM    3  C1  UNK     1      34.329  -6.789  36.535  1.00  0.00    -0.014 C 
HETATM    4  C2  UNK     1      34.096  -6.171  37.933  1.00  0.00     0.009 C 
HETATM    5  C3  UNK     1      33.337  -7.944  36.267  1.00  0.00     0.051 C 
HETATM    6  C4  UNK     1      32.673  -5.621  38.124  1.00  0.00     0.042 C 
HETATM    7  C5  UNK     1      31.638  -6.558  37.587  1.00  0.00    -0.021 A 
HETATM    8  C6  UNK     1      31.955  -7.593  36.726  1.00  0.00    -0.007 A 
HETATM    9  C7  UNK     1      34.268  -5.730  35.429  1.00  0.00     0.010 C 
HETATM   10  C8  UNK     1      30.236  -6.509  37.846  1.00  0.00     0.085 A 
HETATM   11  C9  UNK     1      29.549  -7.503  37.183  1.00  0.00     0.098 A 
HETATM   12  C10 UNK     1      29.590  -5.557  38.696  1.00  0.00     0.103 C 
ENDROOT
BRANCH  11  13
HETATM   13  N1  UNK     1      28.217  -7.819  37.151  1.00  0.00    -0.316 N 
HETATM   14  C11 UNK     1      27.601  -8.913  37.773  1.00  0.00     0.262 C 
HETATM   15  O2  UNK     1      28.115  -9.789  38.458  1.00  0.00    -0.267 OA
HETATM   16  H11 UNK     1      27.645  -7.189  36.597  1.00  0.00     0.170 HD
BRANCH  14  17
HETATM   17  C12 UNK     1      26.143  -8.953  37.531  1.00  0.00     0.108 A 
HETATM   18  C14 UNK     1      25.690  -9.994  36.823  1.00  0.00     0.037 A 
HETATM   19  C13 UNK     1      24.270 -10.123  36.533  1.00  0.00     0.002 A 
HETATM   20  C15 UNK     1      23.397  -9.146  37.003  1.00  0.00     0.123 A 
HETATM   21  C18 UNK     1      23.754 -11.192  35.798  1.00  0.00     0.014 A 
HETATM   22  C17 UNK     1      22.026  -9.210  36.760  1.00  0.00     0.102 A 
HETATM   23  O1  UNK     1      23.880  -8.053  37.748  1.00  0.00    -0.271 OA
HETATM   24  C19 UNK     1      21.519 -10.281  36.027  1.00  0.00     0.040 A 
HETATM   25  C20 UNK     1      22.380 -11.270  35.547  1.00  0.00     0.004 A 
HETATM   26  C16 UNK     1      25.233  -7.903  38.041  1.00  0.00     0.304 A 
HETATM   27  O4  UNK     1      25.644  -6.949  38.691  1.00  0.00    -0.259 OA
BRANCH  22  28
HETATM   28  O3  UNK     1      21.184  -8.250  37.227  1.00  0.00    -0.353 OA
HETATM   29  C21 UNK     1      20.669  -7.319  36.276  1.00  0.00     0.210 C 
ENDBRANCH  22  28
ENDBRANCH  14  17
ENDBRANCH  11  13
TORSDOF 3
ENDMDL
