MODEL 1
REMARK VINA RESULT:      -9.9      0.000      0.000
REMARK  5 active torsions:
REMARK  status: ('A' for Active; 'I' for Inactive)
REMARK       I    between atoms: C5_17  and  N1_9 
REMARK    1  A    between atoms: C6_18  and  N2_10 
REMARK    2  A    between atoms: C10_22  and  N3_11 
REMARK    3  A    between atoms: C6_18  and  N3_11 
REMARK    4  A    between atoms: C19_31  and  N4_12 
REMARK    5  A    between atoms: C5_17  and  C7_19 
ROOT
HETATM    1  O1  UNK     1      31.104  -4.971  35.494  1.00  0.00    -0.267 OA
HETATM    2  N1  UNK     1      29.843  -6.794  36.160  1.00  0.00    -0.344 N 
HETATM    3  N2  UNK     1      27.727  -7.565  37.848  1.00  0.00    -0.355 N 
HETATM    4  C1  UNK     1      29.134  -8.057  35.897  1.00  0.00     0.146 C 
HETATM    5  C2  UNK     1      29.881  -6.410  37.575  1.00  0.00     0.146 C 
HETATM    6  C3  UNK     1      27.715  -7.995  36.452  1.00  0.00     0.145 C 
HETATM    7  C4  UNK     1      28.468  -6.344  38.148  1.00  0.00     0.145 C 
HETATM    8  C5  UNK     1      30.529  -6.023  35.206  1.00  0.00     0.262 C 
ENDROOT
BRANCH   3   9
HETATM    9  C6  UNK     1      27.017  -8.218  38.799  1.00  0.00     0.174 C 
HETATM   10  S2  UNK     1      27.618  -9.632  39.472  1.00  0.00    -0.041 SA
BRANCH   9  11
HETATM   11  N3  UNK     1      25.770  -7.737  39.165  1.00  0.00    -0.333 N 
HETATM   12  H9  UNK     1      25.795  -7.027  39.894  1.00  0.00     0.168 HD
BRANCH  11  13
HETATM   13  C10 UNK     1      24.488  -8.032  38.704  1.00  0.00     0.036 A 
HETATM   14  C12 UNK     1      24.316  -8.727  37.512  1.00  0.00     0.067 A 
HETATM   15  C15 UNK     1      23.023  -9.013  37.069  1.00  0.00     0.092 A 
HETATM   16  C13 UNK     1      21.888  -8.624  37.783  1.00  0.00     0.004 A 
HETATM   17  O2  UNK     1      22.914  -9.720  35.856  1.00  0.00    -0.275 OA
HETATM   18  C18 UNK     1      22.081  -7.925  38.982  1.00  0.00     0.017 A 
HETATM   19  C20 UNK     1      20.566  -8.968  37.243  1.00  0.00    -0.043 A 
HETATM   20  C14 UNK     1      23.372  -7.631  39.438  1.00  0.00     0.030 A 
HETATM   21  C22 UNK     1      20.492  -9.641  36.086  1.00  0.00     0.090 A 
HETATM   22  C23 UNK     1      19.326  -8.565  37.986  1.00  0.00     0.049 C 
HETATM   23  C24 UNK     1      21.680 -10.058  35.322  1.00  0.00     0.288 A 
HETATM   24  O3  UNK     1      21.573 -10.673  34.267  1.00  0.00    -0.260 OA
ENDBRANCH  11  13
ENDBRANCH   9  11
ENDBRANCH   3   9
BRANCH   8  25
HETATM   25  C7  UNK     1      30.540  -6.512  33.832  1.00  0.00     0.096 A 
HETATM   26  S1  UNK     1      31.983  -7.179  33.224  1.00  0.00    -0.082 SA
HETATM   27  C11 UNK     1      31.270  -7.501  31.688  1.00  0.00     0.020 A 
HETATM   28  C9  UNK     1      29.932  -7.094  31.652  1.00  0.00     0.004 A 
HETATM   29  C17 UNK     1      31.890  -8.092  30.569  1.00  0.00     0.055 A 
HETATM   30  C16 UNK     1      29.204  -7.291  30.453  1.00  0.00     0.017 A 
HETATM   31  C8  UNK     1      29.529  -6.523  32.906  1.00  0.00     0.068 A 
HETATM   32  C21 UNK     1      29.817  -7.878  29.342  1.00  0.00     0.037 A 
HETATM   33  C19 UNK     1      31.146  -8.273  29.402  1.00  0.00     0.104 A 
HETATM   34 Cl1  UNK     1      27.944  -5.926  33.193  1.00  0.00    -0.082 Cl
BRANCH  33  35
HETATM   35  N4  UNK     1      31.756  -8.868  28.266  1.00  0.00    -0.116 N 
HETATM   36  O4  UNK     1      31.035  -9.460  27.428  1.00  0.00    -0.532 OA
HETATM   37  O5  UNK     1      33.001  -8.783  28.130  1.00  0.00    -0.532 OA
ENDBRANCH  33  35
ENDBRANCH   8  25
TORSDOF 5
ENDMDL
MODEL 2
REMARK VINA RESULT:      -9.9      3.333      3.804
REMARK  5 active torsions:
REMARK  status: ('A' for Active; 'I' for Inactive)
REMARK       I    between atoms: C5_17  and  N1_9 
REMARK    1  A    between atoms: C6_18  and  N2_10 
REMARK    2  A    between atoms: C10_22  and  N3_11 
REMARK    3  A    between atoms: C6_18  and  N3_11 
REMARK    4  A    between atoms: C19_31  and  N4_12 
REMARK    5  A    between atoms: C5_17  and  C7_19 
ROOT
HETATM    1  O1  UNK     1      30.382  -3.489  37.380  1.00  0.00    -0.267 OA
HETATM    2  N1  UNK     1      29.947  -5.680  37.985  1.00  0.00    -0.344 N 
HETATM    3  N2  UNK     1      27.862  -7.524  38.399  1.00  0.00    -0.355 N 
HETATM    4  C1  UNK     1      30.246  -7.121  37.973  1.00  0.00     0.146 C 
HETATM    5  C2  UNK     1      28.824  -5.306  38.852  1.00  0.00     0.146 C 
HETATM    6  C3  UNK     1      29.006  -7.917  37.580  1.00  0.00     0.145 C 
HETATM    7  C4  UNK     1      27.573  -6.095  38.474  1.00  0.00     0.145 C 
HETATM    8  C5  UNK     1      30.688  -4.682  37.329  1.00  0.00     0.262 C 
ENDROOT
BRANCH   3   9
HETATM    9  C6  UNK     1      27.059  -8.443  38.989  1.00  0.00     0.174 C 
HETATM   10  S2  UNK     1      27.588 -10.025  39.169  1.00  0.00    -0.041 SA
BRANCH   9  11
HETATM   11  N3  UNK     1      25.784  -8.075  39.386  1.00  0.00    -0.333 N 
HETATM   12  H9  UNK     1      25.726  -7.747  40.347  1.00  0.00     0.168 HD
BRANCH  11  13
HETATM   13  C10 UNK     1      24.568  -8.054  38.704  1.00  0.00     0.036 A 
HETATM   14  C12 UNK     1      24.351  -8.915  37.634  1.00  0.00     0.067 A 
HETATM   15  C15 UNK     1      23.126  -8.877  36.966  1.00  0.00     0.092 A 
HETATM   16  C13 UNK     1      22.103  -8.003  37.334  1.00  0.00     0.004 A 
HETATM   17  O2  UNK     1      22.966  -9.774  35.891  1.00  0.00    -0.275 OA
HETATM   18  C18 UNK     1      22.340  -7.143  38.416  1.00  0.00     0.017 A 
HETATM   19  C20 UNK     1      20.845  -8.032  36.575  1.00  0.00    -0.043 A 
HETATM   20  C14 UNK     1      23.564  -7.169  39.094  1.00  0.00     0.030 A 
HETATM   21  C22 UNK     1      20.721  -8.895  35.557  1.00  0.00     0.090 A 
HETATM   22  C23 UNK     1      19.726  -7.104  36.947  1.00  0.00     0.049 C 
HETATM   23  C24 UNK     1      21.791  -9.824  35.157  1.00  0.00     0.288 A 
HETATM   24  O3  UNK     1      21.641 -10.600  34.219  1.00  0.00    -0.260 OA
ENDBRANCH  11  13
ENDBRANCH   9  11
ENDBRANCH   3   9
BRANCH   8  25
HETATM   25  C7  UNK     1      31.854  -5.108  36.564  1.00  0.00     0.096 A 
HETATM   26  S1  UNK     1      31.693  -5.286  34.879  1.00  0.00    -0.082 SA
HETATM   27  C11 UNK     1      33.339  -5.767  34.701  1.00  0.00     0.020 A 
HETATM   28  C9  UNK     1      33.999  -5.788  35.934  1.00  0.00     0.004 A 
HETATM   29  C17 UNK     1      34.001  -6.108  33.505  1.00  0.00     0.055 A 
HETATM   30  C16 UNK     1      35.364  -6.165  35.955  1.00  0.00     0.017 A 
HETATM   31  C8  UNK     1      33.120  -5.403  37.001  1.00  0.00     0.068 A 
HETATM   32  C21 UNK     1      36.023  -6.503  34.771  1.00  0.00     0.037 A 
HETATM   33  C19 UNK     1      35.347  -6.475  33.559  1.00  0.00     0.104 A 
HETATM   34 Cl1  UNK     1      33.621  -5.324  38.642  1.00  0.00    -0.082 Cl
BRANCH  33  35
HETATM   35  N4  UNK     1      36.028  -6.822  32.363  1.00  0.00    -0.116 N 
HETATM   36  O4  UNK     1      36.348  -8.020  32.171  1.00  0.00    -0.532 OA
HETATM   37  O5  UNK     1      36.290  -5.922  31.529  1.00  0.00    -0.532 OA
ENDBRANCH  33  35
ENDBRANCH   8  25
TORSDOF 5
ENDMDL
MODEL 3
REMARK VINA RESULT:      -9.8      6.220      9.633
REMARK  5 active torsions:
REMARK  status: ('A' for Active; 'I' for Inactive)
REMARK       I    between atoms: C5_17  and  N1_9 
REMARK    1  A    between atoms: C6_18  and  N2_10 
REMARK    2  A    between atoms: C10_22  and  N3_11 
REMARK    3  A    between atoms: C6_18  and  N3_11 
REMARK    4  A    between atoms: C19_31  and  N4_12 
REMARK    5  A    between atoms: C5_17  and  C7_19 
ROOT
HETATM    1  O1  UNK     1      36.615  -6.640  35.443  1.00  0.00    -0.267 OA
HETATM    2  N1  UNK     1      35.149  -7.882  34.152  1.00  0.00    -0.344 N 
HETATM    3  N2  UNK     1      34.750 -10.433  33.033  1.00  0.00    -0.355 N 
HETATM    4  C1  UNK     1      33.796  -8.283  33.734  1.00  0.00     0.146 C 
HETATM    5  C2  UNK     1      36.226  -8.495  33.367  1.00  0.00     0.146 C 
HETATM    6  C3  UNK     1      33.657  -9.801  33.768  1.00  0.00     0.145 C 
HETATM    7  C4  UNK     1      36.102 -10.016  33.389  1.00  0.00     0.145 C 
HETATM    8  C5  UNK     1      35.456  -6.930  35.140  1.00  0.00     0.262 C 
ENDROOT
BRANCH   3   9
HETATM    9  C6  UNK     1      34.524 -11.418  32.129  1.00  0.00     0.174 C 
HETATM   10  S2  UNK     1      34.896 -13.008  32.510  1.00  0.00    -0.041 SA
BRANCH   9  11
HETATM   11  N3  UNK     1      34.037 -11.087  30.875  1.00  0.00    -0.333 N 
HETATM   12  H9  UNK     1      34.703 -11.229  30.119  1.00  0.00     0.168 HD
BRANCH  11  13
HETATM   13  C10 UNK     1      32.795 -10.614  30.455  1.00  0.00     0.036 A 
HETATM   14  C12 UNK     1      32.444  -9.285  30.669  1.00  0.00     0.067 A 
HETATM   15  C15 UNK     1      31.195  -8.832  30.239  1.00  0.00     0.092 A 
HETATM   16  C13 UNK     1      30.279  -9.667  29.598  1.00  0.00     0.004 A 
HETATM   17  O2  UNK     1      30.898  -7.477  30.485  1.00  0.00    -0.275 OA
HETATM   18  C18 UNK     1      30.651 -11.003  29.391  1.00  0.00     0.017 A 
HETATM   19  C20 UNK     1      28.988  -9.105  29.179  1.00  0.00    -0.043 A 
HETATM   20  C14 UNK     1      31.900 -11.471  29.817  1.00  0.00     0.030 A 
HETATM   21  C22 UNK     1      28.732  -7.813  29.425  1.00  0.00     0.090 A 
HETATM   22  C23 UNK     1      27.982  -9.978  28.488  1.00  0.00     0.049 C 
HETATM   23  C24 UNK     1      29.688  -6.919  30.100  1.00  0.00     0.288 A 
HETATM   24  O3  UNK     1      29.419  -5.741  30.309  1.00  0.00    -0.260 OA
ENDBRANCH  11  13
ENDBRANCH   9  11
ENDBRANCH   3   9
BRANCH   8  25
HETATM   25  C7  UNK     1      34.337  -6.281  35.814  1.00  0.00     0.096 A 
HETATM   26  S1  UNK     1      33.532  -7.136  37.047  1.00  0.00    -0.082 SA
HETATM   27  C11 UNK     1      32.438  -5.835  37.332  1.00  0.00     0.020 A 
HETATM   28  C9  UNK     1      32.697  -4.756  36.480  1.00  0.00     0.004 A 
HETATM   29  C17 UNK     1      31.396  -5.793  38.279  1.00  0.00     0.055 A 
HETATM   30  C16 UNK     1      31.879  -3.605  36.592  1.00  0.00     0.017 A 
HETATM   31  C8  UNK     1      33.802  -5.036  35.609  1.00  0.00     0.068 A 
HETATM   32  C21 UNK     1      30.846  -3.560  37.531  1.00  0.00     0.037 A 
HETATM   33  C19 UNK     1      30.608  -4.644  38.365  1.00  0.00     0.104 A 
HETATM   34 Cl1  UNK     1      34.377  -3.915  34.441  1.00  0.00    -0.082 Cl
BRANCH  33  35
HETATM   35  N4  UNK     1      29.554  -4.585  39.315  1.00  0.00    -0.116 N 
HETATM   36  O4  UNK     1      29.499  -3.611  40.103  1.00  0.00    -0.532 OA
HETATM   37  O5  UNK     1      28.706  -5.509  39.339  1.00  0.00    -0.532 OA
ENDBRANCH  33  35
ENDBRANCH   8  25
TORSDOF 5
ENDMDL
MODEL 4
REMARK VINA RESULT:      -9.7      3.427      3.996
REMARK  5 active torsions:
REMARK  status: ('A' for Active; 'I' for Inactive)
REMARK       I    between atoms: C5_17  and  N1_9 
REMARK    1  A    between atoms: C6_18  and  N2_10 
REMARK    2  A    between atoms: C10_22  and  N3_11 
REMARK    3  A    between atoms: C6_18  and  N3_11 
REMARK    4  A    between atoms: C19_31  and  N4_12 
REMARK    5  A    between atoms: C5_17  and  C7_19 
ROOT
HETATM    1  O1  UNK     1      30.200  -3.753  37.450  1.00  0.00    -0.267 OA
HETATM    2  N1  UNK     1      29.687  -5.988  37.760  1.00  0.00    -0.344 N 
HETATM    3  N2  UNK     1      27.546  -7.815  37.807  1.00  0.00    -0.355 N 
HETATM    4  C1  UNK     1      29.961  -7.425  37.597  1.00  0.00     0.146 C 
HETATM    5  C2  UNK     1      28.511  -5.691  38.585  1.00  0.00     0.146 C 
HETATM    6  C3  UNK     1      28.739  -8.138  37.028  1.00  0.00     0.145 C 
HETATM    7  C4  UNK     1      27.277  -6.398  38.030  1.00  0.00     0.145 C 
HETATM    8  C5  UNK     1      30.489  -4.939  37.279  1.00  0.00     0.262 C 
ENDROOT
BRANCH   3   9
HETATM    9  C6  UNK     1      26.689  -8.777  38.226  1.00  0.00     0.174 C 
HETATM   10  S2  UNK     1      27.125  -9.801  39.481  1.00  0.00    -0.041 SA
BRANCH   9  11
HETATM   11  N3  UNK     1      25.479  -8.939  37.572  1.00  0.00    -0.333 N 
HETATM   12  H9  UNK     1      25.546  -9.443  36.690  1.00  0.00     0.168 HD
BRANCH  11  13
HETATM   13  C10 UNK     1      24.181  -8.555  37.907  1.00  0.00     0.036 A 
HETATM   14  C12 UNK     1      23.107  -8.954  37.119  1.00  0.00     0.067 A 
HETATM   15  C15 UNK     1      21.816  -8.558  37.475  1.00  0.00     0.092 A 
HETATM   16  C13 UNK     1      21.561  -7.772  38.598  1.00  0.00     0.004 A 
HETATM   17  O2  UNK     1      20.771  -8.995  36.637  1.00  0.00    -0.275 OA
HETATM   18  C18 UNK     1      22.656  -7.379  39.380  1.00  0.00     0.017 A 
HETATM   19  C20 UNK     1      20.170  -7.402  38.897  1.00  0.00    -0.043 A 
HETATM   20  C14 UNK     1      23.956  -7.768  39.036  1.00  0.00     0.030 A 
HETATM   21  C22 UNK     1      19.195  -7.832  38.083  1.00  0.00     0.090 A 
HETATM   22  C23 UNK     1      19.863  -6.557  40.098  1.00  0.00     0.049 C 
HETATM   23  C24 UNK     1      19.449  -8.663  36.894  1.00  0.00     0.288 A 
HETATM   24  O3  UNK     1      18.532  -9.037  36.173  1.00  0.00    -0.260 OA
ENDBRANCH  11  13
ENDBRANCH   9  11
ENDBRANCH   3   9
BRANCH   8  25
HETATM   25  C7  UNK     1      31.700  -5.302  36.551  1.00  0.00     0.096 A 
HETATM   26  S1  UNK     1      31.606  -5.467  34.859  1.00  0.00    -0.082 SA
HETATM   27  C11 UNK     1      33.277  -5.869  34.735  1.00  0.00     0.020 A 
HETATM   28  C9  UNK     1      33.895  -5.875  35.990  1.00  0.00     0.004 A 
HETATM   29  C17 UNK     1      33.995  -6.164  33.559  1.00  0.00     0.055 A 
HETATM   30  C16 UNK     1      35.274  -6.188  36.055  1.00  0.00     0.017 A 
HETATM   31  C8  UNK     1      32.961  -5.543  37.029  1.00  0.00     0.068 A 
HETATM   32  C21 UNK     1      35.989  -6.482  34.891  1.00  0.00     0.037 A 
HETATM   33  C19 UNK     1      35.354  -6.470  33.657  1.00  0.00     0.104 A 
HETATM   34 Cl1  UNK     1      33.401  -5.462  38.688  1.00  0.00    -0.082 Cl
BRANCH  33  35
HETATM   35  N4  UNK     1      36.092  -6.770  32.482  1.00  0.00    -0.116 N 
HETATM   36  O4  UNK     1      36.165  -5.909  31.572  1.00  0.00    -0.532 OA
HETATM   37  O5  UNK     1      36.652  -7.889  32.384  1.00  0.00    -0.532 OA
ENDBRANCH  33  35
ENDBRANCH   8  25
TORSDOF 5
ENDMDL
MODEL 5
REMARK VINA RESULT:      -9.4      4.431      9.305
REMARK  5 active torsions:
REMARK  status: ('A' for Active; 'I' for Inactive)
REMARK       I    between atoms: C5_17  and  N1_9 
REMARK    1  A    between atoms: C6_18  and  N2_10 
REMARK    2  A    between atoms: C10_22  and  N3_11 
REMARK    3  A    between atoms: C6_18  and  N3_11 
REMARK    4  A    between atoms: C19_31  and  N4_12 
REMARK    5  A    between atoms: C5_17  and  C7_19 
ROOT
HETATM    1  O1  UNK     1      34.560  -6.693  37.752  1.00  0.00    -0.267 OA
HETATM    2  N1  UNK     1      33.808  -7.076  35.597  1.00  0.00    -0.344 N 
HETATM    3  N2  UNK     1      34.497  -8.313  33.165  1.00  0.00    -0.355 N 
HETATM    4  C1  UNK     1      32.752  -7.381  34.618  1.00  0.00     0.146 C 
HETATM    5  C2  UNK     1      35.118  -6.798  35.000  1.00  0.00     0.146 C 
HETATM    6  C3  UNK     1      33.171  -8.548  33.731  1.00  0.00     0.145 C 
HETATM    7  C4  UNK     1      35.554  -7.956  34.106  1.00  0.00     0.145 C 
HETATM    8  C5  UNK     1      33.630  -6.950  36.986  1.00  0.00     0.262 C 
ENDROOT
BRANCH   3   9
HETATM    9  C6  UNK     1      34.751  -8.500  31.847  1.00  0.00     0.174 C 
HETATM   10  S2  UNK     1      36.107  -9.364  31.369  1.00  0.00    -0.041 SA
BRANCH   9  11
HETATM   11  N3  UNK     1      33.914  -7.923  30.906  1.00  0.00    -0.333 N 
HETATM   12  H9  UNK     1      34.319  -7.126  30.420  1.00  0.00     0.168 HD
BRANCH  11  13
HETATM   13  C10 UNK     1      32.623  -8.244  30.489  1.00  0.00     0.036 A 
HETATM   14  C12 UNK     1      31.528  -7.570  31.020  1.00  0.00     0.067 A 
HETATM   15  C15 UNK     1      30.244  -7.907  30.587  1.00  0.00     0.092 A 
HETATM   16  C13 UNK     1      30.016  -8.903  29.637  1.00  0.00     0.004 A 
HETATM   17  O2  UNK     1      29.177  -7.188  31.161  1.00  0.00    -0.275 OA
HETATM   18  C18 UNK     1      31.131  -9.571  29.113  1.00  0.00     0.017 A 
HETATM   19  C20 UNK     1      28.631  -9.192  29.240  1.00  0.00    -0.043 A 
HETATM   20  C14 UNK     1      32.424  -9.244  29.538  1.00  0.00     0.030 A 
HETATM   21  C22 UNK     1      27.635  -8.492  29.801  1.00  0.00     0.090 A 
HETATM   22  C23 UNK     1      28.352 -10.257  28.220  1.00  0.00     0.049 C 
HETATM   23  C24 UNK     1      27.860  -7.439  30.806  1.00  0.00     0.288 A 
HETATM   24  O3  UNK     1      26.924  -6.819  31.298  1.00  0.00    -0.260 OA
ENDBRANCH  11  13
ENDBRANCH   9  11
ENDBRANCH   3   9
BRANCH   8  25
HETATM   25  C7  UNK     1      32.281  -7.140  37.507  1.00  0.00     0.096 A 
HETATM   26  S1  UNK     1      31.673  -8.726  37.616  1.00  0.00    -0.082 SA
HETATM   27  C11 UNK     1      30.170  -8.182  38.262  1.00  0.00     0.020 A 
HETATM   28  C9  UNK     1      30.145  -6.789  38.389  1.00  0.00     0.004 A 
HETATM   29  C17 UNK     1      29.068  -8.976  38.635  1.00  0.00     0.055 A 
HETATM   30  C16 UNK     1      28.973  -6.186  38.907  1.00  0.00     0.017 A 
HETATM   31  C8  UNK     1      31.379  -6.205  37.945  1.00  0.00     0.068 A 
HETATM   32  C21 UNK     1      27.879  -6.971  39.279  1.00  0.00     0.037 A 
HETATM   33  C19 UNK     1      27.928  -8.352  39.144  1.00  0.00     0.104 A 
HETATM   34 Cl1  UNK     1      31.673  -4.513  37.972  1.00  0.00    -0.082 Cl
BRANCH  33  35
HETATM   35  N4  UNK     1      26.808  -9.138  39.525  1.00  0.00    -0.116 N 
HETATM   36  O4  UNK     1      25.654  -8.689  39.324  1.00  0.00    -0.532 OA
HETATM   37  O5  UNK     1      27.004 -10.260  40.050  1.00  0.00    -0.532 OA
ENDBRANCH  33  35
ENDBRANCH   8  25
TORSDOF 5
ENDMDL
MODEL 6
REMARK VINA RESULT:      -9.3      3.377      4.046
REMARK  5 active torsions:
REMARK  status: ('A' for Active; 'I' for Inactive)
REMARK       I    between atoms: C5_17  and  N1_9 
REMARK    1  A    between atoms: C6_18  and  N2_10 
REMARK    2  A    between atoms: C10_22  and  N3_11 
REMARK    3  A    between atoms: C6_18  and  N3_11 
REMARK    4  A    between atoms: C19_31  and  N4_12 
REMARK    5  A    between atoms: C5_17  and  C7_19 
ROOT
HETATM    1  O1  UNK     1      30.755  -3.479  37.315  1.00  0.00    -0.267 OA
HETATM    2  N1  UNK     1      30.218  -5.635  37.962  1.00  0.00    -0.344 N 
HETATM    3  N2  UNK     1      28.047  -7.346  38.492  1.00  0.00    -0.355 N 
HETATM    4  C1  UNK     1      30.427  -7.092  37.949  1.00  0.00     0.146 C 
HETATM    5  C2  UNK     1      29.163  -5.188  38.877  1.00  0.00     0.146 C 
HETATM    6  C3  UNK     1      29.124  -7.814  37.623  1.00  0.00     0.145 C 
HETATM    7  C4  UNK     1      27.850  -5.902  38.566  1.00  0.00     0.145 C 
HETATM    8  C5  UNK     1      30.985  -4.689  37.261  1.00  0.00     0.262 C 
ENDROOT
BRANCH   3   9
HETATM    9  C6  UNK     1      27.219  -8.210  39.128  1.00  0.00     0.174 C 
HETATM   10  S2  UNK     1      27.829  -9.632  39.775  1.00  0.00    -0.041 SA
BRANCH   9  11
HETATM   11  N3  UNK     1      25.863  -7.933  39.185  1.00  0.00    -0.333 N 
HETATM   12  H9  UNK     1      25.600  -7.294  39.931  1.00  0.00     0.168 HD
BRANCH  11  13
HETATM   13  C10 UNK     1      24.794  -8.355  38.396  1.00  0.00     0.036 A 
HETATM   14  C12 UNK     1      23.501  -7.933  38.686  1.00  0.00     0.067 A 
HETATM   15  C15 UNK     1      22.446  -8.367  37.882  1.00  0.00     0.092 A 
HETATM   16  C13 UNK     1      22.640  -9.215  36.791  1.00  0.00     0.004 A 
HETATM   17  O2  UNK     1      21.160  -7.904  38.226  1.00  0.00    -0.275 OA
HETATM   18  C18 UNK     1      23.950  -9.631  36.514  1.00  0.00     0.017 A 
HETATM   19  C20 UNK     1      21.471  -9.622  35.999  1.00  0.00    -0.043 A 
HETATM   20  C14 UNK     1      25.018  -9.203  37.312  1.00  0.00     0.030 A 
HETATM   21  C22 UNK     1      20.259  -9.167  36.349  1.00  0.00     0.090 A 
HETATM   22  C23 UNK     1      21.646 -10.533  34.820  1.00  0.00     0.049 C 
HETATM   23  C24 UNK     1      20.039  -8.271  37.497  1.00  0.00     0.288 A 
HETATM   24  O3  UNK     1      18.916  -7.875  37.787  1.00  0.00    -0.260 OA
ENDBRANCH  11  13
ENDBRANCH   9  11
ENDBRANCH   3   9
BRANCH   8  25
HETATM   25  C7  UNK     1      32.086  -5.191  36.446  1.00  0.00     0.096 A 
HETATM   26  S1  UNK     1      31.858  -5.303  34.763  1.00  0.00    -0.082 SA
HETATM   27  C11 UNK     1      33.449  -5.918  34.517  1.00  0.00     0.020 A 
HETATM   28  C9  UNK     1      34.143  -6.035  35.726  1.00  0.00     0.004 A 
HETATM   29  C17 UNK     1      34.041  -6.279  33.290  1.00  0.00     0.055 A 
HETATM   30  C16 UNK     1      35.470  -6.529  35.691  1.00  0.00     0.017 A 
HETATM   31  C8  UNK     1      33.334  -5.608  36.832  1.00  0.00     0.068 A 
HETATM   32  C21 UNK     1      36.059  -6.887  34.476  1.00  0.00     0.037 A 
HETATM   33  C19 UNK     1      35.351  -6.762  33.289  1.00  0.00     0.104 A 
HETATM   34 Cl1  UNK     1      33.891  -5.623  38.457  1.00  0.00    -0.082 Cl
BRANCH  33  35
HETATM   35  N4  UNK     1      35.962  -7.130  32.061  1.00  0.00    -0.116 N 
HETATM   36  O4  UNK     1      36.560  -8.230  31.985  1.00  0.00    -0.532 OA
HETATM   37  O5  UNK     1      35.886  -6.345  31.085  1.00  0.00    -0.532 OA
ENDBRANCH  33  35
ENDBRANCH   8  25
TORSDOF 5
ENDMDL
MODEL 7
REMARK VINA RESULT:      -9.3     17.653     19.850
REMARK  5 active torsions:
REMARK  status: ('A' for Active; 'I' for Inactive)
REMARK       I    between atoms: C5_17  and  N1_9 
REMARK    1  A    between atoms: C6_18  and  N2_10 
REMARK    2  A    between atoms: C10_22  and  N3_11 
REMARK    3  A    between atoms: C6_18  and  N3_11 
REMARK    4  A    between atoms: C19_31  and  N4_12 
REMARK    5  A    between atoms: C5_17  and  C7_19 
ROOT
HETATM    1  O1  UNK     1      16.731   7.757  35.793  1.00  0.00    -0.267 OA
HETATM    2  N1  UNK     1      17.442   7.567  33.599  1.00  0.00    -0.344 N 
HETATM    3  N2  UNK     1      18.152   5.694  31.622  1.00  0.00    -0.355 N 
HETATM    4  C1  UNK     1      17.433   7.973  32.184  1.00  0.00     0.146 C 
HETATM    5  C2  UNK     1      18.427   6.529  33.920  1.00  0.00     0.146 C 
HETATM    6  C3  UNK     1      17.213   6.761  31.285  1.00  0.00     0.145 C 
HETATM    7  C4  UNK     1      18.223   5.307  33.028  1.00  0.00     0.145 C 
HETATM    8  C5  UNK     1      16.675   8.146  34.625  1.00  0.00     0.262 C 
ENDROOT
BRANCH   3   9
HETATM    9  C6  UNK     1      18.858   5.040  30.668  1.00  0.00     0.174 C 
HETATM   10  S2  UNK     1      20.230   5.745  30.009  1.00  0.00    -0.041 SA
BRANCH   9  11
HETATM   11  N3  UNK     1      18.402   3.816  30.207  1.00  0.00    -0.333 N 
HETATM   12  H9  UNK     1      17.676   3.882  29.497  1.00  0.00     0.168 HD
BRANCH  11  13
HETATM   13  C10 UNK     1      18.769   2.509  30.523  1.00  0.00     0.036 A 
HETATM   14  C12 UNK     1      18.558   2.013  31.805  1.00  0.00     0.067 A 
HETATM   15  C15 UNK     1      18.932   0.701  32.099  1.00  0.00     0.092 A 
HETATM   16  C13 UNK     1      19.513  -0.139  31.149  1.00  0.00     0.004 A 
HETATM   17  O2  UNK     1      18.691   0.257  33.415  1.00  0.00    -0.275 OA
HETATM   18  C18 UNK     1      19.718   0.377  29.862  1.00  0.00     0.017 A 
HETATM   19  C20 UNK     1      19.875  -1.507  31.547  1.00  0.00    -0.043 A 
HETATM   20  C14 UNK     1      19.349   1.692  29.553  1.00  0.00     0.030 A 
HETATM   21  C22 UNK     1      19.635  -1.902  32.805  1.00  0.00     0.090 A 
HETATM   22  C23 UNK     1      20.503  -2.435  30.548  1.00  0.00     0.049 C 
HETATM   23  C24 UNK     1      19.022  -1.028  33.819  1.00  0.00     0.288 A 
HETATM   24  O3  UNK     1      18.818  -1.424  34.960  1.00  0.00    -0.260 OA
ENDBRANCH  11  13
ENDBRANCH   9  11
ENDBRANCH   3   9
BRANCH   8  25
HETATM   25  C7  UNK     1      15.788   9.244  34.258  1.00  0.00     0.096 A 
HETATM   26  S1  UNK     1      16.329  10.838  34.510  1.00  0.00    -0.082 SA
HETATM   27  C11 UNK     1      14.867  11.509  33.891  1.00  0.00     0.020 A 
HETATM   28  C9  UNK     1      13.974  10.506  33.497  1.00  0.00     0.004 A 
HETATM   29  C17 UNK     1      14.543  12.874  33.768  1.00  0.00     0.055 A 
HETATM   30  C16 UNK     1      12.721  10.898  32.966  1.00  0.00     0.017 A 
HETATM   31  C8  UNK     1      14.528   9.201  33.719  1.00  0.00     0.068 A 
HETATM   32  C21 UNK     1      12.397  12.251  32.842  1.00  0.00     0.037 A 
HETATM   33  C19 UNK     1      13.300  13.228  33.240  1.00  0.00     0.104 A 
HETATM   34 Cl1  UNK     1      13.685   7.752  33.340  1.00  0.00    -0.082 Cl
BRANCH  33  35
HETATM   35  N4  UNK     1      12.958  14.600  33.109  1.00  0.00    -0.116 N 
HETATM   36  O4  UNK     1      11.885  14.907  32.535  1.00  0.00    -0.532 OA
HETATM   37  O5  UNK     1      13.736  15.467  33.572  1.00  0.00    -0.532 OA
ENDBRANCH  33  35
ENDBRANCH   8  25
TORSDOF 5
ENDMDL
MODEL 8
REMARK VINA RESULT:      -9.2      4.049      9.673
REMARK  5 active torsions:
REMARK  status: ('A' for Active; 'I' for Inactive)
REMARK       I    between atoms: C5_17  and  N1_9 
REMARK    1  A    between atoms: C6_18  and  N2_10 
REMARK    2  A    between atoms: C10_22  and  N3_11 
REMARK    3  A    between atoms: C6_18  and  N3_11 
REMARK    4  A    between atoms: C19_31  and  N4_12 
REMARK    5  A    between atoms: C5_17  and  C7_19 
ROOT
HETATM    1  O1  UNK     1      33.318  -5.098  38.373  1.00  0.00    -0.267 OA
HETATM    2  N1  UNK     1      33.195  -6.096  36.289  1.00  0.00    -0.344 N 
HETATM    3  N2  UNK     1      34.672  -7.615  34.436  1.00  0.00    -0.355 N 
HETATM    4  C1  UNK     1      32.484  -6.844  35.239  1.00  0.00     0.146 C 
HETATM    5  C2  UNK     1      34.536  -5.643  35.900  1.00  0.00     0.146 C 
HETATM    6  C3  UNK     1      33.316  -8.036  34.780  1.00  0.00     0.145 C 
HETATM    7  C4  UNK     1      35.383  -6.825  35.436  1.00  0.00     0.145 C 
HETATM    8  C5  UNK     1      32.666  -5.726  37.537  1.00  0.00     0.262 C 
ENDROOT
BRANCH   3   9
HETATM    9  C6  UNK     1      35.268  -8.009  33.284  1.00  0.00     0.174 C 
HETATM   10  S2  UNK     1      36.596  -9.032  33.335  1.00  0.00    -0.041 SA
BRANCH   9  11
HETATM   11  N3  UNK     1      34.805  -7.512  32.077  1.00  0.00    -0.333 N 
HETATM   12  H9  UNK     1      35.387  -6.780  31.676  1.00  0.00     0.168 HD
BRANCH  11  13
HETATM   13  C10 UNK     1      33.697  -7.845  31.299  1.00  0.00     0.036 A 
HETATM   14  C12 UNK     1      32.513  -7.126  31.423  1.00  0.00     0.067 A 
HETATM   15  C15 UNK     1      31.416  -7.476  30.634  1.00  0.00     0.092 A 
HETATM   16  C13 UNK     1      31.462  -8.527  29.718  1.00  0.00     0.004 A 
HETATM   17  O2  UNK     1      30.246  -6.709  30.805  1.00  0.00    -0.275 OA
HETATM   18  C18 UNK     1      32.664  -9.240  29.606  1.00  0.00     0.017 A 
HETATM   19  C20 UNK     1      30.260  -8.825  28.927  1.00  0.00    -0.043 A 
HETATM   20  C14 UNK     1      33.772  -8.901  30.391  1.00  0.00     0.030 A 
HETATM   21  C22 UNK     1      29.161  -8.080  29.111  1.00  0.00     0.090 A 
HETATM   22  C23 UNK     1      30.277  -9.950  27.934  1.00  0.00     0.049 C 
HETATM   23  C24 UNK     1      29.097  -6.967  30.074  1.00  0.00     0.288 A 
HETATM   24  O3  UNK     1      28.074  -6.307  30.215  1.00  0.00    -0.260 OA
ENDBRANCH  11  13
ENDBRANCH   9  11
ENDBRANCH   3   9
BRANCH   8  25
HETATM   25  C7  UNK     1      31.291  -6.120  37.824  1.00  0.00     0.096 A 
HETATM   26  S1  UNK     1      30.072  -4.936  37.711  1.00  0.00    -0.082 SA
HETATM   27  C11 UNK     1      28.841  -6.060  38.151  1.00  0.00     0.020 A 
HETATM   28  C9  UNK     1      29.373  -7.333  38.382  1.00  0.00     0.004 A 
HETATM   29  C17 UNK     1      27.463  -5.803  38.281  1.00  0.00     0.055 A 
HETATM   30  C16 UNK     1      28.485  -8.372  38.754  1.00  0.00     0.017 A 
HETATM   31  C8  UNK     1      30.795  -7.345  38.187  1.00  0.00     0.068 A 
HETATM   32  C21 UNK     1      27.117  -8.119  38.883  1.00  0.00     0.037 A 
HETATM   33  C19 UNK     1      26.613  -6.848  38.649  1.00  0.00     0.104 A 
HETATM   34 Cl1  UNK     1      31.753  -8.757  38.389  1.00  0.00    -0.082 Cl
BRANCH  33  35
HETATM   35  N4  UNK     1      25.220  -6.605  38.785  1.00  0.00    -0.116 N 
HETATM   36  O4  UNK     1      24.818  -5.422  38.904  1.00  0.00    -0.532 OA
HETATM   37  O5  UNK     1      24.430  -7.579  38.780  1.00  0.00    -0.532 OA
ENDBRANCH  33  35
ENDBRANCH   8  25
TORSDOF 5
ENDMDL
MODEL 9
REMARK VINA RESULT:      -9.2     30.483     33.727
REMARK  5 active torsions:
REMARK  status: ('A' for Active; 'I' for Inactive)
REMARK       I    between atoms: C5_17  and  N1_9 
REMARK    1  A    between atoms: C6_18  and  N2_10 
REMARK    2  A    between atoms: C10_22  and  N3_11 
REMARK    3  A    between atoms: C6_18  and  N3_11 
REMARK    4  A    between atoms: C19_31  and  N4_12 
REMARK    5  A    between atoms: C5_17  and  C7_19 
ROOT
HETATM    1  O1  UNK     1      14.408  10.028  12.194  1.00  0.00    -0.267 OA
HETATM    2  N1  UNK     1      15.591  10.726  10.332  1.00  0.00    -0.344 N 
HETATM    3  N2  UNK     1      18.153  11.495   9.457  1.00  0.00    -0.355 N 
HETATM    4  C1  UNK     1      15.905  10.685   8.894  1.00  0.00     0.146 C 
HETATM    5  C2  UNK     1      16.321  11.757  11.077  1.00  0.00     0.146 C 
HETATM    6  C3  UNK     1      17.405  10.508   8.682  1.00  0.00     0.145 C 
HETATM    7  C4  UNK     1      17.825  11.596  10.875  1.00  0.00     0.145 C 
HETATM    8  C5  UNK     1      14.621   9.944  10.983  1.00  0.00     0.262 C 
ENDROOT
BRANCH   3   9
HETATM    9  C6  UNK     1      19.157  12.219   8.905  1.00  0.00     0.174 C 
HETATM   10  S2  UNK     1      18.806  13.584   7.997  1.00  0.00    -0.041 SA
BRANCH   9  11
HETATM   11  N3  UNK     1      20.465  11.787   9.054  1.00  0.00    -0.333 N 
HETATM   12  H9  UNK     1      20.765  11.119   8.347  1.00  0.00     0.168 HD
BRANCH  11  13
HETATM   13  C10 UNK     1      21.452  12.113   9.982  1.00  0.00     0.036 A 
HETATM   14  C12 UNK     1      21.185  12.033  11.345  1.00  0.00     0.067 A 
HETATM   15  C15 UNK     1      22.189  12.364  12.257  1.00  0.00     0.092 A 
HETATM   16  C13 UNK     1      23.459  12.774  11.851  1.00  0.00     0.004 A 
HETATM   17  O2  UNK     1      21.858  12.262  13.623  1.00  0.00    -0.275 OA
HETATM   18  C18 UNK     1      23.710  12.849  10.474  1.00  0.00     0.017 A 
HETATM   19  C20 UNK     1      24.455  13.102  12.880  1.00  0.00    -0.043 A 
HETATM   20  C14 UNK     1      22.713  12.521   9.547  1.00  0.00     0.030 A 
HETATM   21  C22 UNK     1      24.113  12.997  14.172  1.00  0.00     0.090 A 
HETATM   22  C23 UNK     1      25.830  13.547  12.476  1.00  0.00     0.049 C 
HETATM   23  C24 UNK     1      22.776  12.564  14.616  1.00  0.00     0.288 A 
HETATM   24  O3  UNK     1      22.499  12.480  15.807  1.00  0.00    -0.260 OA
ENDBRANCH  11  13
ENDBRANCH   9  11
ENDBRANCH   3   9
BRANCH   8  25
HETATM   25  C7  UNK     1      13.857   9.007  10.167  1.00  0.00     0.096 A 
HETATM   26  S1  UNK     1      12.256   9.413   9.756  1.00  0.00    -0.082 SA
HETATM   27  C11 UNK     1      12.039   7.952   8.867  1.00  0.00     0.020 A 
HETATM   28  C9  UNK     1      13.194   7.164   8.892  1.00  0.00     0.004 A 
HETATM   29  C17 UNK     1      10.880   7.539   8.181  1.00  0.00     0.055 A 
HETATM   30  C16 UNK     1      13.175   5.927   8.204  1.00  0.00     0.017 A 
HETATM   31  C8  UNK     1      14.236   7.795   9.651  1.00  0.00     0.068 A 
HETATM   32  C21 UNK     1      12.027   5.514   7.522  1.00  0.00     0.037 A 
HETATM   33  C19 UNK     1      10.892   6.314   7.512  1.00  0.00     0.104 A 
HETATM   34 Cl1  UNK     1      15.787   7.088   9.875  1.00  0.00    -0.082 Cl
BRANCH  33  35
HETATM   35  N4  UNK     1       9.732   5.883   6.816  1.00  0.00    -0.116 N 
HETATM   36  O4  UNK     1       9.738   5.892   5.561  1.00  0.00    -0.532 OA
HETATM   37  O5  UNK     1       8.734   5.504   7.473  1.00  0.00    -0.532 OA
ENDBRANCH  33  35
ENDBRANCH   8  25
TORSDOF 5
ENDMDL
MODEL 10
REMARK VINA RESULT:      -9.0      4.231      9.223
REMARK  5 active torsions:
REMARK  status: ('A' for Active; 'I' for Inactive)
REMARK       I    between atoms: C5_17  and  N1_9 
REMARK    1  A    between atoms: C6_18  and  N2_10 
REMARK    2  A    between atoms: C10_22  and  N3_11 
REMARK    3  A    between atoms: C6_18  and  N3_11 
REMARK    4  A    between atoms: C19_31  and  N4_12 
REMARK    5  A    between atoms: C5_17  and  C7_19 
ROOT
HETATM    1  O1  UNK     1      34.439  -6.770  37.923  1.00  0.00    -0.267 OA
HETATM    2  N1  UNK     1      33.708  -6.982  35.738  1.00  0.00    -0.344 N 
HETATM    3  N2  UNK     1      34.397  -8.068  33.235  1.00  0.00    -0.355 N 
HETATM    4  C1  UNK     1      32.658  -7.187  34.727  1.00  0.00     0.146 C 
HETATM    5  C2  UNK     1      35.034  -6.701  35.178  1.00  0.00     0.146 C 
HETATM    6  C3  UNK     1      33.056  -8.302  33.766  1.00  0.00     0.145 C 
HETATM    7  C4  UNK     1      35.449  -7.808  34.211  1.00  0.00     0.145 C 
HETATM    8  C5  UNK     1      33.513  -6.946  37.129  1.00  0.00     0.262 C 
ENDROOT
BRANCH   3   9
HETATM    9  C6  UNK     1      34.665  -8.171  31.910  1.00  0.00     0.174 C 
HETATM   10  S2  UNK     1      36.013  -9.024  31.392  1.00  0.00    -0.041 SA
BRANCH   9  11
HETATM   11  N3  UNK     1      33.849  -7.520  31.000  1.00  0.00    -0.333 N 
HETATM   12  H9  UNK     1      34.338  -6.860  30.399  1.00  0.00     0.168 HD
BRANCH  11  13
HETATM   13  C10 UNK     1      32.481  -7.614  30.744  1.00  0.00     0.036 A 
HETATM   14  C12 UNK     1      31.973  -8.710  30.054  1.00  0.00     0.067 A 
HETATM   15  C15 UNK     1      30.601  -8.784  29.809  1.00  0.00     0.092 A 
HETATM   16  C13 UNK     1      29.713  -7.795  30.232  1.00  0.00     0.004 A 
HETATM   17  O2  UNK     1      30.147  -9.918  29.106  1.00  0.00    -0.275 OA
HETATM   18  C18 UNK     1      30.244  -6.698  30.926  1.00  0.00     0.017 A 
HETATM   19  C20 UNK     1      28.284  -7.956  29.931  1.00  0.00    -0.043 A 
HETATM   20  C14 UNK     1      31.618  -6.610  31.179  1.00  0.00     0.030 A 
HETATM   21  C22 UNK     1      27.880  -9.044  29.261  1.00  0.00     0.090 A 
HETATM   22  C23 UNK     1      27.304  -6.909  30.373  1.00  0.00     0.049 C 
HETATM   23  C24 UNK     1      28.805 -10.097  28.808  1.00  0.00     0.288 A 
HETATM   24  O3  UNK     1      28.399 -11.080  28.197  1.00  0.00    -0.260 OA
ENDBRANCH  11  13
ENDBRANCH   9  11
ENDBRANCH   3   9
BRANCH   8  25
HETATM   25  C7  UNK     1      32.152  -7.132  37.619  1.00  0.00     0.096 A 
HETATM   26  S1  UNK     1      31.556  -8.719  37.765  1.00  0.00    -0.082 SA
HETATM   27  C11 UNK     1      30.031  -8.169  38.351  1.00  0.00     0.020 A 
HETATM   28  C9  UNK     1      29.989  -6.773  38.429  1.00  0.00     0.004 A 
HETATM   29  C17 UNK     1      28.926  -8.961  38.720  1.00  0.00     0.055 A 
HETATM   30  C16 UNK     1      28.798  -6.164  38.893  1.00  0.00     0.017 A 
HETATM   31  C8  UNK     1      31.229  -6.192  38.000  1.00  0.00     0.068 A 
HETATM   32  C21 UNK     1      27.700  -6.947  39.261  1.00  0.00     0.037 A 
HETATM   33  C19 UNK     1      27.766  -8.331  39.175  1.00  0.00     0.104 A 
HETATM   34 Cl1  UNK     1      31.507  -4.496  37.976  1.00  0.00    -0.082 Cl
BRANCH  33  35
HETATM   35  N4  UNK     1      26.643  -9.115  39.552  1.00  0.00    -0.116 N 
HETATM   36  O4  UNK     1      25.491  -8.667  39.341  1.00  0.00    -0.532 OA
HETATM   37  O5  UNK     1      26.835 -10.235  40.084  1.00  0.00    -0.532 OA
ENDBRANCH  33  35
ENDBRANCH   8  25
TORSDOF 5
ENDMDL
