MODEL 1
REMARK VINA RESULT:      -8.5      0.000      0.000
REMARK  5 active torsions:
REMARK  status: ('A' for Active; 'I' for Inactive)
REMARK    1  A    between atoms: C10_16  and  O2_2 
REMARK    2  A    between atoms: C4_10  and  O2_2 
REMARK    3  A    between atoms: C16_22  and  O3_3 
REMARK    4  A    between atoms: C7_13  and  O3_3 
REMARK    5  A    between atoms: C13_19  and  O5_5 
ROOT
HETATM    1  N1  UNK     1      22.026  -5.687  31.884  1.00  0.00    -0.195 NA
HETATM    2  C16 UNK     1      21.003  -3.271  31.917  1.00  0.00     0.299 C 
HETATM    3  C18 UNK     1      21.573  -4.618  31.898  1.00  0.00     0.085 C 
ENDROOT
BRANCH   2   4
HETATM    4  O3  UNK     1      20.801  -2.797  30.587  1.00  0.00    -0.337 OA
BRANCH   4   5
HETATM    5  C7  UNK     1      20.254  -1.557  30.449  1.00  0.00     0.072 A 
HETATM    6  C6  UNK     1      19.788  -0.872  31.571  1.00  0.00     0.075 A 
HETATM    7  C2  UNK     1      19.229   0.398  31.424  1.00  0.00     0.092 A 
HETATM    8  C1  UNK     1      19.137   0.980  30.158  1.00  0.00     0.051 A 
HETATM    9  O1  UNK     1      18.788   1.024  32.565  1.00  0.00    -0.319 OA
HETATM   10  C3  UNK     1      18.543   2.323  30.028  1.00  0.00     0.220 A 
HETATM   11  C5  UNK     1      19.604   0.295  29.033  1.00  0.00     0.021 A 
HETATM   12  O4  UNK     1      18.434   2.885  28.947  1.00  0.00    -0.284 OA
HETATM   13  C4  UNK     1      18.083   2.951  31.287  1.00  0.00     0.149 A 
HETATM   14  C9  UNK     1      18.235   2.274  32.429  1.00  0.00     0.184 A 
HETATM   15  C8  UNK     1      20.161  -0.975  29.183  1.00  0.00     0.038 A 
BRANCH  13  16
HETATM   16  O2  UNK     1      17.516   4.203  31.251  1.00  0.00    -0.305 OA
BRANCH  16  17
HETATM   17  C10 UNK     1      18.144   5.191  31.960  1.00  0.00     0.076 A 
HETATM   18  C12 UNK     1      19.445   5.556  31.631  1.00  0.00     0.040 A 
HETATM   19  C15 UNK     1      20.085   6.563  32.354  1.00  0.00     0.039 A 
HETATM   20  C13 UNK     1      19.421   7.199  33.403  1.00  0.00     0.068 A 
HETATM   21  C14 UNK     1      18.116   6.828  33.728  1.00  0.00     0.039 A 
HETATM   22  C11 UNK     1      17.476   5.822  33.006  1.00  0.00     0.040 A 
BRANCH  20  23
HETATM   23  O5  UNK     1      20.045   8.182  34.107  1.00  0.00    -0.356 OA
HETATM   24  C17 UNK     1      19.333   9.405  34.287  1.00  0.00     0.210 C 
ENDBRANCH  20  23
ENDBRANCH  16  17
ENDBRANCH  13  16
ENDBRANCH   4   5
ENDBRANCH   2   4
TORSDOF 5
ENDMDL
MODEL 2
REMARK VINA RESULT:      -7.5      5.586     10.564
REMARK  5 active torsions:
REMARK  status: ('A' for Active; 'I' for Inactive)
REMARK    1  A    between atoms: C10_16  and  O2_2 
REMARK    2  A    between atoms: C4_10  and  O2_2 
REMARK    3  A    between atoms: C16_22  and  O3_3 
REMARK    4  A    between atoms: C7_13  and  O3_3 
REMARK    5  A    between atoms: C13_19  and  O5_5 
ROOT
HETATM    1  N1  UNK     1      14.786  13.777  34.933  1.00  0.00    -0.195 NA
HETATM    2  C16 UNK     1      13.101  12.401  33.467  1.00  0.00     0.299 C 
HETATM    3  C18 UNK     1      14.040  13.168  34.285  1.00  0.00     0.085 C 
ENDROOT
BRANCH   2   4
HETATM    4  O3  UNK     1      12.989  11.066  33.956  1.00  0.00    -0.337 OA
BRANCH   4   5
HETATM    5  C7  UNK     1      14.099  10.281  33.872  1.00  0.00     0.072 A 
HETATM    6  C6  UNK     1      14.520   9.800  32.631  1.00  0.00     0.075 A 
HETATM    7  C2  UNK     1      15.658   8.997  32.550  1.00  0.00     0.092 A 
HETATM    8  C1  UNK     1      16.372   8.677  33.706  1.00  0.00     0.051 A 
HETATM    9  O1  UNK     1      16.024   8.553  31.302  1.00  0.00    -0.319 OA
HETATM   10  C3  UNK     1      17.572   7.826  33.594  1.00  0.00     0.220 A 
HETATM   11  C5  UNK     1      15.953   9.158  34.949  1.00  0.00     0.021 A 
HETATM   12  O4  UNK     1      18.238   7.510  34.570  1.00  0.00    -0.284 OA
HETATM   13  C4  UNK     1      17.920   7.375  32.229  1.00  0.00     0.149 A 
HETATM   14  C9  UNK     1      17.142   7.761  31.213  1.00  0.00     0.184 A 
HETATM   15  C8  UNK     1      14.813   9.960  35.027  1.00  0.00     0.038 A 
BRANCH  13  16
HETATM   16  O2  UNK     1      19.024   6.578  32.040  1.00  0.00    -0.305 OA
BRANCH  16  17
HETATM   17  C10 UNK     1      18.807   5.322  31.542  1.00  0.00     0.076 A 
HETATM   18  C12 UNK     1      18.219   4.352  32.347  1.00  0.00     0.040 A 
HETATM   19  C15 UNK     1      17.997   3.072  31.838  1.00  0.00     0.039 A 
HETATM   20  C13 UNK     1      18.367   2.768  30.529  1.00  0.00     0.068 A 
HETATM   21  C14 UNK     1      18.957   3.745  29.726  1.00  0.00     0.039 A 
HETATM   22  C11 UNK     1      19.179   5.025  30.233  1.00  0.00     0.040 A 
BRANCH  20  23
HETATM   23  O5  UNK     1      18.150   1.520  30.033  1.00  0.00    -0.356 OA
HETATM   24  C17 UNK     1      17.917   1.408  28.629  1.00  0.00     0.210 C 
ENDBRANCH  20  23
ENDBRANCH  16  17
ENDBRANCH  13  16
ENDBRANCH   4   5
ENDBRANCH   2   4
TORSDOF 5
ENDMDL
MODEL 3
REMARK VINA RESULT:      -7.5     13.911     18.348
REMARK  5 active torsions:
REMARK  status: ('A' for Active; 'I' for Inactive)
REMARK    1  A    between atoms: C10_16  and  O2_2 
REMARK    2  A    between atoms: C4_10  and  O2_2 
REMARK    3  A    between atoms: C16_22  and  O3_3 
REMARK    4  A    between atoms: C7_13  and  O3_3 
REMARK    5  A    between atoms: C13_19  and  O5_5 
ROOT
HETATM    1  N1  UNK     1      25.726  -5.085  38.695  1.00  0.00    -0.195 NA
HETATM    2  C16 UNK     1      28.113  -6.174  38.716  1.00  0.00     0.299 C 
HETATM    3  C18 UNK     1      26.783  -5.566  38.705  1.00  0.00     0.085 C 
ENDROOT
BRANCH   2   4
HETATM    4  O3  UNK     1      29.083  -5.241  39.190  1.00  0.00    -0.337 OA
BRANCH   4   5
HETATM    5  C7  UNK     1      30.229  -5.118  38.465  1.00  0.00     0.072 A 
HETATM    6  C6  UNK     1      31.198  -6.120  38.519  1.00  0.00     0.075 A 
HETATM    7  C2  UNK     1      32.370  -5.991  37.773  1.00  0.00     0.092 A 
HETATM    8  C1  UNK     1      32.572  -4.862  36.977  1.00  0.00     0.051 A 
HETATM    9  O1  UNK     1      33.288  -7.010  37.866  1.00  0.00    -0.319 OA
HETATM   10  C3  UNK     1      33.820  -4.748  36.199  1.00  0.00     0.220 A 
HETATM   11  C5  UNK     1      31.603  -3.857  36.922  1.00  0.00     0.021 A 
HETATM   12  O4  UNK     1      34.055  -3.783  35.485  1.00  0.00    -0.284 OA
HETATM   13  C4  UNK     1      34.773  -5.871  36.337  1.00  0.00     0.149 A 
HETATM   14  C9  UNK     1      34.445  -6.889  37.137  1.00  0.00     0.184 A 
HETATM   15  C8  UNK     1      30.432  -3.989  37.669  1.00  0.00     0.038 A 
BRANCH  13  16
HETATM   16  O2  UNK     1      35.961  -5.840  35.644  1.00  0.00    -0.305 OA
BRANCH  16  17
HETATM   17  C10 UNK     1      36.048  -6.622  34.524  1.00  0.00     0.076 A 
HETATM   18  C12 UNK     1      35.256  -6.334  33.417  1.00  0.00     0.040 A 
HETATM   19  C15 UNK     1      35.346  -7.132  32.276  1.00  0.00     0.039 A 
HETATM   20  C13 UNK     1      36.225  -8.213  32.248  1.00  0.00     0.068 A 
HETATM   21  C14 UNK     1      37.017  -8.498  33.361  1.00  0.00     0.039 A 
HETATM   22  C11 UNK     1      36.928  -7.701  34.503  1.00  0.00     0.040 A 
BRANCH  20  23
HETATM   23  O5  UNK     1      36.313  -8.990  31.134  1.00  0.00    -0.356 OA
HETATM   24  C17 UNK     1      36.318 -10.404  31.326  1.00  0.00     0.210 C 
ENDBRANCH  20  23
ENDBRANCH  16  17
ENDBRANCH  13  16
ENDBRANCH   4   5
ENDBRANCH   2   4
TORSDOF 5
ENDMDL
MODEL 4
REMARK VINA RESULT:      -7.4      5.287     10.154
REMARK  5 active torsions:
REMARK  status: ('A' for Active; 'I' for Inactive)
REMARK    1  A    between atoms: C10_16  and  O2_2 
REMARK    2  A    between atoms: C4_10  and  O2_2 
REMARK    3  A    between atoms: C16_22  and  O3_3 
REMARK    4  A    between atoms: C7_13  and  O3_3 
REMARK    5  A    between atoms: C13_19  and  O5_5 
ROOT
HETATM    1  N1  UNK     1      14.901  13.532  34.124  1.00  0.00    -0.195 NA
HETATM    2  C16 UNK     1      14.290  11.773  35.973  1.00  0.00     0.299 C 
HETATM    3  C18 UNK     1      14.631  12.753  34.942  1.00  0.00     0.085 C 
ENDROOT
BRANCH   2   4
HETATM    4  O3  UNK     1      13.787  10.578  35.378  1.00  0.00    -0.337 OA
BRANCH   4   5
HETATM    5  C7  UNK     1      14.630   9.894  34.556  1.00  0.00     0.072 A 
HETATM    6  C6  UNK     1      15.817   9.363  35.061  1.00  0.00     0.075 A 
HETATM    7  C2  UNK     1      16.677   8.662  34.215  1.00  0.00     0.092 A 
HETATM    8  C1  UNK     1      16.349   8.492  32.868  1.00  0.00     0.051 A 
HETATM    9  O1  UNK     1      17.832   8.162  34.769  1.00  0.00    -0.319 OA
HETATM   10  C3  UNK     1      17.274   7.747  31.994  1.00  0.00     0.220 A 
HETATM   11  C5  UNK     1      15.160   9.022  32.361  1.00  0.00     0.021 A 
HETATM   12  O4  UNK     1      17.043   7.566  30.806  1.00  0.00    -0.284 OA
HETATM   13  C4  UNK     1      18.502   7.233  32.640  1.00  0.00     0.149 A 
HETATM   14  C9  UNK     1      18.684   7.472  33.942  1.00  0.00     0.184 A 
HETATM   15  C8  UNK     1      14.303   9.724  33.209  1.00  0.00     0.038 A 
BRANCH  13  16
HETATM   16  O2  UNK     1      19.416   6.528  31.893  1.00  0.00    -0.305 OA
BRANCH  16  17
HETATM   17  C10 UNK     1      19.032   5.295  31.442  1.00  0.00     0.076 A 
HETATM   18  C12 UNK     1      19.199   4.968  30.100  1.00  0.00     0.040 A 
HETATM   19  C15 UNK     1      18.808   3.710  29.641  1.00  0.00     0.039 A 
HETATM   20  C13 UNK     1      18.250   2.786  30.524  1.00  0.00     0.068 A 
HETATM   21  C14 UNK     1      18.085   3.120  31.869  1.00  0.00     0.039 A 
HETATM   22  C11 UNK     1      18.476   4.377  32.329  1.00  0.00     0.040 A 
BRANCH  20  23
HETATM   23  O5  UNK     1      17.869   1.560  30.075  1.00  0.00    -0.356 OA
HETATM   24  C17 UNK     1      17.953   1.326  28.670  1.00  0.00     0.210 C 
ENDBRANCH  20  23
ENDBRANCH  16  17
ENDBRANCH  13  16
ENDBRANCH   4   5
ENDBRANCH   2   4
TORSDOF 5
ENDMDL
MODEL 5
REMARK VINA RESULT:      -7.3     22.608     24.832
REMARK  5 active torsions:
REMARK  status: ('A' for Active; 'I' for Inactive)
REMARK    1  A    between atoms: C10_16  and  O2_2 
REMARK    2  A    between atoms: C4_10  and  O2_2 
REMARK    3  A    between atoms: C16_22  and  O3_3 
REMARK    4  A    between atoms: C7_13  and  O3_3 
REMARK    5  A    between atoms: C13_19  and  O5_5 
ROOT
HETATM    1  N1  UNK     1      15.976   7.111  10.337  1.00  0.00    -0.195 NA
HETATM    2  C16 UNK     1      14.693   5.551   8.663  1.00  0.00     0.299 C 
HETATM    3  C18 UNK     1      15.408   6.421   9.595  1.00  0.00     0.085 C 
ENDROOT
BRANCH   2   4
HETATM    4  O3  UNK     1      13.903   6.327   7.763  1.00  0.00    -0.337 OA
BRANCH   4   5
HETATM    5  C7  UNK     1      12.551   6.252   7.904  1.00  0.00     0.072 A 
HETATM    6  C6  UNK     1      11.996   5.401   8.860  1.00  0.00     0.075 A 
HETATM    7  C2  UNK     1      10.610   5.328   9.001  1.00  0.00     0.092 A 
HETATM    8  C1  UNK     1       9.782   6.105   8.188  1.00  0.00     0.051 A 
HETATM    9  O1  UNK     1      10.121   4.472   9.959  1.00  0.00    -0.319 OA
HETATM   10  C3  UNK     1       8.320   6.011   8.356  1.00  0.00     0.220 A 
HETATM   11  C5  UNK     1      10.336   6.959   7.231  1.00  0.00     0.021 A 
HETATM   12  O4  UNK     1       7.543   6.665   7.674  1.00  0.00    -0.284 OA
HETATM   13  C4  UNK     1       7.848   5.074   9.400  1.00  0.00     0.149 A 
HETATM   14  C9  UNK     1       8.758   4.393  10.103  1.00  0.00     0.184 A 
HETATM   15  C8  UNK     1      11.722   7.029   7.091  1.00  0.00     0.038 A 
BRANCH  13  16
HETATM   16  O2  UNK     1       6.498   4.927   9.618  1.00  0.00    -0.305 OA
BRANCH  16  17
HETATM   17  C10 UNK     1       6.121   4.215  10.724  1.00  0.00     0.076 A 
HETATM   18  C12 UNK     1       5.720   2.890  10.589  1.00  0.00     0.040 A 
HETATM   19  C15 UNK     1       5.336   2.165  11.716  1.00  0.00     0.039 A 
HETATM   20  C13 UNK     1       5.353   2.768  12.974  1.00  0.00     0.068 A 
HETATM   21  C14 UNK     1       5.756   4.097  13.104  1.00  0.00     0.039 A 
HETATM   22  C11 UNK     1       6.140   4.823  11.977  1.00  0.00     0.040 A 
BRANCH  20  23
HETATM   23  O5  UNK     1       4.979   2.059  14.073  1.00  0.00    -0.356 OA
HETATM   24  C17 UNK     1       5.667   2.339  15.292  1.00  0.00     0.210 C 
ENDBRANCH  20  23
ENDBRANCH  16  17
ENDBRANCH  13  16
ENDBRANCH   4   5
ENDBRANCH   2   4
TORSDOF 5
ENDMDL
MODEL 6
REMARK VINA RESULT:      -7.3     22.800     25.075
REMARK  5 active torsions:
REMARK  status: ('A' for Active; 'I' for Inactive)
REMARK    1  A    between atoms: C10_16  and  O2_2 
REMARK    2  A    between atoms: C4_10  and  O2_2 
REMARK    3  A    between atoms: C16_22  and  O3_3 
REMARK    4  A    between atoms: C7_13  and  O3_3 
REMARK    5  A    between atoms: C13_19  and  O5_5 
ROOT
HETATM    1  N1  UNK     1       6.066   3.559  15.645  1.00  0.00    -0.195 NA
HETATM    2  C16 UNK     1       4.199   4.498  14.059  1.00  0.00     0.299 C 
HETATM    3  C18 UNK     1       5.240   3.975  14.942  1.00  0.00     0.085 C 
ENDROOT
BRANCH   2   4
HETATM    4  O3  UNK     1       4.613   5.733  13.478  1.00  0.00    -0.337 OA
BRANCH   4   5
HETATM    5  C7  UNK     1       5.363   5.663  12.343  1.00  0.00     0.072 A 
HETATM    6  C6  UNK     1       6.245   6.695  12.026  1.00  0.00     0.075 A 
HETATM    7  C2  UNK     1       7.012   6.618  10.863  1.00  0.00     0.092 A 
HETATM    8  C1  UNK     1       6.895   5.511  10.019  1.00  0.00     0.051 A 
HETATM    9  O1  UNK     1       7.864   7.665  10.603  1.00  0.00    -0.319 OA
HETATM   10  C3  UNK     1       7.715   5.452   8.796  1.00  0.00     0.220 A 
HETATM   11  C5  UNK     1       6.011   4.476  10.335  1.00  0.00     0.021 A 
HETATM   12  O4  UNK     1       7.657   4.510   8.017  1.00  0.00    -0.284 OA
HETATM   13  C4  UNK     1       8.614   6.605   8.564  1.00  0.00     0.149 A 
HETATM   14  C9  UNK     1       8.621   7.597   9.459  1.00  0.00     0.184 A 
HETATM   15  C8  UNK     1       5.245   4.557  11.499  1.00  0.00     0.038 A 
BRANCH  13  16
HETATM   16  O2  UNK     1       9.412   6.627   7.444  1.00  0.00    -0.305 OA
BRANCH  16  17
HETATM   17  C10 UNK     1      10.738   6.341   7.620  1.00  0.00     0.076 A 
HETATM   18  C12 UNK     1      11.702   7.114   6.981  1.00  0.00     0.040 A 
HETATM   19  C15 UNK     1      13.055   6.822   7.161  1.00  0.00     0.039 A 
HETATM   20  C13 UNK     1      13.436   5.758   7.977  1.00  0.00     0.068 A 
HETATM   21  C14 UNK     1      12.465   4.986   8.616  1.00  0.00     0.039 A 
HETATM   22  C11 UNK     1      11.113   5.277   8.436  1.00  0.00     0.040 A 
BRANCH  20  23
HETATM   23  O5  UNK     1      14.755   5.475   8.154  1.00  0.00    -0.356 OA
HETATM   24  C17 UNK     1      15.309   5.730   9.444  1.00  0.00     0.210 C 
ENDBRANCH  20  23
ENDBRANCH  16  17
ENDBRANCH  13  16
ENDBRANCH   4   5
ENDBRANCH   2   4
TORSDOF 5
ENDMDL
MODEL 7
REMARK VINA RESULT:      -7.3      4.229      7.250
REMARK  5 active torsions:
REMARK  status: ('A' for Active; 'I' for Inactive)
REMARK    1  A    between atoms: C10_16  and  O2_2 
REMARK    2  A    between atoms: C4_10  and  O2_2 
REMARK    3  A    between atoms: C16_22  and  O3_3 
REMARK    4  A    between atoms: C7_13  and  O3_3 
REMARK    5  A    between atoms: C13_19  and  O5_5 
ROOT
HETATM    1  N1  UNK     1      17.865   1.921  28.186  1.00  0.00    -0.195 NA
HETATM    2  C16 UNK     1      18.861   2.960  30.380  1.00  0.00     0.299 C 
HETATM    3  C18 UNK     1      18.305   2.381  29.157  1.00  0.00     0.085 C 
ENDROOT
BRANCH   2   4
HETATM    4  O3  UNK     1      19.279   4.304  30.150  1.00  0.00    -0.337 OA
BRANCH   4   5
HETATM    5  C7  UNK     1      18.988   5.217  31.118  1.00  0.00     0.072 A 
HETATM    6  C6  UNK     1      17.659   5.468  31.461  1.00  0.00     0.075 A 
HETATM    7  C2  UNK     1      17.365   6.403  32.454  1.00  0.00     0.092 A 
HETATM    8  C1  UNK     1      18.399   7.085  33.101  1.00  0.00     0.051 A 
HETATM    9  O1  UNK     1      16.039   6.609  32.749  1.00  0.00    -0.319 OA
HETATM   10  C3  UNK     1      18.063   8.069  34.147  1.00  0.00     0.220 A 
HETATM   11  C5  UNK     1      19.730   6.834  32.759  1.00  0.00     0.021 A 
HETATM   12  O4  UNK     1      18.923   8.698  34.748  1.00  0.00    -0.284 OA
HETATM   13  C4  UNK     1      16.621   8.252  34.424  1.00  0.00     0.149 A 
HETATM   14  C9  UNK     1      15.742   7.529  33.724  1.00  0.00     0.184 A 
HETATM   15  C8  UNK     1      20.020   5.899  31.765  1.00  0.00     0.038 A 
BRANCH  13  16
HETATM   16  O2  UNK     1      16.225   9.153  35.385  1.00  0.00    -0.305 OA
BRANCH  16  17
HETATM   17  C10 UNK     1      15.576  10.277  34.954  1.00  0.00     0.076 A 
HETATM   18  C12 UNK     1      14.206  10.406  35.160  1.00  0.00     0.040 A 
HETATM   19  C15 UNK     1      13.545  11.553  34.721  1.00  0.00     0.039 A 
HETATM   20  C13 UNK     1      14.256  12.565  34.076  1.00  0.00     0.068 A 
HETATM   21  C14 UNK     1      15.629  12.430  33.871  1.00  0.00     0.039 A 
HETATM   22  C11 UNK     1      16.291  11.284  34.310  1.00  0.00     0.040 A 
BRANCH  20  23
HETATM   23  O5  UNK     1      13.611  13.684  33.648  1.00  0.00    -0.356 OA
HETATM   24  C17 UNK     1      12.641  13.520  32.614  1.00  0.00     0.210 C 
ENDBRANCH  20  23
ENDBRANCH  16  17
ENDBRANCH  13  16
ENDBRANCH   4   5
ENDBRANCH   2   4
TORSDOF 5
ENDMDL
MODEL 8
REMARK VINA RESULT:      -7.2      6.831      9.828
REMARK  5 active torsions:
REMARK  status: ('A' for Active; 'I' for Inactive)
REMARK    1  A    between atoms: C10_16  and  O2_2 
REMARK    2  A    between atoms: C4_10  and  O2_2 
REMARK    3  A    between atoms: C16_22  and  O3_3 
REMARK    4  A    between atoms: C7_13  and  O3_3 
REMARK    5  A    between atoms: C13_19  and  O5_5 
ROOT
HETATM    1  N1  UNK     1      21.170 -11.068  36.723  1.00  0.00    -0.195 NA
HETATM    2  C16 UNK     1      19.402 -11.086  38.661  1.00  0.00     0.299 C 
HETATM    3  C18 UNK     1      20.387 -11.075  37.581  1.00  0.00     0.085 C 
ENDROOT
BRANCH   2   4
HETATM    4  O3  UNK     1      19.700 -10.072  39.619  1.00  0.00    -0.337 OA
BRANCH   4   5
HETATM    5  C7  UNK     1      20.096  -8.862  39.136  1.00  0.00     0.072 A 
HETATM    6  C6  UNK     1      19.248  -8.136  38.299  1.00  0.00     0.075 A 
HETATM    7  C2  UNK     1      19.657  -6.895  37.807  1.00  0.00     0.092 A 
HETATM    8  C1  UNK     1      20.910  -6.384  38.152  1.00  0.00     0.051 A 
HETATM    9  O1  UNK     1      18.780  -6.226  36.987  1.00  0.00    -0.319 OA
HETATM   10  C3  UNK     1      21.319  -5.072  37.619  1.00  0.00     0.220 A 
HETATM   11  C5  UNK     1      21.760  -7.110  38.990  1.00  0.00     0.021 A 
HETATM   12  O4  UNK     1      22.404  -4.572  37.884  1.00  0.00    -0.284 OA
HETATM   13  C4  UNK     1      20.339  -4.395  36.742  1.00  0.00     0.149 A 
HETATM   14  C9  UNK     1      19.176  -5.006  36.498  1.00  0.00     0.184 A 
HETATM   15  C8  UNK     1      21.348  -8.351  39.480  1.00  0.00     0.038 A 
BRANCH  13  16
HETATM   16  O2  UNK     1      20.645  -3.167  36.204  1.00  0.00    -0.305 OA
BRANCH  16  17
HETATM   17  C10 UNK     1      19.653  -2.225  36.200  1.00  0.00     0.076 A 
HETATM   18  C12 UNK     1      18.997  -1.908  37.385  1.00  0.00     0.040 A 
HETATM   19  C15 UNK     1      17.986  -0.947  37.380  1.00  0.00     0.039 A 
HETATM   20  C13 UNK     1      17.635  -0.309  36.191  1.00  0.00     0.068 A 
HETATM   21  C14 UNK     1      18.296  -0.631  35.005  1.00  0.00     0.039 A 
HETATM   22  C11 UNK     1      19.307  -1.591  35.009  1.00  0.00     0.040 A 
BRANCH  20  23
HETATM   23  O5  UNK     1      16.649   0.629  36.187  1.00  0.00    -0.356 OA
HETATM   24  C17 UNK     1      16.534   1.457  37.344  1.00  0.00     0.210 C 
ENDBRANCH  20  23
ENDBRANCH  16  17
ENDBRANCH  13  16
ENDBRANCH   4   5
ENDBRANCH   2   4
TORSDOF 5
ENDMDL
MODEL 9
REMARK VINA RESULT:      -7.1      2.723      4.718
REMARK  5 active torsions:
REMARK  status: ('A' for Active; 'I' for Inactive)
REMARK    1  A    between atoms: C10_16  and  O2_2 
REMARK    2  A    between atoms: C4_10  and  O2_2 
REMARK    3  A    between atoms: C16_22  and  O3_3 
REMARK    4  A    between atoms: C7_13  and  O3_3 
REMARK    5  A    between atoms: C13_19  and  O5_5 
ROOT
HETATM    1  N1  UNK     1      20.849  -0.201  29.635  1.00  0.00    -0.195 NA
HETATM    2  C16 UNK     1      18.578   0.569  28.570  1.00  0.00     0.299 C 
HETATM    3  C18 UNK     1      19.844   0.140  29.164  1.00  0.00     0.085 C 
ENDROOT
BRANCH   2   4
HETATM    4  O3  UNK     1      18.532   1.991  28.468  1.00  0.00    -0.337 OA
BRANCH   4   5
HETATM    5  C7  UNK     1      18.526   2.695  29.634  1.00  0.00     0.072 A 
HETATM    6  C6  UNK     1      18.993   4.009  29.657  1.00  0.00     0.075 A 
HETATM    7  C2  UNK     1      18.984   4.727  30.853  1.00  0.00     0.092 A 
HETATM    8  C1  UNK     1      18.509   4.130  32.023  1.00  0.00     0.051 A 
HETATM    9  O1  UNK     1      19.456   6.017  30.814  1.00  0.00    -0.319 OA
HETATM   10  C3  UNK     1      18.510   4.909  33.275  1.00  0.00     0.220 A 
HETATM   11  C5  UNK     1      18.040   2.815  32.002  1.00  0.00     0.021 A 
HETATM   12  O4  UNK     1      18.107   4.442  34.332  1.00  0.00    -0.284 OA
HETATM   13  C4  UNK     1      19.029   6.291  33.177  1.00  0.00     0.149 A 
HETATM   14  C9  UNK     1      19.452   6.729  31.988  1.00  0.00     0.184 A 
HETATM   15  C8  UNK     1      18.052   2.099  30.804  1.00  0.00     0.038 A 
BRANCH  13  16
HETATM   16  O2  UNK     1      19.064   7.083  34.301  1.00  0.00    -0.305 OA
BRANCH  16  17
HETATM   17  C10 UNK     1      18.205   8.148  34.339  1.00  0.00     0.076 A 
HETATM   18  C12 UNK     1      18.671   9.422  34.033  1.00  0.00     0.040 A 
HETATM   19  C15 UNK     1      17.795  10.507  34.071  1.00  0.00     0.039 A 
HETATM   20  C13 UNK     1      16.458  10.313  34.416  1.00  0.00     0.068 A 
HETATM   21  C14 UNK     1      15.996   9.032  34.722  1.00  0.00     0.039 A 
HETATM   22  C11 UNK     1      16.871   7.947  34.684  1.00  0.00     0.040 A 
BRANCH  20  23
HETATM   23  O5  UNK     1      15.604  11.371  34.452  1.00  0.00    -0.356 OA
HETATM   24  C17 UNK     1      15.914  12.427  35.360  1.00  0.00     0.210 C 
ENDBRANCH  20  23
ENDBRANCH  16  17
ENDBRANCH  13  16
ENDBRANCH   4   5
ENDBRANCH   2   4
TORSDOF 5
ENDMDL
MODEL 10
REMARK VINA RESULT:      -7.1     22.800     24.630
REMARK  5 active torsions:
REMARK  status: ('A' for Active; 'I' for Inactive)
REMARK    1  A    between atoms: C10_16  and  O2_2 
REMARK    2  A    between atoms: C4_10  and  O2_2 
REMARK    3  A    between atoms: C16_22  and  O3_3 
REMARK    4  A    between atoms: C7_13  and  O3_3 
REMARK    5  A    between atoms: C13_19  and  O5_5 
ROOT
HETATM    1  N1  UNK     1      16.365   7.171  10.611  1.00  0.00    -0.195 NA
HETATM    2  C16 UNK     1      15.303   5.066   9.460  1.00  0.00     0.299 C 
HETATM    3  C18 UNK     1      15.896   6.240  10.101  1.00  0.00     0.085 C 
ENDROOT
BRANCH   2   4
HETATM    4  O3  UNK     1      14.738   5.420   8.199  1.00  0.00    -0.337 OA
BRANCH   4   5
HETATM    5  C7  UNK     1      13.390   5.607   8.156  1.00  0.00     0.072 A 
HETATM    6  C6  UNK     1      12.565   4.949   9.068  1.00  0.00     0.075 A 
HETATM    7  C2  UNK     1      11.185   5.145   9.021  1.00  0.00     0.092 A 
HETATM    8  C1  UNK     1      10.632   5.997   8.062  1.00  0.00     0.051 A 
HETATM    9  O1  UNK     1      10.423   4.471   9.945  1.00  0.00    -0.319 OA
HETATM   10  C3  UNK     1       9.170   6.188   8.032  1.00  0.00     0.220 A 
HETATM   11  C5  UNK     1      11.456   6.657   7.148  1.00  0.00     0.021 A 
HETATM   12  O4  UNK     1       8.626   6.919   7.216  1.00  0.00    -0.284 OA
HETATM   13  C4  UNK     1       8.398   5.437   9.047  1.00  0.00     0.149 A 
HETATM   14  C9  UNK     1       9.064   4.657   9.904  1.00  0.00     0.184 A 
HETATM   15  C8  UNK     1      12.836   6.458   7.197  1.00  0.00     0.038 A 
BRANCH  13  16
HETATM   16  O2  UNK     1       7.029   5.561   9.085  1.00  0.00    -0.305 OA
BRANCH  16  17
HETATM   17  C10 UNK     1       6.485   6.108  10.215  1.00  0.00     0.076 A 
HETATM   18  C12 UNK     1       6.821   7.406  10.585  1.00  0.00     0.040 A 
HETATM   19  C15 UNK     1       6.265   7.963  11.737  1.00  0.00     0.039 A 
HETATM   20  C13 UNK     1       5.378   7.220  12.514  1.00  0.00     0.068 A 
HETATM   21  C14 UNK     1       5.044   5.918  12.138  1.00  0.00     0.039 A 
HETATM   22  C11 UNK     1       5.599   5.360  10.987  1.00  0.00     0.040 A 
BRANCH  20  23
HETATM   23  O5  UNK     1       4.836   7.764  13.637  1.00  0.00    -0.356 OA
HETATM   24  C17 UNK     1       5.574   8.804  14.277  1.00  0.00     0.210 C 
ENDBRANCH  20  23
ENDBRANCH  16  17
ENDBRANCH  13  16
ENDBRANCH   4   5
ENDBRANCH   2   4
TORSDOF 5
ENDMDL
