MODEL 1
REMARK VINA RESULT:      -9.0      0.000      0.000
REMARK  4 active torsions:
REMARK  status: ('A' for Active; 'I' for Inactive)
REMARK    1  A    between atoms: C1_7  and  O1_1 
REMARK    2  A    between atoms: C17_23  and  O1_1 
REMARK    3  A    between atoms: C16_22  and  C4_10 
REMARK    4  A    between atoms: C10_16  and  C17_23 
ROOT
HETATM    1  O2  UNK     1      31.323  -5.421  36.452  1.00  0.00    -0.293 OA
HETATM    2  N1  UNK     1      34.021  -8.843  34.590  1.00  0.00    -0.362 N 
HETATM    3  C4  UNK     1      31.371  -7.922  35.017  1.00  0.00     0.104 C 
HETATM    4  C8  UNK     1      32.607  -7.196  35.536  1.00  0.00     0.024 C 
HETATM    5  C9  UNK     1      33.848  -7.685  35.321  1.00  0.00     0.020 C 
HETATM    6  C10 UNK     1      31.718  -9.101  34.105  1.00  0.00     0.052 C 
HETATM    7  C11 UNK     1      35.102  -7.003  35.803  1.00  0.00     0.058 C 
HETATM    8  C12 UNK     1      34.891  -5.517  36.067  1.00  0.00     0.014 C 
HETATM    9  C13 UNK     1      33.660  -5.287  36.925  1.00  0.00     0.084 C 
HETATM   10  C14 UNK     1      32.994  -9.523  33.953  1.00  0.00     0.018 C 
HETATM   11  C15 UNK     1      32.437  -5.919  36.297  1.00  0.00     0.158 C 
HETATM   12  C18 UNK     1      33.430 -10.699  33.121  1.00  0.00     0.069 C 
HETATM   13  H19 UNK     1      34.967  -9.179  34.449  1.00  0.00     0.165 HD
ENDROOT
BRANCH   3  14
HETATM   14  C16 UNK     1      30.515  -8.392  36.162  1.00  0.00     0.029 A 
HETATM   15  C19 UNK     1      29.113  -7.908  36.244  1.00  0.00     0.194 A 
HETATM   16  C21 UNK     1      28.318  -8.398  37.385  1.00  0.00     0.049 A 
HETATM   17  O5  UNK     1      28.638  -7.146  35.411  1.00  0.00    -0.287 OA
HETATM   18  C22 UNK     1      28.911  -9.266  38.303  1.00  0.00     0.089 A 
HETATM   19  C23 UNK     1      26.989  -8.000  37.550  1.00  0.00     0.025 A 
HETATM   20  C24 UNK     1      28.177  -9.742  39.389  1.00  0.00     0.039 A 
HETATM   21  O3  UNK     1      30.212  -9.689  38.189  1.00  0.00    -0.321 OA
HETATM   22  C26 UNK     1      26.850  -9.346  39.557  1.00  0.00     0.009 A 
HETATM   23  C25 UNK     1      26.257  -8.477  38.639  1.00  0.00    -0.061 A 
HETATM   24  C27 UNK     1      24.838  -8.058  38.823  1.00  0.00     0.048 C 
HETATM   25  C20 UNK     1      30.940  -9.225  37.121  1.00  0.00     0.154 A 
ENDBRANCH   3  14
BRANCH   6  26
HETATM   26  C17 UNK     1      30.604  -9.713  33.363  1.00  0.00     0.292 C 
HETATM   27  O4  UNK     1      29.977 -10.673  33.770  1.00  0.00    -0.259 OA
BRANCH  26  28
HETATM   28  O1  UNK     1      30.433  -9.027  32.208  1.00  0.00    -0.312 OA
BRANCH  28  29
HETATM   29  C1  UNK     1      29.147  -8.439  32.040  1.00  0.00     0.132 C 
HETATM   30  C2  UNK     1      29.267  -6.917  32.111  1.00  0.00     0.032 C 
HETATM   31  C5  UNK     1      27.930  -6.236  31.840  1.00  0.00     0.002 C 
HETATM   32  C7  UNK     1      27.325  -6.693  30.515  1.00  0.00     0.000 C 
HETATM   33  C6  UNK     1      27.206  -8.214  30.441  1.00  0.00     0.002 C 
HETATM   34  C3  UNK     1      28.544  -8.895  30.713  1.00  0.00     0.032 C 
ENDBRANCH  28  29
ENDBRANCH  26  28
ENDBRANCH   6  26
TORSDOF 4
ENDMDL
MODEL 2
REMARK VINA RESULT:      -8.8      2.324      5.641
REMARK  4 active torsions:
REMARK  status: ('A' for Active; 'I' for Inactive)
REMARK    1  A    between atoms: C1_7  and  O1_1 
REMARK    2  A    between atoms: C17_23  and  O1_1 
REMARK    3  A    between atoms: C16_22  and  C4_10 
REMARK    4  A    between atoms: C10_16  and  C17_23 
ROOT
HETATM    1  O2  UNK     1      27.038 -10.058  36.004  1.00  0.00    -0.293 OA
HETATM    2  N1  UNK     1      29.789  -6.824  38.110  1.00  0.00    -0.362 N 
HETATM    3  C4  UNK     1      29.230  -8.209  35.697  1.00  0.00     0.104 C 
HETATM    4  C8  UNK     1      28.485  -8.462  37.003  1.00  0.00     0.024 C 
HETATM    5  C9  UNK     1      28.800  -7.788  38.130  1.00  0.00     0.020 C 
HETATM    6  C10 UNK     1      30.189  -7.020  35.785  1.00  0.00     0.052 C 
HETATM    7  C11 UNK     1      28.090  -7.992  39.443  1.00  0.00     0.058 C 
HETATM    8  C12 UNK     1      26.704  -8.598  39.266  1.00  0.00     0.014 C 
HETATM    9  C13 UNK     1      26.754  -9.817  38.363  1.00  0.00     0.084 C 
HETATM   10  C14 UNK     1      30.447  -6.407  36.963  1.00  0.00     0.018 C 
HETATM   11  C15 UNK     1      27.386  -9.477  37.031  1.00  0.00     0.158 C 
HETATM   12  C18 UNK     1      31.408  -5.266  37.161  1.00  0.00     0.069 C 
HETATM   13  H19 UNK     1      29.998  -6.339  38.976  1.00  0.00     0.165 HD
ENDROOT
BRANCH   3  14
HETATM   14  C16 UNK     1      29.979  -9.443  35.268  1.00  0.00     0.029 A 
HETATM   15  C19 UNK     1      29.644 -10.053  33.956  1.00  0.00     0.194 A 
HETATM   16  C21 UNK     1      30.406 -11.260  33.584  1.00  0.00     0.049 A 
HETATM   17  O5  UNK     1      28.787  -9.584  33.219  1.00  0.00    -0.287 OA
HETATM   18  C22 UNK     1      31.373 -11.751  34.463  1.00  0.00     0.089 A 
HETATM   19  C23 UNK     1      30.166 -11.908  32.371  1.00  0.00     0.025 A 
HETATM   20  C24 UNK     1      32.105 -12.890  34.132  1.00  0.00     0.039 A 
HETATM   21  O3  UNK     1      31.650 -11.154  35.668  1.00  0.00    -0.321 OA
HETATM   22  C26 UNK     1      31.867 -13.540  32.920  1.00  0.00     0.009 A 
HETATM   23  C25 UNK     1      30.899 -13.049  32.041  1.00  0.00    -0.061 A 
HETATM   24  C27 UNK     1      30.649 -13.748  30.747  1.00  0.00     0.048 C 
HETATM   25  C20 UNK     1      30.933 -10.031  36.000  1.00  0.00     0.154 A 
ENDBRANCH   3  14
BRANCH   6  26
HETATM   26  C17 UNK     1      30.770  -6.545  34.519  1.00  0.00     0.292 C 
HETATM   27  O4  UNK     1      31.902  -6.812  34.162  1.00  0.00    -0.259 OA
BRANCH  26  28
HETATM   28  O1  UNK     1      29.842  -5.797  33.877  1.00  0.00    -0.312 OA
BRANCH  28  29
HETATM   29  C1  UNK     1      29.299  -6.388  32.701  1.00  0.00     0.132 C 
HETATM   30  C2  UNK     1      27.781  -6.211  32.692  1.00  0.00     0.032 C 
HETATM   31  C5  UNK     1      27.162  -6.744  31.404  1.00  0.00     0.002 C 
HETATM   32  C7  UNK     1      27.810  -6.120  30.170  1.00  0.00     0.000 C 
HETATM   33  C6  UNK     1      29.327  -6.295  30.178  1.00  0.00     0.002 C 
HETATM   34  C3  UNK     1      29.946  -5.762  31.467  1.00  0.00     0.032 C 
ENDBRANCH  28  29
ENDBRANCH  26  28
ENDBRANCH   6  26
TORSDOF 4
ENDMDL
MODEL 3
REMARK VINA RESULT:      -8.7      2.216      5.935
REMARK  4 active torsions:
REMARK  status: ('A' for Active; 'I' for Inactive)
REMARK    1  A    between atoms: C1_7  and  O1_1 
REMARK    2  A    between atoms: C17_23  and  O1_1 
REMARK    3  A    between atoms: C16_22  and  C4_10 
REMARK    4  A    between atoms: C10_16  and  C17_23 
ROOT
HETATM    1  O2  UNK     1      34.057  -9.713  32.088  1.00  0.00    -0.293 OA
HETATM    2  N1  UNK     1      35.347  -7.256  35.930  1.00  0.00    -0.362 N 
HETATM    3  C4  UNK     1      33.209  -8.556  34.590  1.00  0.00     0.104 C 
HETATM    4  C8  UNK     1      34.618  -8.447  34.017  1.00  0.00     0.024 C 
HETATM    5  C9  UNK     1      35.598  -7.802  34.687  1.00  0.00     0.020 C 
HETATM    6  C10 UNK     1      33.115  -8.040  36.028  1.00  0.00     0.052 C 
HETATM    7  C11 UNK     1      37.008  -7.673  34.171  1.00  0.00     0.058 C 
HETATM    8  C12 UNK     1      37.349  -8.741  33.140  1.00  0.00     0.014 C 
HETATM    9  C13 UNK     1      36.275  -8.828  32.071  1.00  0.00     0.084 C 
HETATM   10  C14 UNK     1      34.151  -7.401  36.618  1.00  0.00     0.018 C 
HETATM   11  C15 UNK     1      34.915  -9.067  32.688  1.00  0.00     0.158 C 
HETATM   12  C18 UNK     1      34.140  -6.815  38.004  1.00  0.00     0.069 C 
HETATM   13  H19 UNK     1      36.107  -6.779  36.402  1.00  0.00     0.165 HD
ENDROOT
BRANCH   3  14
HETATM   14  C16 UNK     1      32.225  -7.826  33.716  1.00  0.00     0.029 A 
HETATM   15  C19 UNK     1      31.110  -8.597  33.110  1.00  0.00     0.194 A 
HETATM   16  C21 UNK     1      30.174  -7.834  32.262  1.00  0.00     0.049 A 
HETATM   17  O5  UNK     1      30.967  -9.797  33.302  1.00  0.00    -0.287 OA
HETATM   18  C22 UNK     1      30.384  -6.467  32.079  1.00  0.00     0.089 A 
HETATM   19  C23 UNK     1      29.092  -8.468  31.647  1.00  0.00     0.025 A 
HETATM   20  C24 UNK     1      29.513  -5.726  31.281  1.00  0.00     0.039 A 
HETATM   21  O3  UNK     1      31.430  -5.794  32.659  1.00  0.00    -0.321 OA
HETATM   22  C26 UNK     1      28.431  -6.357  30.665  1.00  0.00     0.009 A 
HETATM   23  C25 UNK     1      28.222  -7.725  30.848  1.00  0.00    -0.061 A 
HETATM   24  C27 UNK     1      27.063  -8.393  30.187  1.00  0.00     0.048 C 
HETATM   25  C20 UNK     1      32.292  -6.516  33.447  1.00  0.00     0.154 A 
ENDBRANCH   3  14
BRANCH   6  26
HETATM   26  C17 UNK     1      31.864  -8.324  36.751  1.00  0.00     0.292 C 
HETATM   27  O4  UNK     1      31.718  -9.285  37.481  1.00  0.00    -0.259 OA
BRANCH  26  28
HETATM   28  O1  UNK     1      30.969  -7.353  36.452  1.00  0.00    -0.312 OA
BRANCH  28  29
HETATM   29  C1  UNK     1      30.577  -6.535  37.550  1.00  0.00     0.132 C 
HETATM   30  C2  UNK     1      30.662  -5.063  37.148  1.00  0.00     0.032 C 
HETATM   31  C5  UNK     1      30.160  -4.148  38.260  1.00  0.00     0.002 C 
HETATM   32  C7  UNK     1      28.751  -4.531  38.709  1.00  0.00     0.000 C 
HETATM   33  C6  UNK     1      28.665  -6.002  39.110  1.00  0.00     0.002 C 
HETATM   34  C3  UNK     1      29.168  -6.917  37.997  1.00  0.00     0.032 C 
ENDBRANCH  28  29
ENDBRANCH  26  28
ENDBRANCH   6  26
TORSDOF 4
ENDMDL
MODEL 4
REMARK VINA RESULT:      -8.6      3.599      6.591
REMARK  4 active torsions:
REMARK  status: ('A' for Active; 'I' for Inactive)
REMARK    1  A    between atoms: C1_7  and  O1_1 
REMARK    2  A    between atoms: C17_23  and  O1_1 
REMARK    3  A    between atoms: C16_22  and  C4_10 
REMARK    4  A    between atoms: C10_16  and  C17_23 
ROOT
HETATM    1  O2  UNK     1      33.772 -11.674  31.663  1.00  0.00    -0.293 OA
HETATM    2  N1  UNK     1      29.582 -11.989  29.470  1.00  0.00    -0.362 N 
HETATM    3  C4  UNK     1      31.698 -10.261  30.240  1.00  0.00     0.104 C 
HETATM    4  C8  UNK     1      31.654 -11.745  30.590  1.00  0.00     0.024 C 
HETATM    5  C9  UNK     1      30.616 -12.522  30.214  1.00  0.00     0.020 C 
HETATM    6  C10 UNK     1      30.571  -9.845  29.294  1.00  0.00     0.052 C 
HETATM    7  C11 UNK     1      30.527 -13.994  30.525  1.00  0.00     0.058 C 
HETATM    8  C12 UNK     1      31.891 -14.610  30.811  1.00  0.00     0.014 C 
HETATM    9  C13 UNK     1      32.660 -13.781  31.824  1.00  0.00     0.084 C 
HETATM   10  C14 UNK     1      29.566 -10.694  28.975  1.00  0.00     0.018 C 
HETATM   11  C15 UNK     1      32.785 -12.345  31.364  1.00  0.00     0.158 C 
HETATM   12  C18 UNK     1      28.390 -10.363  28.096  1.00  0.00     0.069 C 
HETATM   13  H19 UNK     1      28.820 -12.603  29.206  1.00  0.00     0.165 HD
ENDROOT
BRANCH   3  14
HETATM   14  C16 UNK     1      31.657  -9.423  31.490  1.00  0.00     0.029 A 
HETATM   15  C19 UNK     1      32.704  -8.386  31.681  1.00  0.00     0.194 A 
HETATM   16  C21 UNK     1      32.618  -7.593  32.921  1.00  0.00     0.049 A 
HETATM   17  O5  UNK     1      33.588  -8.194  30.857  1.00  0.00    -0.287 OA
HETATM   18  C22 UNK     1      31.587  -7.854  33.825  1.00  0.00     0.089 A 
HETATM   19  C23 UNK     1      33.555  -6.594  33.194  1.00  0.00     0.025 A 
HETATM   20  C24 UNK     1      31.487  -7.116  35.004  1.00  0.00     0.039 A 
HETATM   21  O3  UNK     1      30.639  -8.823  33.607  1.00  0.00    -0.321 OA
HETATM   22  C26 UNK     1      32.422  -6.118  35.279  1.00  0.00     0.009 A 
HETATM   23  C25 UNK     1      33.454  -5.857  34.375  1.00  0.00    -0.061 A 
HETATM   24  C27 UNK     1      34.450  -4.788  34.674  1.00  0.00     0.048 C 
HETATM   25  C20 UNK     1      30.731  -9.553  32.448  1.00  0.00     0.154 A 
ENDBRANCH   3  14
BRANCH   6  26
HETATM   26  C17 UNK     1      30.665  -8.498  28.706  1.00  0.00     0.292 C 
HETATM   27  O4  UNK     1      31.612  -8.124  28.041  1.00  0.00    -0.259 OA
BRANCH  26  28
HETATM   28  O1  UNK     1      29.549  -7.808  29.040  1.00  0.00    -0.312 OA
BRANCH  28  29
HETATM   29  C1  UNK     1      29.505  -7.346  30.386  1.00  0.00     0.132 C 
HETATM   30  C2  UNK     1      30.020  -5.908  30.451  1.00  0.00     0.032 C 
HETATM   31  C5  UNK     1      29.904  -5.334  31.859  1.00  0.00     0.002 C 
HETATM   32  C7  UNK     1      28.478  -5.448  32.396  1.00  0.00     0.000 C 
HETATM   33  C6  UNK     1      27.962  -6.884  32.330  1.00  0.00     0.002 C 
HETATM   34  C3  UNK     1      28.079  -7.458  30.921  1.00  0.00     0.032 C 
ENDBRANCH  28  29
ENDBRANCH  26  28
ENDBRANCH   6  26
TORSDOF 4
ENDMDL
MODEL 5
REMARK VINA RESULT:      -8.5      1.972      5.271
REMARK  4 active torsions:
REMARK  status: ('A' for Active; 'I' for Inactive)
REMARK    1  A    between atoms: C1_7  and  O1_1 
REMARK    2  A    between atoms: C17_23  and  O1_1 
REMARK    3  A    between atoms: C16_22  and  C4_10 
REMARK    4  A    between atoms: C10_16  and  C17_23 
ROOT
HETATM    1  O2  UNK     1      28.366  -9.465  32.366  1.00  0.00    -0.293 OA
HETATM    2  N1  UNK     1      32.272  -7.099  31.098  1.00  0.00    -0.362 N 
HETATM    3  C4  UNK     1      31.029  -8.654  33.121  1.00  0.00     0.104 C 
HETATM    4  C8  UNK     1      30.338  -8.260  31.819  1.00  0.00     0.024 C 
HETATM    5  C9  UNK     1      30.968  -7.504  30.894  1.00  0.00     0.020 C 
HETATM    6  C10 UNK     1      32.509  -8.266  33.145  1.00  0.00     0.052 C 
HETATM    7  C11 UNK     1      30.336  -7.096  29.589  1.00  0.00     0.058 C 
HETATM    8  C12 UNK     1      29.187  -8.012  29.188  1.00  0.00     0.014 C 
HETATM    9  C13 UNK     1      28.220  -8.209  30.341  1.00  0.00     0.084 C 
HETATM   10  C14 UNK     1      33.053  -7.499  32.172  1.00  0.00     0.018 C 
HETATM   11  C15 UNK     1      28.938  -8.724  31.568  1.00  0.00     0.158 C 
HETATM   12  C18 UNK     1      34.480  -7.024  32.131  1.00  0.00     0.069 C 
HETATM   13  H19 UNK     1      32.711  -6.532  30.381  1.00  0.00     0.165 HD
ENDROOT
BRANCH   3  14
HETATM   14  C16 UNK     1      30.319  -8.046  34.301  1.00  0.00     0.029 A 
HETATM   15  C19 UNK     1      29.915  -8.936  35.419  1.00  0.00     0.194 A 
HETATM   16  C21 UNK     1      29.222  -8.291  36.550  1.00  0.00     0.049 A 
HETATM   17  O5  UNK     1      30.145 -10.139  35.410  1.00  0.00    -0.287 OA
HETATM   18  C22 UNK     1      28.988  -6.916  36.507  1.00  0.00     0.089 A 
HETATM   19  C23 UNK     1      28.802  -9.042  37.650  1.00  0.00     0.025 A 
HETATM   20  C24 UNK     1      28.334  -6.285  37.565  1.00  0.00     0.039 A 
HETATM   21  O3  UNK     1      29.379  -6.130  35.452  1.00  0.00    -0.321 OA
HETATM   22  C26 UNK     1      27.913  -7.033  38.665  1.00  0.00     0.009 A 
HETATM   23  C25 UNK     1      28.147  -8.409  38.707  1.00  0.00    -0.061 A 
HETATM   24  C27 UNK     1      27.696  -9.203  39.886  1.00  0.00     0.048 C 
HETATM   25  C20 UNK     1      30.024  -6.745  34.406  1.00  0.00     0.154 A 
ENDBRANCH   3  14
BRANCH   6  26
HETATM   26  C17 UNK     1      33.318  -8.813  34.246  1.00  0.00     0.292 C 
HETATM   27  O4  UNK     1      33.457 -10.005  34.445  1.00  0.00    -0.259 OA
BRANCH  26  28
HETATM   28  O1  UNK     1      33.842  -7.778  34.946  1.00  0.00    -0.312 OA
BRANCH  28  29
HETATM   29  C1  UNK     1      32.946  -7.155  35.861  1.00  0.00     0.132 C 
HETATM   30  C2  UNK     1      33.066  -7.821  37.230  1.00  0.00     0.032 C 
HETATM   31  C5  UNK     1      32.196  -7.126  38.272  1.00  0.00     0.002 C 
HETATM   32  C7  UNK     1      32.495  -5.629  38.343  1.00  0.00     0.000 C 
HETATM   33  C6  UNK     1      32.376  -4.962  36.975  1.00  0.00     0.002 C 
HETATM   34  C3  UNK     1      33.247  -5.659  35.933  1.00  0.00     0.032 C 
ENDBRANCH  28  29
ENDBRANCH  26  28
ENDBRANCH   6  26
TORSDOF 4
ENDMDL
MODEL 6
REMARK VINA RESULT:      -8.4      1.819      5.761
REMARK  4 active torsions:
REMARK  status: ('A' for Active; 'I' for Inactive)
REMARK    1  A    between atoms: C1_7  and  O1_1 
REMARK    2  A    between atoms: C17_23  and  O1_1 
REMARK    3  A    between atoms: C16_22  and  C4_10 
REMARK    4  A    between atoms: C10_16  and  C17_23 
ROOT
HETATM    1  O2  UNK     1      34.553  -8.847  32.149  1.00  0.00    -0.293 OA
HETATM    2  N1  UNK     1      34.154  -7.198  36.575  1.00  0.00    -0.362 N 
HETATM    3  C4  UNK     1      32.912  -8.708  34.517  1.00  0.00     0.104 C 
HETATM    4  C8  UNK     1      34.262  -8.017  34.355  1.00  0.00     0.024 C 
HETATM    5  C9  UNK     1      34.803  -7.295  35.360  1.00  0.00     0.020 C 
HETATM    6  C10 UNK     1      32.383  -8.640  35.951  1.00  0.00     0.052 C 
HETATM    7  C11 UNK     1      36.136  -6.601  35.256  1.00  0.00     0.058 C 
HETATM    8  C12 UNK     1      37.021  -7.201  34.171  1.00  0.00     0.014 C 
HETATM    9  C13 UNK     1      36.261  -7.339  32.864  1.00  0.00     0.084 C 
HETATM   10  C14 UNK     1      32.992  -7.885  36.894  1.00  0.00     0.018 C 
HETATM   11  C15 UNK     1      34.995  -8.144  33.057  1.00  0.00     0.158 C 
HETATM   12  C18 UNK     1      32.522  -7.714  38.313  1.00  0.00     0.069 C 
HETATM   13  H19 UNK     1      34.591  -6.647  37.305  1.00  0.00     0.165 HD
ENDROOT
BRANCH   3  14
HETATM   14  C16 UNK     1      31.902  -8.123  33.567  1.00  0.00     0.029 A 
HETATM   15  C19 UNK     1      31.168  -9.042  32.660  1.00  0.00     0.194 A 
HETATM   16  C21 UNK     1      30.190  -8.417  31.750  1.00  0.00     0.049 A 
HETATM   17  O5  UNK     1      31.357 -10.251  32.665  1.00  0.00    -0.287 OA
HETATM   18  C22 UNK     1      30.013  -7.033  31.788  1.00  0.00     0.089 A 
HETATM   19  C23 UNK     1      29.449  -9.196  30.858  1.00  0.00     0.025 A 
HETATM   20  C24 UNK     1      29.094  -6.422  30.936  1.00  0.00     0.039 A 
HETATM   21  O3  UNK     1      30.714  -6.221  32.644  1.00  0.00    -0.321 OA
HETATM   22  C26 UNK     1      28.353  -7.197  30.044  1.00  0.00     0.009 A 
HETATM   23  C25 UNK     1      28.530  -8.582  30.005  1.00  0.00    -0.061 A 
HETATM   24  C27 UNK     1      27.734  -9.405  29.050  1.00  0.00     0.048 C 
HETATM   25  C20 UNK     1      31.621  -6.816  33.486  1.00  0.00     0.154 A 
ENDBRANCH   3  14
BRANCH   6  26
HETATM   26  C17 UNK     1      31.214  -9.480  36.264  1.00  0.00     0.292 C 
HETATM   27  O4  UNK     1      31.282 -10.682  36.436  1.00  0.00    -0.259 OA
BRANCH  26  28
HETATM   28  O1  UNK     1      30.119  -8.685  36.317  1.00  0.00    -0.312 OA
BRANCH  28  29
HETATM   29  C1  UNK     1      29.070  -9.159  37.155  1.00  0.00     0.132 C 
HETATM   30  C2  UNK     1      28.846  -8.175  38.302  1.00  0.00     0.032 C 
HETATM   31  C5  UNK     1      27.665  -8.590  39.175  1.00  0.00     0.002 C 
HETATM   32  C7  UNK     1      26.398  -8.789  38.346  1.00  0.00     0.000 C 
HETATM   33  C6  UNK     1      26.621  -9.771  37.197  1.00  0.00     0.002 C 
HETATM   34  C3  UNK     1      27.802  -9.356  36.326  1.00  0.00     0.032 C 
ENDBRANCH  28  29
ENDBRANCH  26  28
ENDBRANCH   6  26
TORSDOF 4
ENDMDL
MODEL 7
REMARK VINA RESULT:      -8.4      1.870      6.007
REMARK  4 active torsions:
REMARK  status: ('A' for Active; 'I' for Inactive)
REMARK    1  A    between atoms: C1_7  and  O1_1 
REMARK    2  A    between atoms: C17_23  and  O1_1 
REMARK    3  A    between atoms: C16_22  and  C4_10 
REMARK    4  A    between atoms: C10_16  and  C17_23 
ROOT
HETATM    1  O2  UNK     1      33.495  -8.439  33.788  1.00  0.00    -0.293 OA
HETATM    2  N1  UNK     1      32.964  -5.117  37.127  1.00  0.00    -0.362 N 
HETATM    3  C4  UNK     1      31.654  -7.068  35.534  1.00  0.00     0.104 C 
HETATM    4  C8  UNK     1      33.144  -6.759  35.429  1.00  0.00     0.024 C 
HETATM    5  C9  UNK     1      33.717  -5.809  36.198  1.00  0.00     0.020 C 
HETATM    6  C10 UNK     1      30.981  -6.338  36.698  1.00  0.00     0.052 C 
HETATM    7  C11 UNK     1      35.185  -5.471  36.141  1.00  0.00     0.058 C 
HETATM    8  C12 UNK     1      36.020  -6.606  35.562  1.00  0.00     0.014 C 
HETATM    9  C13 UNK     1      35.422  -7.112  34.262  1.00  0.00     0.084 C 
HETATM   10  C14 UNK     1      31.636  -5.394  37.413  1.00  0.00     0.018 C 
HETATM   11  C15 UNK     1      33.980  -7.526  34.454  1.00  0.00     0.158 C 
HETATM   12  C18 UNK     1      31.047  -4.588  38.539  1.00  0.00     0.069 C 
HETATM   13  H19 UNK     1      33.430  -4.411  37.686  1.00  0.00     0.165 HD
ENDROOT
BRANCH   3  14
HETATM   14  C16 UNK     1      30.953  -6.736  34.244  1.00  0.00     0.029 A 
HETATM   15  C19 UNK     1      30.208  -7.814  33.546  1.00  0.00     0.194 A 
HETATM   16  C21 UNK     1      29.540  -7.436  32.286  1.00  0.00     0.049 A 
HETATM   17  O5  UNK     1      30.144  -8.954  33.988  1.00  0.00    -0.287 OA
HETATM   18  C22 UNK     1      29.644  -6.121  31.830  1.00  0.00     0.089 A 
HETATM   19  C23 UNK     1      28.813  -8.379  31.555  1.00  0.00     0.025 A 
HETATM   20  C24 UNK     1      29.021  -5.743  30.642  1.00  0.00     0.039 A 
HETATM   21  O3  UNK     1      30.345  -5.156  32.509  1.00  0.00    -0.321 OA
HETATM   22  C26 UNK     1      28.295  -6.682  29.909  1.00  0.00     0.009 A 
HETATM   23  C25 UNK     1      28.191  -7.997  30.365  1.00  0.00    -0.061 A 
HETATM   24  C27 UNK     1      27.412  -8.997  29.578  1.00  0.00     0.048 C 
HETATM   25  C20 UNK     1      30.961  -5.522  33.680  1.00  0.00     0.154 A 
ENDBRANCH   3  14
BRANCH   6  26
HETATM   26  C17 UNK     1      29.608  -6.752  37.033  1.00  0.00     0.292 C 
HETATM   27  O4  UNK     1      28.648  -6.010  36.951  1.00  0.00    -0.259 OA
BRANCH  26  28
HETATM   28  O1  UNK     1      29.638  -8.047  37.427  1.00  0.00    -0.312 OA
BRANCH  28  29
HETATM   29  C1  UNK     1      28.371  -8.604  37.764  1.00  0.00     0.132 C 
HETATM   30  C2  UNK     1      27.784  -9.316  36.547  1.00  0.00     0.032 C 
HETATM   31  C5  UNK     1      26.469 -10.013  36.884  1.00  0.00     0.002 C 
HETATM   32  C7  UNK     1      26.625 -10.960  38.072  1.00  0.00     0.000 C 
HETATM   33  C6  UNK     1      27.213 -10.249  39.289  1.00  0.00     0.002 C 
HETATM   34  C3  UNK     1      28.528  -9.553  38.951  1.00  0.00     0.032 C 
ENDBRANCH  28  29
ENDBRANCH  26  28
ENDBRANCH   6  26
TORSDOF 4
ENDMDL
MODEL 8
REMARK VINA RESULT:      -8.3      3.027      5.882
REMARK  4 active torsions:
REMARK  status: ('A' for Active; 'I' for Inactive)
REMARK    1  A    between atoms: C1_7  and  O1_1 
REMARK    2  A    between atoms: C17_23  and  O1_1 
REMARK    3  A    between atoms: C16_22  and  C4_10 
REMARK    4  A    between atoms: C10_16  and  C17_23 
ROOT
HETATM    1  O2  UNK     1      34.534 -10.035  33.152  1.00  0.00    -0.293 OA
HETATM    2  N1  UNK     1      34.036  -5.705  35.013  1.00  0.00    -0.362 N 
HETATM    3  C4  UNK     1      32.688  -7.976  33.972  1.00  0.00     0.104 C 
HETATM    4  C8  UNK     1      34.207  -7.854  34.035  1.00  0.00     0.024 C 
HETATM    5  C9  UNK     1      34.801  -6.745  34.524  1.00  0.00     0.020 C 
HETATM    6  C10 UNK     1      31.975  -6.822  34.679  1.00  0.00     0.052 C 
HETATM    7  C11 UNK     1      36.296  -6.577  34.617  1.00  0.00     0.058 C 
HETATM    8  C12 UNK     1      37.031  -7.912  34.616  1.00  0.00     0.014 C 
HETATM    9  C13 UNK     1      36.549  -8.798  33.481  1.00  0.00     0.084 C 
HETATM   10  C14 UNK     1      32.655  -5.745  35.135  1.00  0.00     0.018 C 
HETATM   11  C15 UNK     1      35.050  -8.989  33.544  1.00  0.00     0.158 C 
HETATM   12  C18 UNK     1      32.040  -4.541  35.797  1.00  0.00     0.069 C 
HETATM   13  H19 UNK     1      34.517  -4.888  35.372  1.00  0.00     0.165 HD
ENDROOT
BRANCH   3  14
HETATM   14  C16 UNK     1      32.224  -8.070  32.544  1.00  0.00     0.029 A 
HETATM   15  C19 UNK     1      31.262  -9.141  32.181  1.00  0.00     0.194 A 
HETATM   16  C21 UNK     1      30.840  -9.189  30.769  1.00  0.00     0.049 A 
HETATM   17  O5  UNK     1      30.836  -9.941  33.005  1.00  0.00    -0.287 OA
HETATM   18  C22 UNK     1      31.355  -8.251  29.873  1.00  0.00     0.089 A 
HETATM   19  C23 UNK     1      29.937 -10.160  30.328  1.00  0.00     0.025 A 
HETATM   20  C24 UNK     1      30.970  -8.279  28.534  1.00  0.00     0.039 A 
HETATM   21  O3  UNK     1      32.244  -7.277  30.252  1.00  0.00    -0.321 OA
HETATM   22  C26 UNK     1      30.069  -9.247  28.090  1.00  0.00     0.009 A 
HETATM   23  C25 UNK     1      29.553 -10.186  28.986  1.00  0.00    -0.061 A 
HETATM   24  C27 UNK     1      28.590 -11.218  28.507  1.00  0.00     0.048 C 
HETATM   25  C20 UNK     1      32.628  -7.244  31.571  1.00  0.00     0.154 A 
ENDBRANCH   3  14
BRANCH   6  26
HETATM   26  C17 UNK     1      30.525  -6.969  34.886  1.00  0.00     0.292 C 
HETATM   27  O4  UNK     1      30.035  -7.820  35.604  1.00  0.00    -0.259 OA
BRANCH  26  28
HETATM   28  O1  UNK     1      29.891  -6.020  34.156  1.00  0.00    -0.312 OA
BRANCH  28  29
HETATM   29  C1  UNK     1      29.513  -6.422  32.843  1.00  0.00     0.132 C 
HETATM   30  C2  UNK     1      28.152  -7.115  32.892  1.00  0.00     0.032 C 
HETATM   31  C5  UNK     1      27.657  -7.480  31.496  1.00  0.00     0.002 C 
HETATM   32  C7  UNK     1      27.639  -6.264  30.572  1.00  0.00     0.000 C 
HETATM   33  C6  UNK     1      28.998  -5.569  30.523  1.00  0.00     0.002 C 
HETATM   34  C3  UNK     1      29.492  -5.205  31.921  1.00  0.00     0.032 C 
ENDBRANCH  28  29
ENDBRANCH  26  28
ENDBRANCH   6  26
TORSDOF 4
ENDMDL
MODEL 9
REMARK VINA RESULT:      -8.3      2.207      5.283
REMARK  4 active torsions:
REMARK  status: ('A' for Active; 'I' for Inactive)
REMARK    1  A    between atoms: C1_7  and  O1_1 
REMARK    2  A    between atoms: C17_23  and  O1_1 
REMARK    3  A    between atoms: C16_22  and  C4_10 
REMARK    4  A    between atoms: C10_16  and  C17_23 
ROOT
HETATM    1  O2  UNK     1      29.940  -4.547  37.286  1.00  0.00    -0.293 OA
HETATM    2  N1  UNK     1      29.909  -9.277  37.582  1.00  0.00    -0.362 N 
HETATM    3  C4  UNK     1      31.118  -7.014  36.367  1.00  0.00     0.104 C 
HETATM    4  C8  UNK     1      29.952  -6.921  37.346  1.00  0.00     0.024 C 
HETATM    5  C9  UNK     1      29.400  -8.030  37.885  1.00  0.00     0.020 C 
HETATM    6  C10 UNK     1      31.670  -8.435  36.240  1.00  0.00     0.052 C 
HETATM    7  C11 UNK     1      28.256  -7.994  38.864  1.00  0.00     0.058 C 
HETATM    8  C12 UNK     1      28.137  -6.650  39.571  1.00  0.00     0.014 C 
HETATM    9  C13 UNK     1      28.172  -5.505  38.573  1.00  0.00     0.084 C 
HETATM   10  C14 UNK     1      31.045  -9.489  36.814  1.00  0.00     0.018 C 
HETATM   11  C15 UNK     1      29.414  -5.574  37.714  1.00  0.00     0.158 C 
HETATM   12  C18 UNK     1      31.480 -10.926  36.706  1.00  0.00     0.069 C 
HETATM   13  H19 UNK     1      29.469 -10.086  38.005  1.00  0.00     0.165 HD
ENDROOT
BRANCH   3  14
HETATM   14  C16 UNK     1      30.712  -6.497  35.013  1.00  0.00     0.029 A 
HETATM   15  C19 UNK     1      29.515  -7.085  34.360  1.00  0.00     0.194 A 
HETATM   16  C21 UNK     1      29.161  -6.544  33.035  1.00  0.00     0.049 A 
HETATM   17  O5  UNK     1      28.852  -7.968  34.889  1.00  0.00    -0.287 OA
HETATM   18  C22 UNK     1      29.951  -5.536  32.480  1.00  0.00     0.089 A 
HETATM   19  C23 UNK     1      28.052  -7.031  32.339  1.00  0.00     0.025 A 
HETATM   20  C24 UNK     1      29.635  -5.009  31.228  1.00  0.00     0.039 A 
HETATM   21  O3  UNK     1      31.051  -5.021  33.119  1.00  0.00    -0.321 OA
HETATM   22  C26 UNK     1      28.528  -5.494  30.531  1.00  0.00     0.009 A 
HETATM   23  C25 UNK     1      27.738  -6.503  31.086  1.00  0.00    -0.061 A 
HETATM   24  C27 UNK     1      26.555  -7.017  30.337  1.00  0.00     0.048 C 
HETATM   25  C20 UNK     1      31.368  -5.534  34.353  1.00  0.00     0.154 A 
ENDBRANCH   3  14
BRANCH   6  26
HETATM   26  C17 UNK     1      32.940  -8.588  35.512  1.00  0.00     0.292 C 
HETATM   27  O4  UNK     1      33.953  -7.979  35.801  1.00  0.00    -0.259 OA
BRANCH  26  28
HETATM   28  O1  UNK     1      32.757  -9.490  34.519  1.00  0.00    -0.312 OA
BRANCH  28  29
HETATM   29  C1  UNK     1      32.009  -9.015  33.404  1.00  0.00     0.132 C 
HETATM   30  C2  UNK     1      32.956  -8.394  32.378  1.00  0.00     0.032 C 
HETATM   31  C5  UNK     1      32.212  -7.956  31.121  1.00  0.00     0.002 C 
HETATM   32  C7  UNK     1      31.402  -9.103  30.520  1.00  0.00     0.000 C 
HETATM   33  C6  UNK     1      30.455  -9.725  31.545  1.00  0.00     0.002 C 
HETATM   34  C3  UNK     1      31.201 -10.163  32.802  1.00  0.00     0.032 C 
ENDBRANCH  28  29
ENDBRANCH  26  28
ENDBRANCH   6  26
TORSDOF 4
ENDMDL
MODEL 10
REMARK VINA RESULT:      -8.2      2.691      6.019
REMARK  4 active torsions:
REMARK  status: ('A' for Active; 'I' for Inactive)
REMARK    1  A    between atoms: C1_7  and  O1_1 
REMARK    2  A    between atoms: C17_23  and  O1_1 
REMARK    3  A    between atoms: C16_22  and  C4_10 
REMARK    4  A    between atoms: C10_16  and  C17_23 
ROOT
HETATM    1  O2  UNK     1      32.151  -4.782  36.204  1.00  0.00    -0.293 OA
HETATM    2  N1  UNK     1      28.485  -7.281  37.871  1.00  0.00    -0.362 N 
HETATM    3  C4  UNK     1      30.757  -7.306  36.169  1.00  0.00     0.104 C 
HETATM    4  C8  UNK     1      30.312  -6.080  36.959  1.00  0.00     0.024 C 
HETATM    5  C9  UNK     1      29.212  -6.114  37.743  1.00  0.00     0.020 C 
HETATM    6  C10 UNK     1      29.951  -8.559  36.520  1.00  0.00     0.052 C 
HETATM    7  C11 UNK     1      28.735  -4.936  38.551  1.00  0.00     0.058 C 
HETATM    8  C12 UNK     1      29.844  -3.926  38.818  1.00  0.00     0.014 C 
HETATM    9  C13 UNK     1      30.579  -3.575  37.537  1.00  0.00     0.084 C 
HETATM   10  C14 UNK     1      28.857  -8.495  37.314  1.00  0.00     0.018 C 
HETATM   11  C15 UNK     1      31.112  -4.819  36.861  1.00  0.00     0.158 C 
HETATM   12  C18 UNK     1      27.973  -9.658  37.675  1.00  0.00     0.069 C 
HETATM   13  H19 UNK     1      27.666  -7.267  38.468  1.00  0.00     0.165 HD
ENDROOT
BRANCH   3  14
HETATM   14  C16 UNK     1      30.676  -7.040  34.690  1.00  0.00     0.029 A 
HETATM   15  C19 UNK     1      31.838  -7.405  33.841  1.00  0.00     0.194 A 
HETATM   16  C21 UNK     1      31.707  -7.122  32.399  1.00  0.00     0.049 A 
HETATM   17  O5  UNK     1      32.849  -7.915  34.304  1.00  0.00    -0.287 OA
HETATM   18  C22 UNK     1      30.530  -6.541  31.925  1.00  0.00     0.089 A 
HETATM   19  C23 UNK     1      32.745  -7.429  31.516  1.00  0.00     0.025 A 
HETATM   20  C24 UNK     1      30.385  -6.265  30.566  1.00  0.00     0.039 A 
HETATM   21  O3  UNK     1      29.479  -6.219  32.747  1.00  0.00    -0.321 OA
HETATM   22  C26 UNK     1      31.420  -6.570  29.682  1.00  0.00     0.009 A 
HETATM   23  C25 UNK     1      32.598  -7.151  30.156  1.00  0.00    -0.061 A 
HETATM   24  C27 UNK     1      33.700  -7.476  29.206  1.00  0.00     0.048 C 
HETATM   25  C20 UNK     1      29.615  -6.489  34.087  1.00  0.00     0.154 A 
ENDBRANCH   3  14
BRANCH   6  26
HETATM   26  C17 UNK     1      30.457  -9.838  35.997  1.00  0.00     0.292 C 
HETATM   27  O4  UNK     1      31.451 -10.390  36.429  1.00  0.00    -0.259 OA
BRANCH  26  28
HETATM   28  O1  UNK     1      29.638 -10.245  34.999  1.00  0.00    -0.312 OA
BRANCH  28  29
HETATM   29  C1  UNK     1      30.242 -10.307  33.710  1.00  0.00     0.132 C 
HETATM   30  C2  UNK     1      30.827 -11.700  33.485  1.00  0.00     0.032 C 
HETATM   31  C5  UNK     1      31.402 -11.847  32.080  1.00  0.00     0.002 C 
HETATM   32  C7  UNK     1      30.371 -11.489  31.012  1.00  0.00     0.000 C 
HETATM   33  C6  UNK     1      29.784 -10.097  31.236  1.00  0.00     0.002 C 
HETATM   34  C3  UNK     1      29.209  -9.951  32.643  1.00  0.00     0.032 C 
ENDBRANCH  28  29
ENDBRANCH  26  28
ENDBRANCH   6  26
TORSDOF 4
ENDMDL
