MODEL 1
REMARK VINA RESULT:      -8.7      0.000      0.000
REMARK  3 active torsions:
REMARK  status: ('A' for Active; 'I' for Inactive)
REMARK    1  A    between atoms: C16_21  and  O3_3 
REMARK    2  A    between atoms: C20_25  and  O3_3 
REMARK       I    between atoms: C6_11  and  N1_5 
REMARK    3  A    between atoms: C6_11  and  C9_14 
ROOT
HETATM    1  O1  UNK     1      10.826   5.612   9.358  1.00  0.00    -0.271 OA
HETATM    2  O4  UNK     1      12.531   5.321  10.851  1.00  0.00    -0.259 OA
HETATM    3  C9  UNK     1      13.130   6.079   8.687  1.00  0.00     0.108 A 
HETATM    4  C12 UNK     1      12.730   6.427   7.458  1.00  0.00     0.037 A 
HETATM    5  C13 UNK     1      11.320   6.385   7.107  1.00  0.00     0.002 A 
HETATM    6  C14 UNK     1      10.399   5.976   8.066  1.00  0.00     0.123 A 
HETATM    7  C15 UNK     1      12.168   5.643   9.725  1.00  0.00     0.304 A 
HETATM    8  C16 UNK     1       9.034   5.914   7.794  1.00  0.00     0.103 A 
HETATM    9  C17 UNK     1      10.858   6.739   5.837  1.00  0.00     0.014 A 
HETATM   10  C18 UNK     1       8.582   6.269   6.524  1.00  0.00     0.040 A 
HETATM   11  C19 UNK     1       9.492   6.681   5.548  1.00  0.00     0.004 A 
ENDROOT
BRANCH   3  12
HETATM   12  C6  UNK     1      14.583   6.155   8.947  1.00  0.00     0.260 C 
HETATM   13  O2  UNK     1      15.289   5.234   8.532  1.00  0.00    -0.267 OA
HETATM   14  N1  UNK     1      15.051   7.265   9.653  1.00  0.00    -0.343 N 
HETATM   15  C1  UNK     1      16.452   7.294  10.076  1.00  0.00     0.131 C 
HETATM   16  C3  UNK     1      14.198   8.359  10.145  1.00  0.00     0.165 C 
HETATM   17  C2  UNK     1      17.101   8.625   9.716  1.00  0.00     0.059 C 
HETATM   18  C4  UNK     1      16.309   9.773  10.279  1.00  0.00    -0.049 A 
HETATM   19  C5  UNK     1      14.924   9.641  10.475  1.00  0.00    -0.034 A 
HETATM   20  C7  UNK     1      16.939  10.991  10.565  1.00  0.00     0.008 A 
HETATM   21  C8  UNK     1      14.194  10.728  10.981  1.00  0.00     0.009 A 
HETATM   22  C11 UNK     1      14.833  11.932  11.278  1.00  0.00     0.001 A 
HETATM   23  C10 UNK     1      16.203  12.064  11.068  1.00  0.00     0.001 A 
ENDBRANCH   3  12
BRANCH   8  24
HETATM   24  O3  UNK     1       8.145   5.512   8.741  1.00  0.00    -0.349 OA
BRANCH  24  25
HETATM   25  C20 UNK     1       7.457   6.534   9.463  1.00  0.00     0.171 C 
HETATM   26  C21 UNK     1       7.100   6.011  10.838  1.00  0.00     0.034 C 
ENDBRANCH  24  25
ENDBRANCH   8  24
TORSDOF 3
ENDMDL
MODEL 2
REMARK VINA RESULT:      -8.6     22.539     24.447
REMARK  3 active torsions:
REMARK  status: ('A' for Active; 'I' for Inactive)
REMARK    1  A    between atoms: C16_21  and  O3_3 
REMARK    2  A    between atoms: C20_25  and  O3_3 
REMARK       I    between atoms: C6_11  and  N1_5 
REMARK    3  A    between atoms: C6_11  and  C9_14 
ROOT
HETATM    1  O1  UNK     1      18.680   0.613  32.190  1.00  0.00    -0.271 OA
HETATM    2  O4  UNK     1      17.666   2.648  32.422  1.00  0.00    -0.259 OA
HETATM    3  C9  UNK     1      18.790   2.247  30.375  1.00  0.00     0.108 A 
HETATM    4  C12 UNK     1      19.512   1.406  29.626  1.00  0.00     0.037 A 
HETATM    5  C13 UNK     1      19.865   0.090  30.134  1.00  0.00     0.002 A 
HETATM    6  C14 UNK     1      19.441  -0.276  31.406  1.00  0.00     0.123 A 
HETATM    7  C15 UNK     1      18.326   1.879  31.732  1.00  0.00     0.304 A 
HETATM    8  C16 UNK     1      19.745  -1.522  31.951  1.00  0.00     0.103 A 
HETATM    9  C17 UNK     1      20.618  -0.819  29.386  1.00  0.00     0.014 A 
HETATM   10  C18 UNK     1      20.496  -2.423  31.200  1.00  0.00     0.040 A 
HETATM   11  C19 UNK     1      20.932  -2.072  29.920  1.00  0.00     0.004 A 
ENDROOT
BRANCH   3  12
HETATM   12  C6  UNK     1      18.483   3.561  29.771  1.00  0.00     0.260 C 
HETATM   13  O2  UNK     1      18.015   3.573  28.631  1.00  0.00    -0.267 OA
HETATM   14  N1  UNK     1      18.755   4.697  30.535  1.00  0.00    -0.343 N 
HETATM   15  C1  UNK     1      18.624   6.015  29.914  1.00  0.00     0.131 C 
HETATM   16  C3  UNK     1      19.315   4.670  31.897  1.00  0.00     0.165 C 
HETATM   17  C2  UNK     1      17.815   6.957  30.798  1.00  0.00     0.059 C 
HETATM   18  C4  UNK     1      18.408   7.031  32.178  1.00  0.00    -0.049 A 
HETATM   19  C5  UNK     1      19.117   5.935  32.697  1.00  0.00    -0.034 A 
HETATM   20  C7  UNK     1      18.217   8.173  32.967  1.00  0.00     0.008 A 
HETATM   21  C8  UNK     1      19.646   6.011  33.995  1.00  0.00     0.009 A 
HETATM   22  C11 UNK     1      19.464   7.158  34.768  1.00  0.00     0.001 A 
HETATM   23  C10 UNK     1      18.748   8.237  34.255  1.00  0.00     0.001 A 
ENDBRANCH   3  12
BRANCH   8  24
HETATM   24  O3  UNK     1      19.324  -1.866  33.198  1.00  0.00    -0.349 OA
BRANCH  24  25
HETATM   25  C20 UNK     1      20.277  -2.493  34.056  1.00  0.00     0.171 C 
HETATM   26  C21 UNK     1      19.953  -2.143  35.492  1.00  0.00     0.034 C 
ENDBRANCH  24  25
ENDBRANCH   8  24
TORSDOF 3
ENDMDL
MODEL 3
REMARK VINA RESULT:      -8.5     27.285     29.327
REMARK  3 active torsions:
REMARK  status: ('A' for Active; 'I' for Inactive)
REMARK    1  A    between atoms: C16_21  and  O3_3 
REMARK    2  A    between atoms: C20_25  and  O3_3 
REMARK       I    between atoms: C6_11  and  N1_5 
REMARK    3  A    between atoms: C6_11  and  C9_14 
ROOT
HETATM    1  O1  UNK     1      21.279  -3.605  36.622  1.00  0.00    -0.271 OA
HETATM    2  O4  UNK     1      21.559  -1.464  35.874  1.00  0.00    -0.259 OA
HETATM    3  C9  UNK     1      19.338  -2.289  35.927  1.00  0.00     0.108 A 
HETATM    4  C12 UNK     1      18.515  -3.307  36.205  1.00  0.00     0.037 A 
HETATM    5  C13 UNK     1      19.045  -4.559  36.719  1.00  0.00     0.002 A 
HETATM    6  C14 UNK     1      20.416  -4.680  36.915  1.00  0.00     0.123 A 
HETATM    7  C15 UNK     1      20.802  -2.394  36.129  1.00  0.00     0.304 A 
HETATM    8  C16 UNK     1      20.987  -5.852  37.406  1.00  0.00     0.103 A 
HETATM    9  C17 UNK     1      18.222  -5.647  37.022  1.00  0.00     0.014 A 
HETATM   10  C18 UNK     1      20.161  -6.933  37.706  1.00  0.00     0.040 A 
HETATM   11  C19 UNK     1      18.781  -6.830  37.515  1.00  0.00     0.004 A 
ENDROOT
BRANCH   3  12
HETATM   12  C6  UNK     1      18.704  -1.059  35.408  1.00  0.00     0.260 C 
HETATM   13  O2  UNK     1      18.196  -0.288  36.223  1.00  0.00    -0.267 OA
HETATM   14  N1  UNK     1      18.721  -0.863  34.026  1.00  0.00    -0.343 N 
HETATM   15  C1  UNK     1      17.961   0.252  33.460  1.00  0.00     0.131 C 
HETATM   16  C3  UNK     1      19.331  -1.792  33.060  1.00  0.00     0.165 C 
HETATM   17  C2  UNK     1      18.811   1.049  32.479  1.00  0.00     0.059 C 
HETATM   18  C4  UNK     1      19.383   0.150  31.418  1.00  0.00    -0.049 A 
HETATM   19  C5  UNK     1      19.634  -1.202  31.704  1.00  0.00    -0.034 A 
HETATM   20  C7  UNK     1      19.711   0.668  30.158  1.00  0.00     0.008 A 
HETATM   21  C8  UNK     1      20.188  -2.023  30.710  1.00  0.00     0.009 A 
HETATM   22  C11 UNK     1      20.497  -1.503  29.453  1.00  0.00     0.001 A 
HETATM   23  C10 UNK     1      20.261  -0.159  29.178  1.00  0.00     0.001 A 
ENDBRANCH   3  12
BRANCH   8  24
HETATM   24  O3  UNK     1      22.331  -5.956  37.593  1.00  0.00    -0.349 OA
BRANCH  24  25
HETATM   25  C20 UNK     1      22.791  -6.123  38.934  1.00  0.00     0.171 C 
HETATM   26  C21 UNK     1      23.592  -7.404  39.024  1.00  0.00     0.034 C 
ENDBRANCH  24  25
ENDBRANCH   8  24
TORSDOF 3
ENDMDL
MODEL 4
REMARK VINA RESULT:      -8.4      2.093      2.309
REMARK  3 active torsions:
REMARK  status: ('A' for Active; 'I' for Inactive)
REMARK    1  A    between atoms: C16_21  and  O3_3 
REMARK    2  A    between atoms: C20_25  and  O3_3 
REMARK       I    between atoms: C6_11  and  N1_5 
REMARK    3  A    between atoms: C6_11  and  C9_14 
ROOT
HETATM    1  O1  UNK     1      11.249   7.604   9.643  1.00  0.00    -0.271 OA
HETATM    2  O4  UNK     1      12.654   8.254  11.323  1.00  0.00    -0.259 OA
HETATM    3  C9  UNK     1      13.670   7.544   9.303  1.00  0.00     0.108 A 
HETATM    4  C12 UNK     1      13.510   7.084   8.057  1.00  0.00     0.037 A 
HETATM    5  C13 UNK     1      12.177   6.854   7.525  1.00  0.00     0.002 A 
HETATM    6  C14 UNK     1      11.076   7.118   8.332  1.00  0.00     0.123 A 
HETATM    7  C15 UNK     1      12.512   7.834  10.180  1.00  0.00     0.304 A 
HETATM    8  C16 UNK     1       9.772   6.920   7.883  1.00  0.00     0.103 A 
HETATM    9  C17 UNK     1      11.964   6.374   6.230  1.00  0.00     0.014 A 
HETATM   10  C18 UNK     1       9.568   6.441   6.590  1.00  0.00     0.040 A 
HETATM   11  C19 UNK     1      10.662   6.169   5.765  1.00  0.00     0.004 A 
ENDROOT
BRANCH   3  12
HETATM   12  C6  UNK     1      15.063   7.745   9.752  1.00  0.00     0.260 C 
HETATM   13  O2  UNK     1      15.631   6.800  10.301  1.00  0.00    -0.267 OA
HETATM   14  N1  UNK     1      15.634   9.000   9.528  1.00  0.00    -0.343 N 
HETATM   15  C1  UNK     1      16.947   9.292  10.105  1.00  0.00     0.131 C 
HETATM   16  C3  UNK     1      14.946  10.123   8.871  1.00  0.00     0.165 C 
HETATM   17  C2  UNK     1      17.878   9.899   9.063  1.00  0.00     0.059 C 
HETATM   18  C4  UNK     1      17.249  11.109   8.428  1.00  0.00    -0.049 A 
HETATM   19  C5  UNK     1      15.850  11.206   8.335  1.00  0.00    -0.034 A 
HETATM   20  C7  UNK     1      18.054  12.119   7.887  1.00  0.00     0.008 A 
HETATM   21  C8  UNK     1      15.279  12.331   7.721  1.00  0.00     0.009 A 
HETATM   22  C11 UNK     1      16.089  13.340   7.198  1.00  0.00     0.001 A 
HETATM   23  C10 UNK     1      17.474  13.233   7.279  1.00  0.00     0.001 A 
ENDBRANCH   3  12
BRANCH   8  24
HETATM   24  O3  UNK     1       8.703   7.182   8.683  1.00  0.00    -0.349 OA
BRANCH  24  25
HETATM   25  C20 UNK     1       7.779   6.117   8.903  1.00  0.00     0.171 C 
HETATM   26  C21 UNK     1       8.414   5.096   9.823  1.00  0.00     0.034 C 
ENDBRANCH  24  25
ENDBRANCH   8  24
TORSDOF 3
ENDMDL
MODEL 5
REMARK VINA RESULT:      -8.3     22.822     25.140
REMARK  3 active torsions:
REMARK  status: ('A' for Active; 'I' for Inactive)
REMARK    1  A    between atoms: C16_21  and  O3_3 
REMARK    2  A    between atoms: C20_25  and  O3_3 
REMARK       I    between atoms: C6_11  and  N1_5 
REMARK    3  A    between atoms: C6_11  and  C9_14 
ROOT
HETATM    1  O1  UNK     1      19.375   6.962  33.091  1.00  0.00    -0.271 OA
HETATM    2  O4  UNK     1      20.862   5.762  31.838  1.00  0.00    -0.259 OA
HETATM    3  C9  UNK     1      18.561   5.362  31.431  1.00  0.00     0.108 A 
HETATM    4  C12 UNK     1      17.291   5.650  31.737  1.00  0.00     0.037 A 
HETATM    5  C13 UNK     1      16.989   6.635  32.763  1.00  0.00     0.002 A 
HETATM    6  C14 UNK     1      18.039   7.268  33.418  1.00  0.00     0.123 A 
HETATM    7  C15 UNK     1      19.696   6.025  32.114  1.00  0.00     0.304 A 
HETATM    8  C16 UNK     1      17.817   8.222  34.409  1.00  0.00     0.103 A 
HETATM    9  C17 UNK     1      15.677   6.965  33.114  1.00  0.00     0.014 A 
HETATM   10  C18 UNK     1      16.507   8.546  34.755  1.00  0.00     0.040 A 
HETATM   11  C19 UNK     1      15.439   7.919  34.108  1.00  0.00     0.004 A 
ENDROOT
BRANCH   3  12
HETATM   12  C6  UNK     1      18.766   4.348  30.376  1.00  0.00     0.260 C 
HETATM   13  O2  UNK     1      19.040   4.746  29.243  1.00  0.00    -0.267 OA
HETATM   14  N1  UNK     1      18.624   3.007  30.739  1.00  0.00    -0.343 N 
HETATM   15  C1  UNK     1      18.652   1.984  29.693  1.00  0.00     0.131 C 
HETATM   16  C3  UNK     1      18.295   2.543  32.097  1.00  0.00     0.165 C 
HETATM   17  C2  UNK     1      19.596   0.848  30.067  1.00  0.00     0.059 C 
HETATM   18  C4  UNK     1      19.237   0.280  31.413  1.00  0.00    -0.049 A 
HETATM   19  C5  UNK     1      18.623   1.096  32.378  1.00  0.00    -0.034 A 
HETATM   20  C7  UNK     1      19.556  -1.048  31.725  1.00  0.00     0.008 A 
HETATM   21  C8  UNK     1      18.314   0.558  33.636  1.00  0.00     0.009 A 
HETATM   22  C11 UNK     1      18.621  -0.770  33.934  1.00  0.00     0.001 A 
HETATM   23  C10 UNK     1      19.244  -1.571  32.980  1.00  0.00     0.001 A 
ENDBRANCH   3  12
BRANCH   8  24
HETATM   24  O3  UNK     1      18.855   8.833  35.043  1.00  0.00    -0.349 OA
BRANCH  24  25
HETATM   25  C20 UNK     1      19.453   9.948  34.383  1.00  0.00     0.171 C 
HETATM   26  C21 UNK     1      20.958   9.839  34.498  1.00  0.00     0.034 C 
ENDBRANCH  24  25
ENDBRANCH   8  24
TORSDOF 3
ENDMDL
MODEL 6
REMARK VINA RESULT:      -8.3      3.800      6.307
REMARK  3 active torsions:
REMARK  status: ('A' for Active; 'I' for Inactive)
REMARK    1  A    between atoms: C16_21  and  O3_3 
REMARK    2  A    between atoms: C20_25  and  O3_3 
REMARK       I    between atoms: C6_11  and  N1_5 
REMARK    3  A    between atoms: C6_11  and  C9_14 
ROOT
HETATM    1  O1  UNK     1       6.526   4.723  10.899  1.00  0.00    -0.271 OA
HETATM    2  O4  UNK     1       7.345   3.806   8.973  1.00  0.00    -0.259 OA
HETATM    3  C9  UNK     1       7.537   6.158   9.196  1.00  0.00     0.108 A 
HETATM    4  C12 UNK     1       7.313   7.246   9.942  1.00  0.00     0.037 A 
HETATM    5  C13 UNK     1       6.667   7.126  11.239  1.00  0.00     0.002 A 
HETATM    6  C14 UNK     1       6.287   5.865  11.688  1.00  0.00     0.123 A 
HETATM    7  C15 UNK     1       7.143   4.805   9.654  1.00  0.00     0.304 A 
HETATM    8  C16 UNK     1       5.665   5.682  12.921  1.00  0.00     0.103 A 
HETATM    9  C17 UNK     1       6.413   8.235  12.050  1.00  0.00     0.014 A 
HETATM   10  C18 UNK     1       5.415   6.793  13.723  1.00  0.00     0.040 A 
HETATM   11  C19 UNK     1       5.788   8.067  13.289  1.00  0.00     0.004 A 
ENDROOT
BRANCH   3  12
HETATM   12  C6  UNK     1       8.198   6.383   7.894  1.00  0.00     0.260 C 
HETATM   13  O2  UNK     1       7.508   6.805   6.965  1.00  0.00    -0.267 OA
HETATM   14  N1  UNK     1       9.561   6.091   7.808  1.00  0.00    -0.343 N 
HETATM   15  C1  UNK     1      10.213   6.140   6.499  1.00  0.00     0.131 C 
HETATM   16  C3  UNK     1      10.377   5.586   8.925  1.00  0.00     0.165 C 
HETATM   17  C2  UNK     1      11.508   6.940   6.565  1.00  0.00     0.059 C 
HETATM   18  C4  UNK     1      12.414   6.398   7.636  1.00  0.00    -0.049 A 
HETATM   19  C5  UNK     1      11.867   5.759   8.761  1.00  0.00    -0.034 A 
HETATM   20  C7  UNK     1      13.801   6.570   7.539  1.00  0.00     0.008 A 
HETATM   21  C8  UNK     1      12.724   5.278   9.763  1.00  0.00     0.009 A 
HETATM   22  C11 UNK     1      14.106   5.439   9.650  1.00  0.00     0.001 A 
HETATM   23  C10 UNK     1      14.643   6.087   8.541  1.00  0.00     0.001 A 
ENDBRANCH   3  12
BRANCH   8  24
HETATM   24  O3  UNK     1       5.298   4.443  13.347  1.00  0.00    -0.349 OA
BRANCH  24  25
HETATM   25  C20 UNK     1       5.894   3.968  14.554  1.00  0.00     0.171 C 
HETATM   26  C21 UNK     1       5.589   2.493  14.706  1.00  0.00     0.034 C 
ENDBRANCH  24  25
ENDBRANCH   8  24
TORSDOF 3
ENDMDL
MODEL 7
REMARK VINA RESULT:      -8.2     33.568     36.400
REMARK  3 active torsions:
REMARK  status: ('A' for Active; 'I' for Inactive)
REMARK    1  A    between atoms: C16_21  and  O3_3 
REMARK    2  A    between atoms: C20_25  and  O3_3 
REMARK       I    between atoms: C6_11  and  N1_5 
REMARK    3  A    between atoms: C6_11  and  C9_14 
ROOT
HETATM    1  O1  UNK     1      32.870  -6.511  33.315  1.00  0.00    -0.271 OA
HETATM    2  O4  UNK     1      30.905  -5.572  34.006  1.00  0.00    -0.259 OA
HETATM    3  C9  UNK     1      32.756  -5.362  35.471  1.00  0.00     0.108 A 
HETATM    4  C12 UNK     1      34.047  -5.622  35.708  1.00  0.00     0.037 A 
HETATM    5  C13 UNK     1      34.837  -6.360  34.736  1.00  0.00     0.002 A 
HETATM    6  C14 UNK     1      34.229  -6.789  33.561  1.00  0.00     0.123 A 
HETATM    7  C15 UNK     1      32.088  -5.807  34.226  1.00  0.00     0.304 A 
HETATM    8  C16 UNK     1      34.930  -7.499  32.589  1.00  0.00     0.103 A 
HETATM    9  C17 UNK     1      36.187  -6.654  34.943  1.00  0.00     0.014 A 
HETATM   10  C18 UNK     1      36.276  -7.789  32.803  1.00  0.00     0.040 A 
HETATM   11  C19 UNK     1      36.903  -7.367  33.977  1.00  0.00     0.004 A 
ENDROOT
BRANCH   3  12
HETATM   12  C6  UNK     1      32.038  -4.607  36.519  1.00  0.00     0.260 C 
HETATM   13  O2  UNK     1      32.170  -3.383  36.537  1.00  0.00    -0.267 OA
HETATM   14  N1  UNK     1      31.265  -5.340  37.422  1.00  0.00    -0.343 N 
HETATM   15  C1  UNK     1      30.677  -4.652  38.571  1.00  0.00     0.131 C 
HETATM   16  C3  UNK     1      31.115  -6.805  37.391  1.00  0.00     0.165 C 
HETATM   17  C2  UNK     1      29.200  -4.998  38.716  1.00  0.00     0.059 C 
HETATM   18  C4  UNK     1      29.007  -6.489  38.781  1.00  0.00    -0.049 A 
HETATM   19  C5  UNK     1      29.921  -7.343  38.143  1.00  0.00    -0.034 A 
HETATM   20  C7  UNK     1      27.893  -7.027  39.439  1.00  0.00     0.008 A 
HETATM   21  C8  UNK     1      29.716  -8.730  38.194  1.00  0.00     0.009 A 
HETATM   22  C11 UNK     1      28.612  -9.259  38.864  1.00  0.00     0.001 A 
HETATM   23  C10 UNK     1      27.701  -8.408  39.483  1.00  0.00     0.001 A 
ENDBRANCH   3  12
BRANCH   8  24
HETATM   24  O3  UNK     1      34.323  -7.913  31.444  1.00  0.00    -0.349 OA
BRANCH  24  25
HETATM   25  C20 UNK     1      35.138  -8.018  30.277  1.00  0.00     0.171 C 
HETATM   26  C21 UNK     1      34.765  -6.912  29.313  1.00  0.00     0.034 C 
ENDBRANCH  24  25
ENDBRANCH   8  24
TORSDOF 3
ENDMDL
MODEL 8
REMARK VINA RESULT:      -8.1     24.632     26.492
REMARK  3 active torsions:
REMARK  status: ('A' for Active; 'I' for Inactive)
REMARK    1  A    between atoms: C16_21  and  O3_3 
REMARK    2  A    between atoms: C20_25  and  O3_3 
REMARK       I    between atoms: C6_11  and  N1_5 
REMARK    3  A    between atoms: C6_11  and  C9_14 
ROOT
HETATM    1  O1  UNK     1      18.830  -0.249  33.672  1.00  0.00    -0.271 OA
HETATM    2  O4  UNK     1      19.031   0.274  31.456  1.00  0.00    -0.259 OA
HETATM    3  C9  UNK     1      18.148   1.958  32.870  1.00  0.00     0.108 A 
HETATM    4  C12 UNK     1      17.788   2.326  34.106  1.00  0.00     0.037 A 
HETATM    5  C13 UNK     1      17.935   1.400  35.218  1.00  0.00     0.002 A 
HETATM    6  C14 UNK     1      18.452   0.133  34.974  1.00  0.00     0.123 A 
HETATM    7  C15 UNK     1      18.702   0.614  32.588  1.00  0.00     0.304 A 
HETATM    8  C16 UNK     1      18.619  -0.800  35.995  1.00  0.00     0.103 A 
HETATM    9  C17 UNK     1      17.573   1.741  36.523  1.00  0.00     0.014 A 
HETATM   10  C18 UNK     1      18.255  -0.453  37.295  1.00  0.00     0.040 A 
HETATM   11  C19 UNK     1      17.733   0.816  37.558  1.00  0.00     0.004 A 
ENDROOT
BRANCH   3  12
HETATM   12  C6  UNK     1      17.960   2.969  31.808  1.00  0.00     0.260 C 
HETATM   13  O2  UNK     1      17.480   2.593  30.737  1.00  0.00    -0.267 OA
HETATM   14  N1  UNK     1      18.350   4.279  32.092  1.00  0.00    -0.343 N 
HETATM   15  C1  UNK     1      18.337   5.270  31.016  1.00  0.00     0.131 C 
HETATM   16  C3  UNK     1      18.924   4.716  33.375  1.00  0.00     0.165 C 
HETATM   17  C2  UNK     1      17.635   6.547  31.460  1.00  0.00     0.059 C 
HETATM   18  C4  UNK     1      18.251   7.082  32.723  1.00  0.00    -0.049 A 
HETATM   19  C5  UNK     1      18.859   6.202  33.634  1.00  0.00    -0.034 A 
HETATM   20  C7  UNK     1      18.181   8.450  33.017  1.00  0.00     0.008 A 
HETATM   21  C8  UNK     1      19.411   6.714  34.819  1.00  0.00     0.009 A 
HETATM   22  C11 UNK     1      19.350   8.079  35.096  1.00  0.00     0.001 A 
HETATM   23  C10 UNK     1      18.734   8.946  34.197  1.00  0.00     0.001 A 
ENDBRANCH   3  12
BRANCH   8  24
HETATM   24  O3  UNK     1      19.126  -2.038  35.743  1.00  0.00    -0.349 OA
BRANCH  24  25
HETATM   25  C20 UNK     1      20.451  -2.304  36.201  1.00  0.00     0.171 C 
HETATM   26  C21 UNK     1      20.408  -3.434  37.206  1.00  0.00     0.034 C 
ENDBRANCH  24  25
ENDBRANCH   8  24
TORSDOF 3
ENDMDL
MODEL 9
REMARK VINA RESULT:      -8.0     32.686     34.756
REMARK  3 active torsions:
REMARK  status: ('A' for Active; 'I' for Inactive)
REMARK    1  A    between atoms: C16_21  and  O3_3 
REMARK    2  A    between atoms: C20_25  and  O3_3 
REMARK       I    between atoms: C6_11  and  N1_5 
REMARK    3  A    between atoms: C6_11  and  C9_14 
ROOT
HETATM    1  O1  UNK     1      24.044  -8.426  37.487  1.00  0.00    -0.271 OA
HETATM    2  O4  UNK     1      25.034  -6.730  38.656  1.00  0.00    -0.259 OA
HETATM    3  C9  UNK     1      26.405  -8.583  38.105  1.00  0.00     0.108 A 
HETATM    4  C12 UNK     1      26.506  -9.781  37.517  1.00  0.00     0.037 A 
HETATM    5  C13 UNK     1      25.351 -10.379  36.867  1.00  0.00     0.002 A 
HETATM    6  C14 UNK     1      24.145  -9.687  36.868  1.00  0.00     0.123 A 
HETATM    7  C15 UNK     1      25.131  -7.827  38.117  1.00  0.00     0.304 A 
HETATM    8  C16 UNK     1      23.002 -10.204  36.263  1.00  0.00     0.103 A 
HETATM    9  C17 UNK     1      25.412 -11.627  36.242  1.00  0.00     0.014 A 
HETATM   10  C18 UNK     1      23.070 -11.450  35.642  1.00  0.00     0.040 A 
HETATM   11  C19 UNK     1      24.273 -12.160  35.631  1.00  0.00     0.004 A 
ENDROOT
BRANCH   3  12
HETATM   12  C6  UNK     1      27.633  -8.060  38.738  1.00  0.00     0.260 C 
HETATM   13  O2  UNK     1      27.812  -8.304  39.932  1.00  0.00    -0.267 OA
HETATM   14  N1  UNK     1      28.501  -7.316  37.936  1.00  0.00    -0.343 N 
HETATM   15  C1  UNK     1      29.639  -6.641  38.563  1.00  0.00     0.131 C 
HETATM   16  C3  UNK     1      28.277  -7.029  36.510  1.00  0.00     0.165 C 
HETATM   17  C2  UNK     1      30.926  -6.919  37.796  1.00  0.00     0.059 C 
HETATM   18  C4  UNK     1      30.771  -6.552  36.346  1.00  0.00    -0.049 A 
HETATM   19  C5  UNK     1      29.506  -6.613  35.738  1.00  0.00    -0.034 A 
HETATM   20  C7  UNK     1      31.892  -6.195  35.585  1.00  0.00     0.008 A 
HETATM   21  C8  UNK     1      29.381  -6.289  34.378  1.00  0.00     0.009 A 
HETATM   22  C11 UNK     1      30.500  -5.919  33.632  1.00  0.00     0.001 A 
HETATM   23  C10 UNK     1      31.755  -5.875  34.235  1.00  0.00     0.001 A 
ENDBRANCH   3  12
BRANCH   8  24
HETATM   24  O3  UNK     1      21.828  -9.517  36.272  1.00  0.00    -0.349 OA
BRANCH  24  25
HETATM   25  C20 UNK     1      21.358  -9.015  35.021  1.00  0.00     0.171 C 
HETATM   26  C21 UNK     1      20.691  -7.675  35.247  1.00  0.00     0.034 C 
ENDBRANCH  24  25
ENDBRANCH   8  24
TORSDOF 3
ENDMDL
MODEL 10
REMARK VINA RESULT:      -8.0     34.303     36.011
REMARK  3 active torsions:
REMARK  status: ('A' for Active; 'I' for Inactive)
REMARK    1  A    between atoms: C16_21  and  O3_3 
REMARK    2  A    between atoms: C20_25  and  O3_3 
REMARK       I    between atoms: C6_11  and  N1_5 
REMARK    3  A    between atoms: C6_11  and  C9_14 
ROOT
HETATM    1  O1  UNK     1      28.015  -5.841  38.299  1.00  0.00    -0.271 OA
HETATM    2  O4  UNK     1      29.331  -4.013  37.914  1.00  0.00    -0.259 OA
HETATM    3  C9  UNK     1      30.440  -6.098  38.111  1.00  0.00     0.108 A 
HETATM    4  C12 UNK     1      30.342  -7.418  38.311  1.00  0.00     0.037 A 
HETATM    5  C13 UNK     1      29.041  -8.033  38.520  1.00  0.00     0.002 A 
HETATM    6  C14 UNK     1      27.907  -7.230  38.510  1.00  0.00     0.123 A 
HETATM    7  C15 UNK     1      29.245  -5.223  38.095  1.00  0.00     0.304 A 
HETATM    8  C16 UNK     1      26.632  -7.757  38.704  1.00  0.00     0.103 A 
HETATM    9  C17 UNK     1      28.893  -9.406  38.733  1.00  0.00     0.014 A 
HETATM   10  C18 UNK     1      26.492  -9.127  38.916  1.00  0.00     0.040 A 
HETATM   11  C19 UNK     1      27.621  -9.950  38.929  1.00  0.00     0.004 A 
ENDROOT
BRANCH   3  12
HETATM   12  C6  UNK     1      31.804  -5.567  37.908  1.00  0.00     0.260 C 
HETATM   13  O2  UNK     1      32.389  -5.099  38.886  1.00  0.00    -0.267 OA
HETATM   14  N1  UNK     1      32.329  -5.626  36.616  1.00  0.00    -0.343 N 
HETATM   15  C1  UNK     1      33.604  -4.962  36.340  1.00  0.00     0.131 C 
HETATM   16  C3  UNK     1      31.621  -6.187  35.454  1.00  0.00     0.165 C 
HETATM   17  C2  UNK     1      34.549  -5.889  35.586  1.00  0.00     0.059 C 
HETATM   18  C4  UNK     1      33.896  -6.415  34.338  1.00  0.00    -0.049 A 
HETATM   19  C5  UNK     1      32.500  -6.560  34.284  1.00  0.00    -0.034 A 
HETATM   20  C7  UNK     1      34.679  -6.806  33.244  1.00  0.00     0.008 A 
HETATM   21  C8  UNK     1      31.906  -7.073  33.121  1.00  0.00     0.009 A 
HETATM   22  C11 UNK     1      32.693  -7.445  32.030  1.00  0.00     0.001 A 
HETATM   23  C10 UNK     1      34.077  -7.314  32.093  1.00  0.00     0.001 A 
ENDBRANCH   3  12
BRANCH   8  24
HETATM   24  O3  UNK     1      25.530  -6.959  38.693  1.00  0.00    -0.349 OA
BRANCH  24  25
HETATM   25  C20 UNK     1      24.265  -7.595  38.870  1.00  0.00     0.171 C 
HETATM   26  C21 UNK     1      23.243  -6.554  39.274  1.00  0.00     0.034 C 
ENDBRANCH  24  25
ENDBRANCH   8  24
TORSDOF 3
ENDMDL
