MODEL 1
REMARK VINA RESULT:      -8.1      0.000      0.000
REMARK  3 active torsions:
REMARK  status: ('A' for Active; 'I' for Inactive)
REMARK    1  A    between atoms: C17_22  and  O4_4 
REMARK    2  A    between atoms: C4_9  and  C5_10 
REMARK    3  A    between atoms: C17_22  and  C9_14 
ROOT
HETATM    1  O1  UNK     1      18.246   9.667  34.435  1.00  0.00    -0.237 OA
HETATM    2  O2  UNK     1      20.311   8.872  34.058  1.00  0.00    -0.259 OA
HETATM    3  O3  UNK     1      16.193  10.474  34.861  1.00  0.00    -0.259 OA
HETATM    4  C1  UNK     1      17.059   7.497  33.041  1.00  0.00    -0.004 A 
HETATM    5  C2  UNK     1      18.488   7.518  33.349  1.00  0.00     0.052 C 
HETATM    6  C3  UNK     1      16.283   8.546  33.530  1.00  0.00     0.051 A 
HETATM    7  C4  UNK     1      19.319   6.483  33.136  1.00  0.00     0.031 C 
HETATM    8  C6  UNK     1      16.431   6.502  32.273  1.00  0.00     0.013 A 
HETATM    9  C7  UNK     1      19.096   8.722  33.959  1.00  0.00     0.301 C 
HETATM   10  C8  UNK     1      14.905   8.596  33.274  1.00  0.00     0.018 A 
HETATM   11  C10 UNK     1      16.896   9.622  34.328  1.00  0.00     0.301 C 
HETATM   12  C11 UNK     1      15.059   6.551  32.017  1.00  0.00     0.001 A 
HETATM   13  C13 UNK     1      14.295   7.597  32.520  1.00  0.00     0.001 A 
ENDROOT
BRANCH   7  14
HETATM   14  C5  UNK     1      18.918   5.228  32.582  1.00  0.00    -0.018 A 
HETATM   15  C12 UNK     1      18.341   4.253  33.418  1.00  0.00     0.012 A 
HETATM   16  C15 UNK     1      17.936   3.018  32.910  1.00  0.00     0.001 A 
HETATM   17  C16 UNK     1      18.101   2.734  31.556  1.00  0.00     0.001 A 
HETATM   18  C14 UNK     1      18.670   3.683  30.707  1.00  0.00     0.019 A 
HETATM   19  C9  UNK     1      19.075   4.918  31.215  1.00  0.00     0.048 A 
BRANCH  19  20
HETATM   20  C17 UNK     1      19.664   5.884  30.295  1.00  0.00     0.176 C 
HETATM   21  O5  UNK     1      20.872   6.067  30.132  1.00  0.00    -0.646 OA
BRANCH  20  22
HETATM   22  O4  UNK     1      18.722   6.586  29.610  1.00  0.00    -0.773 OA
HETATM   23  H10 UNK     1      18.805   6.459  28.641  1.00  0.00     0.167 HD
ENDBRANCH  20  22
ENDBRANCH  19  20
ENDBRANCH   7  14
TORSDOF 3
ENDMDL
MODEL 2
REMARK VINA RESULT:      -7.9     22.106     24.163
REMARK  3 active torsions:
REMARK  status: ('A' for Active; 'I' for Inactive)
REMARK    1  A    between atoms: C17_22  and  O4_4 
REMARK    2  A    between atoms: C4_9  and  C5_10 
REMARK    3  A    between atoms: C17_22  and  C9_14 
ROOT
HETATM    1  O1  UNK     1      16.046   6.756  10.659  1.00  0.00    -0.237 OA
HETATM    2  O2  UNK     1      16.180   5.241   9.009  1.00  0.00    -0.259 OA
HETATM    3  O3  UNK     1      15.927   8.237  12.345  1.00  0.00    -0.259 OA
HETATM    4  C1  UNK     1      13.579   7.750   9.666  1.00  0.00    -0.004 A 
HETATM    5  C2  UNK     1      14.192   6.540   9.120  1.00  0.00     0.052 C 
HETATM    6  C3  UNK     1      14.211   8.353  10.752  1.00  0.00     0.051 A 
HETATM    7  C4  UNK     1      13.595   5.734   8.225  1.00  0.00     0.031 C 
HETATM    8  C6  UNK     1      12.413   8.345   9.156  1.00  0.00     0.013 A 
HETATM    9  C7  UNK     1      15.539   6.126   9.570  1.00  0.00     0.301 C 
HETATM   10  C8  UNK     1      13.683   9.517  11.330  1.00  0.00     0.018 A 
HETATM   11  C10 UNK     1      15.444   7.777  11.315  1.00  0.00     0.301 C 
HETATM   12  C11 UNK     1      11.887   9.505   9.730  1.00  0.00     0.001 A 
HETATM   13  C13 UNK     1      12.521  10.090  10.819  1.00  0.00     0.001 A 
ENDROOT
BRANCH   7  14
HETATM   14  C5  UNK     1      12.287   5.949   7.692  1.00  0.00    -0.018 A 
HETATM   15  C12 UNK     1      12.139   6.639   6.473  1.00  0.00     0.012 A 
HETATM   16  C15 UNK     1      10.877   6.866   5.923  1.00  0.00     0.001 A 
HETATM   17  C16 UNK     1       9.737   6.407   6.582  1.00  0.00     0.001 A 
HETATM   18  C14 UNK     1       9.858   5.721   7.791  1.00  0.00     0.019 A 
HETATM   19  C9  UNK     1      11.120   5.495   8.341  1.00  0.00     0.048 A 
BRANCH  19  20
HETATM   20  C17 UNK     1      11.203   4.773   9.605  1.00  0.00     0.176 C 
HETATM   21  O5  UNK     1      11.543   5.263  10.684  1.00  0.00    -0.646 OA
BRANCH  20  22
HETATM   22  O4  UNK     1      10.859   3.464   9.476  1.00  0.00    -0.773 OA
HETATM   23  H10 UNK     1      11.437   2.879  10.011  1.00  0.00     0.167 HD
ENDBRANCH  20  22
ENDBRANCH  19  20
ENDBRANCH   7  14
TORSDOF 3
ENDMDL
MODEL 3
REMARK VINA RESULT:      -7.8     17.187     18.752
REMARK  3 active torsions:
REMARK  status: ('A' for Active; 'I' for Inactive)
REMARK    1  A    between atoms: C17_22  and  O4_4 
REMARK    2  A    between atoms: C4_9  and  C5_10 
REMARK    3  A    between atoms: C17_22  and  C9_14 
ROOT
HETATM    1  O1  UNK     1      27.861  -5.069  39.185  1.00  0.00    -0.237 OA
HETATM    2  O2  UNK     1      29.487  -3.667  39.837  1.00  0.00    -0.259 OA
HETATM    3  O3  UNK     1      26.221  -6.482  38.582  1.00  0.00    -0.259 OA
HETATM    4  C1  UNK     1      29.552  -6.271  37.246  1.00  0.00    -0.004 A 
HETATM    5  C2  UNK     1      30.070  -5.318  38.227  1.00  0.00     0.052 C 
HETATM    6  C3  UNK     1      28.211  -6.632  37.351  1.00  0.00     0.051 A 
HETATM    7  C4  UNK     1      31.375  -5.039  38.389  1.00  0.00     0.031 C 
HETATM    8  C6  UNK     1      30.315  -6.825  36.205  1.00  0.00     0.013 A 
HETATM    9  C7  UNK     1      29.138  -4.613  39.136  1.00  0.00     0.301 C 
HETATM   10  C8  UNK     1      27.642  -7.541  36.446  1.00  0.00     0.018 A 
HETATM   11  C10 UNK     1      27.364  -6.069  38.416  1.00  0.00     0.301 C 
HETATM   12  C11 UNK     1      29.750  -7.729  35.302  1.00  0.00     0.001 A 
HETATM   13  C13 UNK     1      28.413  -8.089  35.424  1.00  0.00     0.001 A 
ENDROOT
BRANCH   7  14
HETATM   14  C5  UNK     1      32.427  -5.636  37.628  1.00  0.00    -0.018 A 
HETATM   15  C12 UNK     1      32.996  -6.848  38.063  1.00  0.00     0.012 A 
HETATM   16  C15 UNK     1      34.024  -7.459  37.343  1.00  0.00     0.001 A 
HETATM   17  C16 UNK     1      34.503  -6.869  36.175  1.00  0.00     0.001 A 
HETATM   18  C14 UNK     1      33.955  -5.668  35.723  1.00  0.00     0.019 A 
HETATM   19  C9  UNK     1      32.927  -5.057  36.443  1.00  0.00     0.048 A 
BRANCH  19  20
HETATM   20  C17 UNK     1      32.380  -3.803  35.937  1.00  0.00     0.176 C 
HETATM   21  O5  UNK     1      32.546  -2.695  36.452  1.00  0.00    -0.646 OA
BRANCH  20  22
HETATM   22  O4  UNK     1      31.648  -3.979  34.806  1.00  0.00    -0.773 OA
HETATM   23  H10 UNK     1      32.143  -4.482  34.125  1.00  0.00     0.167 HD
ENDBRANCH  20  22
ENDBRANCH  19  20
ENDBRANCH   7  14
TORSDOF 3
ENDMDL
MODEL 4
REMARK VINA RESULT:      -7.6     17.597     19.259
REMARK  3 active torsions:
REMARK  status: ('A' for Active; 'I' for Inactive)
REMARK    1  A    between atoms: C17_22  and  O4_4 
REMARK    2  A    between atoms: C4_9  and  C5_10 
REMARK    3  A    between atoms: C17_22  and  C9_14 
ROOT
HETATM    1  O1  UNK     1      28.579  -5.615  38.498  1.00  0.00    -0.237 OA
HETATM    2  O2  UNK     1      30.067  -4.260  39.491  1.00  0.00    -0.259 OA
HETATM    3  O3  UNK     1      27.085  -6.999  37.549  1.00  0.00    -0.259 OA
HETATM    4  C1  UNK     1      30.182  -5.811  36.163  1.00  0.00    -0.004 A 
HETATM    5  C2  UNK     1      30.676  -5.164  37.378  1.00  0.00     0.052 C 
HETATM    6  C3  UNK     1      28.922  -6.402  36.220  1.00  0.00     0.051 A 
HETATM    7  C4  UNK     1      31.942  -4.744  37.544  1.00  0.00     0.031 C 
HETATM    8  C6  UNK     1      30.887  -5.855  34.948  1.00  0.00     0.013 A 
HETATM    9  C7  UNK     1      29.769  -4.964  38.530  1.00  0.00     0.301 C 
HETATM   10  C8  UNK     1      28.380  -7.041  35.094  1.00  0.00     0.018 A 
HETATM   11  C10 UNK     1      28.136  -6.372  37.465  1.00  0.00     0.301 C 
HETATM   12  C11 UNK     1      30.349  -6.489  33.826  1.00  0.00     0.001 A 
HETATM   13  C13 UNK     1      29.095  -7.084  33.900  1.00  0.00     0.001 A 
ENDROOT
BRANCH   7  14
HETATM   14  C5  UNK     1      32.970  -4.873  36.560  1.00  0.00    -0.018 A 
HETATM   15  C12 UNK     1      33.179  -3.833  35.633  1.00  0.00     0.012 A 
HETATM   16  C15 UNK     1      34.175  -3.925  34.660  1.00  0.00     0.001 A 
HETATM   17  C16 UNK     1      34.981  -5.060  34.594  1.00  0.00     0.001 A 
HETATM   18  C14 UNK     1      34.794  -6.104  35.501  1.00  0.00     0.019 A 
HETATM   19  C9  UNK     1      33.798  -6.011  36.474  1.00  0.00     0.048 A 
BRANCH  19  20
HETATM   20  C17 UNK     1      33.636  -7.123  37.405  1.00  0.00     0.176 C 
HETATM   21  O5  UNK     1      32.814  -8.034  37.289  1.00  0.00    -0.646 OA
BRANCH  20  22
HETATM   22  O4  UNK     1      34.508  -7.056  38.445  1.00  0.00    -0.773 OA
HETATM   23  H10 UNK     1      34.791  -6.135  38.626  1.00  0.00     0.167 HD
ENDBRANCH  20  22
ENDBRANCH  19  20
ENDBRANCH   7  14
TORSDOF 3
ENDMDL
MODEL 5
REMARK VINA RESULT:      -7.6     17.265     19.129
REMARK  3 active torsions:
REMARK  status: ('A' for Active; 'I' for Inactive)
REMARK    1  A    between atoms: C17_22  and  O4_4 
REMARK    2  A    between atoms: C4_9  and  C5_10 
REMARK    3  A    between atoms: C17_22  and  C9_14 
ROOT
HETATM    1  O1  UNK     1      34.071  -5.194  36.229  1.00  0.00    -0.237 OA
HETATM    2  O2  UNK     1      34.164  -6.002  38.320  1.00  0.00    -0.259 OA
HETATM    3  O3  UNK     1      34.002  -4.342  34.151  1.00  0.00    -0.259 OA
HETATM    4  C1  UNK     1      31.378  -6.040  35.926  1.00  0.00    -0.004 A 
HETATM    5  C2  UNK     1      32.059  -6.104  37.219  1.00  0.00     0.052 C 
HETATM    6  C3  UNK     1      32.074  -5.470  34.863  1.00  0.00     0.051 A 
HETATM    7  C4  UNK     1      31.451  -6.423  38.375  1.00  0.00     0.031 C 
HETATM    8  C6  UNK     1      30.083  -6.531  35.691  1.00  0.00     0.013 A 
HETATM    9  C7  UNK     1      33.500  -5.778  37.312  1.00  0.00     0.301 C 
HETATM   10  C8  UNK     1      31.487  -5.375  33.592  1.00  0.00     0.018 A 
HETATM   11  C10 UNK     1      33.440  -4.954  35.054  1.00  0.00     0.301 C 
HETATM   12  C11 UNK     1      29.497  -6.438  34.426  1.00  0.00     0.001 A 
HETATM   13  C13 UNK     1      30.199  -5.858  33.377  1.00  0.00     0.001 A 
ENDROOT
BRANCH   7  14
HETATM   14  C5  UNK     1      30.063  -6.741  38.494  1.00  0.00    -0.018 A 
HETATM   15  C12 UNK     1      29.644  -8.079  38.363  1.00  0.00     0.012 A 
HETATM   16  C15 UNK     1      28.296  -8.425  38.476  1.00  0.00     0.001 A 
HETATM   17  C16 UNK     1      27.342  -7.438  38.720  1.00  0.00     0.001 A 
HETATM   18  C14 UNK     1      27.733  -6.106  38.853  1.00  0.00     0.019 A 
HETATM   19  C9  UNK     1      29.080  -5.760  38.741  1.00  0.00     0.048 A 
BRANCH  19  20
HETATM   20  C17 UNK     1      29.447  -4.356  38.888  1.00  0.00     0.176 C 
HETATM   21  O5  UNK     1      29.621  -3.775  39.961  1.00  0.00    -0.646 OA
BRANCH  20  22
HETATM   22  O4  UNK     1      29.586  -3.731  37.689  1.00  0.00    -0.773 OA
HETATM   23  H10 UNK     1      29.994  -2.844  37.785  1.00  0.00     0.167 HD
ENDBRANCH  20  22
ENDBRANCH  19  20
ENDBRANCH   7  14
TORSDOF 3
ENDMDL
MODEL 6
REMARK VINA RESULT:      -7.5     22.351     24.315
REMARK  3 active torsions:
REMARK  status: ('A' for Active; 'I' for Inactive)
REMARK    1  A    between atoms: C17_22  and  O4_4 
REMARK    2  A    between atoms: C4_9  and  C5_10 
REMARK    3  A    between atoms: C17_22  and  C9_14 
ROOT
HETATM    1  O1  UNK     1      15.654   6.429  10.657  1.00  0.00    -0.237 OA
HETATM    2  O2  UNK     1      15.368   4.632   9.343  1.00  0.00    -0.259 OA
HETATM    3  O3  UNK     1      15.958   8.197  12.009  1.00  0.00    -0.259 OA
HETATM    4  C1  UNK     1      13.125   7.485   9.914  1.00  0.00    -0.004 A 
HETATM    5  C2  UNK     1      13.535   6.137   9.524  1.00  0.00     0.052 C 
HETATM    6  C3  UNK     1      13.990   8.205  10.736  1.00  0.00     0.051 A 
HETATM    7  C4  UNK     1      12.726   5.249   8.921  1.00  0.00     0.031 C 
HETATM    8  C6  UNK     1      11.932   8.099   9.499  1.00  0.00     0.013 A 
HETATM    9  C7  UNK     1      14.909   5.669   9.816  1.00  0.00     0.301 C 
HETATM   10  C8  UNK     1      13.666   9.505  11.151  1.00  0.00     0.018 A 
HETATM   11  C10 UNK     1      15.260   7.612  11.188  1.00  0.00     0.301 C 
HETATM   12  C11 UNK     1      11.608   9.394   9.910  1.00  0.00     0.001 A 
HETATM   13  C13 UNK     1      12.475  10.097  10.738  1.00  0.00     0.001 A 
ENDROOT
BRANCH   7  14
HETATM   14  C5  UNK     1      11.361   5.504   8.583  1.00  0.00    -0.018 A 
HETATM   15  C12 UNK     1      10.350   5.232   9.525  1.00  0.00     0.012 A 
HETATM   16  C15 UNK     1       9.007   5.470   9.228  1.00  0.00     0.001 A 
HETATM   17  C16 UNK     1       8.649   5.984   7.983  1.00  0.00     0.001 A 
HETATM   18  C14 UNK     1       9.632   6.261   7.033  1.00  0.00     0.019 A 
HETATM   19  C9  UNK     1      10.975   6.023   7.329  1.00  0.00     0.048 A 
BRANCH  19  20
HETATM   20  C17 UNK     1      11.972   6.327   6.310  1.00  0.00     0.176 C 
HETATM   21  O5  UNK     1      13.006   6.973   6.495  1.00  0.00    -0.646 OA
BRANCH  20  22
HETATM   22  O4  UNK     1      11.643   5.811   5.095  1.00  0.00    -0.773 OA
HETATM   23  H10 UNK     1      12.131   4.982   4.907  1.00  0.00     0.167 HD
ENDBRANCH  20  22
ENDBRANCH  19  20
ENDBRANCH   7  14
TORSDOF 3
ENDMDL
MODEL 7
REMARK VINA RESULT:      -7.5     23.845     25.153
REMARK  3 active torsions:
REMARK  status: ('A' for Active; 'I' for Inactive)
REMARK    1  A    between atoms: C17_22  and  O4_4 
REMARK    2  A    between atoms: C4_9  and  C5_10 
REMARK    3  A    between atoms: C17_22  and  C9_14 
ROOT
HETATM    1  O1  UNK     1       6.268   7.128  11.069  1.00  0.00    -0.237 OA
HETATM    2  O2  UNK     1       6.501   5.003  10.387  1.00  0.00    -0.259 OA
HETATM    3  O3  UNK     1       5.985   9.254  11.739  1.00  0.00    -0.259 OA
HETATM    4  C1  UNK     1       8.672   7.901   9.771  1.00  0.00    -0.004 A 
HETATM    5  C2  UNK     1       8.089   6.575   9.574  1.00  0.00     0.052 C 
HETATM    6  C3  UNK     1       7.959   8.804  10.557  1.00  0.00     0.051 A 
HETATM    7  C4  UNK     1       8.542   5.679   8.680  1.00  0.00     0.031 C 
HETATM    8  C6  UNK     1       9.905   8.310   9.236  1.00  0.00     0.013 A 
HETATM    9  C7  UNK     1       6.909   6.161  10.366  1.00  0.00     0.301 C 
HETATM   10  C8  UNK     1       8.455  10.095  10.793  1.00  0.00     0.018 A 
HETATM   11  C10 UNK     1       6.668   8.420  11.154  1.00  0.00     0.301 C 
HETATM   12  C11 UNK     1      10.401   9.594   9.471  1.00  0.00     0.001 A 
HETATM   13  C13 UNK     1       9.675  10.488  10.248  1.00  0.00     0.001 A 
ENDROOT
BRANCH   7  14
HETATM   14  C5  UNK     1       9.650   5.903   7.806  1.00  0.00    -0.018 A 
HETATM   15  C12 UNK     1       9.433   6.502   6.549  1.00  0.00     0.012 A 
HETATM   16  C15 UNK     1      10.492   6.737   5.672  1.00  0.00     0.001 A 
HETATM   17  C16 UNK     1      11.790   6.376   6.033  1.00  0.00     0.001 A 
HETATM   18  C14 UNK     1      12.030   5.782   7.272  1.00  0.00     0.019 A 
HETATM   19  C9  UNK     1      10.971   5.547   8.149  1.00  0.00     0.048 A 
BRANCH  19  20
HETATM   20  C17 UNK     1      11.264   4.925   9.436  1.00  0.00     0.176 C 
HETATM   21  O5  UNK     1      11.853   5.469  10.372  1.00  0.00    -0.646 OA
BRANCH  20  22
HETATM   22  O4  UNK     1      10.810   3.645   9.505  1.00  0.00    -0.773 OA
HETATM   23  H10 UNK     1       9.891   3.603   9.846  1.00  0.00     0.167 HD
ENDBRANCH  20  22
ENDBRANCH  19  20
ENDBRANCH   7  14
TORSDOF 3
ENDMDL
MODEL 8
REMARK VINA RESULT:      -7.5     17.579     19.321
REMARK  3 active torsions:
REMARK  status: ('A' for Active; 'I' for Inactive)
REMARK    1  A    between atoms: C17_22  and  O4_4 
REMARK    2  A    between atoms: C4_9  and  C5_10 
REMARK    3  A    between atoms: C17_22  and  C9_14 
ROOT
HETATM    1  O1  UNK     1      30.524  -3.466  38.232  1.00  0.00    -0.237 OA
HETATM    2  O2  UNK     1      31.763  -3.158  36.386  1.00  0.00    -0.259 OA
HETATM    3  O3  UNK     1      29.320  -3.750  40.107  1.00  0.00    -0.259 OA
HETATM    4  C1  UNK     1      29.919  -6.138  37.487  1.00  0.00    -0.004 A 
HETATM    5  C2  UNK     1      30.906  -5.345  36.755  1.00  0.00     0.052 C 
HETATM    6  C3  UNK     1      29.345  -5.561  38.618  1.00  0.00     0.051 A 
HETATM    7  C4  UNK     1      31.695  -5.836  35.785  1.00  0.00     0.031 C 
HETATM    8  C6  UNK     1      29.507  -7.428  37.112  1.00  0.00     0.013 A 
HETATM    9  C7  UNK     1      31.100  -3.916  37.089  1.00  0.00     0.301 C 
HETATM   10  C8  UNK     1      28.390  -6.260  39.371  1.00  0.00     0.018 A 
HETATM   11  C10 UNK     1      29.733  -4.206  39.046  1.00  0.00     0.301 C 
HETATM   12  C11 UNK     1      28.555  -8.124  37.861  1.00  0.00     0.001 A 
HETATM   13  C13 UNK     1      27.998  -7.541  38.992  1.00  0.00     0.001 A 
ENDROOT
BRANCH   7  14
HETATM   14  C5  UNK     1      31.677  -7.194  35.341  1.00  0.00    -0.018 A 
HETATM   15  C12 UNK     1      30.873  -7.554  34.241  1.00  0.00     0.012 A 
HETATM   16  C15 UNK     1      30.833  -8.871  33.781  1.00  0.00     0.001 A 
HETATM   17  C16 UNK     1      31.594  -9.854  34.412  1.00  0.00     0.001 A 
HETATM   18  C14 UNK     1      32.397  -9.522  35.503  1.00  0.00     0.019 A 
HETATM   19  C9  UNK     1      32.438  -8.205  35.963  1.00  0.00     0.048 A 
BRANCH  19  20
HETATM   20  C17 UNK     1      33.292  -7.899  37.106  1.00  0.00     0.176 C 
HETATM   21  O5  UNK     1      32.914  -7.826  38.277  1.00  0.00    -0.646 OA
BRANCH  20  22
HETATM   22  O4  UNK     1      34.586  -7.696  36.743  1.00  0.00    -0.773 OA
HETATM   23  H10 UNK     1      34.657  -7.140  35.938  1.00  0.00     0.167 HD
ENDBRANCH  20  22
ENDBRANCH  19  20
ENDBRANCH   7  14
TORSDOF 3
ENDMDL
MODEL 9
REMARK VINA RESULT:      -7.4     17.748     19.646
REMARK  3 active torsions:
REMARK  status: ('A' for Active; 'I' for Inactive)
REMARK    1  A    between atoms: C17_22  and  O4_4 
REMARK    2  A    between atoms: C4_9  and  C5_10 
REMARK    3  A    between atoms: C17_22  and  C9_14 
ROOT
HETATM    1  O1  UNK     1      31.410  -6.098  34.709  1.00  0.00    -0.237 OA
HETATM    2  O2  UNK     1      30.655  -8.038  33.871  1.00  0.00    -0.259 OA
HETATM    3  O3  UNK     1      32.213  -4.169  35.533  1.00  0.00    -0.259 OA
HETATM    4  C1  UNK     1      29.815  -6.382  37.041  1.00  0.00    -0.004 A 
HETATM    5  C2  UNK     1      29.948  -7.466  36.069  1.00  0.00     0.052 C 
HETATM    6  C3  UNK     1      30.568  -5.230  36.822  1.00  0.00     0.051 A 
HETATM    7  C4  UNK     1      29.460  -8.705  36.252  1.00  0.00     0.031 C 
HETATM    8  C6  UNK     1      28.968  -6.424  38.161  1.00  0.00     0.013 A 
HETATM    9  C7  UNK     1      30.680  -7.238  34.802  1.00  0.00     0.301 C 
HETATM   10  C8  UNK     1      30.493  -4.147  37.711  1.00  0.00     0.018 A 
HETATM   11  C10 UNK     1      31.460  -5.129  35.655  1.00  0.00     0.301 C 
HETATM   12  C11 UNK     1      28.891  -5.347  39.046  1.00  0.00     0.001 A 
HETATM   13  C13 UNK     1      29.655  -4.208  38.822  1.00  0.00     0.001 A 
ENDROOT
BRANCH   7  14
HETATM   14  C5  UNK     1      28.750  -9.127  37.418  1.00  0.00    -0.018 A 
HETATM   15  C12 UNK     1      27.349  -8.993  37.464  1.00  0.00     0.012 A 
HETATM   16  C15 UNK     1      26.624  -9.396  38.587  1.00  0.00     0.001 A 
HETATM   17  C16 UNK     1      27.287  -9.940  39.686  1.00  0.00     0.001 A 
HETATM   18  C14 UNK     1      28.674 -10.083  39.664  1.00  0.00     0.019 A 
HETATM   19  C9  UNK     1      29.399  -9.680  38.542  1.00  0.00     0.048 A 
BRANCH  19  20
HETATM   20  C17 UNK     1      30.848  -9.847  38.558  1.00  0.00     0.176 C 
HETATM   21  O5  UNK     1      31.671  -8.930  38.532  1.00  0.00    -0.646 OA
BRANCH  20  22
HETATM   22  O4  UNK     1      31.215 -11.155  38.608  1.00  0.00    -0.773 OA
HETATM   23  H10 UNK     1      31.993 -11.338  38.038  1.00  0.00     0.167 HD
ENDBRANCH  20  22
ENDBRANCH  19  20
ENDBRANCH   7  14
TORSDOF 3
ENDMDL
MODEL 10
REMARK VINA RESULT:      -7.4     17.935     20.297
REMARK  3 active torsions:
REMARK  status: ('A' for Active; 'I' for Inactive)
REMARK    1  A    between atoms: C17_22  and  O4_4 
REMARK    2  A    between atoms: C4_9  and  C5_10 
REMARK    3  A    between atoms: C17_22  and  C9_14 
ROOT
HETATM    1  O1  UNK     1      29.169  -9.519  38.789  1.00  0.00    -0.237 OA
HETATM    2  O2  UNK     1      30.986 -10.736  38.284  1.00  0.00    -0.259 OA
HETATM    3  O3  UNK     1      27.321  -8.334  39.268  1.00  0.00    -0.259 OA
HETATM    4  C1  UNK     1      30.533  -7.090  38.236  1.00  0.00    -0.004 A 
HETATM    5  C2  UNK     1      31.126  -8.389  37.922  1.00  0.00     0.052 C 
HETATM    6  C3  UNK     1      29.235  -7.085  38.743  1.00  0.00     0.051 A 
HETATM    7  C4  UNK     1      32.271  -8.547  37.236  1.00  0.00     0.031 C 
HETATM    8  C6  UNK     1      31.193  -5.861  38.076  1.00  0.00     0.013 A 
HETATM    9  C7  UNK     1      30.446  -9.634  38.343  1.00  0.00     0.301 C 
HETATM   10  C8  UNK     1      28.598  -5.878  39.068  1.00  0.00     0.018 A 
HETATM   11  C10 UNK     1      28.504  -8.348  38.942  1.00  0.00     0.301 C 
HETATM   12  C11 UNK     1      30.561  -4.658  38.402  1.00  0.00     0.001 A 
HETATM   13  C13 UNK     1      29.263  -4.667  38.896  1.00  0.00     0.001 A 
ENDROOT
BRANCH   7  14
HETATM   14  C5  UNK     1      33.057  -7.470  36.722  1.00  0.00    -0.018 A 
HETATM   15  C12 UNK     1      34.099  -6.935  37.505  1.00  0.00     0.012 A 
HETATM   16  C15 UNK     1      34.887  -5.885  37.034  1.00  0.00     0.001 A 
HETATM   17  C16 UNK     1      34.648  -5.347  35.770  1.00  0.00     0.001 A 
HETATM   18  C14 UNK     1      33.622  -5.859  34.975  1.00  0.00     0.019 A 
HETATM   19  C9  UNK     1      32.834  -6.910  35.447  1.00  0.00     0.048 A 
BRANCH  19  20
HETATM   20  C17 UNK     1      31.773  -7.418  34.585  1.00  0.00     0.176 C 
HETATM   21  O5  UNK     1      31.867  -8.395  33.840  1.00  0.00    -0.646 OA
BRANCH  20  22
HETATM   22  O4  UNK     1      30.631  -6.687  34.687  1.00  0.00    -0.773 OA
HETATM   23  H10 UNK     1      30.159  -6.626  33.829  1.00  0.00     0.167 HD
ENDBRANCH  20  22
ENDBRANCH  19  20
ENDBRANCH   7  14
TORSDOF 3
ENDMDL
