MODEL 1
REMARK VINA RESULT:      -9.1      0.000      0.000
REMARK  5 active torsions:
REMARK  status: ('A' for Active; 'I' for Inactive)
REMARK    1  A    between atoms: C11_18  and  O2_4 
REMARK    2  A    between atoms: C6_13  and  O2_4 
REMARK    3  A    between atoms: C12_19  and  O3_5 
REMARK    4  A    between atoms: C13_20  and  O3_5 
REMARK    5  A    between atoms: C11_18  and  C12_19 
ROOT
HETATM    1  O2  UNK     1      19.453  -0.872  31.218  1.00  0.00    -0.341 OA
ENDROOT
BRANCH   1   2
HETATM    2  C11 UNK     1      19.917   0.417  30.817  1.00  0.00     0.287 C 
BRANCH   2   3
HETATM    3  C12 UNK     1      19.011   0.943  29.734  1.00  0.00     0.288 C 
HETATM    4  O5  UNK     1      19.202   0.815  28.533  1.00  0.00    -0.262 OA
BRANCH   3   5
HETATM    5  O3  UNK     1      17.936   1.586  30.343  1.00  0.00    -0.277 OA
BRANCH   5   6
HETATM    6  C13 UNK     1      18.286   2.816  30.903  1.00  0.00     0.081 A 
HETATM    7  C14 UNK     1      18.958   3.732  30.123  1.00  0.00     0.063 A 
HETATM    8  C16 UNK     1      19.306   4.961  30.683  1.00  0.00     0.058 A 
HETATM    9 Cl1  UNK     1      20.149   6.093  29.683  1.00  0.00    -0.082 Cl
HETATM   10  C18 UNK     1      18.975   5.243  32.008  1.00  0.00     0.056 A 
HETATM   11  C17 UNK     1      18.295   4.296  32.774  1.00  0.00     0.028 A 
HETATM   12 Cl2  UNK     1      19.380   6.747  32.758  1.00  0.00    -0.083 Cl
HETATM   13  C15 UNK     1      17.946   3.068  32.214  1.00  0.00     0.039 A 
ENDBRANCH   5   6
ENDBRANCH   3   5
ENDBRANCH   2   3
ENDBRANCH   1   2
BRANCH   1  14
HETATM   14  C6  UNK     1      19.291  -1.085  32.552  1.00  0.00     0.072 A 
HETATM   15  C5  UNK     1      20.033  -2.069  33.197  1.00  0.00     0.075 A 
HETATM   16  C2  UNK     1      19.852  -2.270  34.567  1.00  0.00     0.092 A 
HETATM   17  C1  UNK     1      18.949  -1.517  35.318  1.00  0.00     0.004 A 
HETATM   18  O1  UNK     1      20.631  -3.282  35.164  1.00  0.00    -0.275 OA
HETATM   19  C3  UNK     1      18.823  -1.797  36.755  1.00  0.00    -0.043 A 
HETATM   20  C4  UNK     1      18.212  -0.530  34.650  1.00  0.00     0.017 A 
HETATM   21  C8  UNK     1      19.577  -2.764  37.296  1.00  0.00     0.090 A 
HETATM   22  C9  UNK     1      17.862  -1.003  37.590  1.00  0.00     0.049 C 
HETATM   23  C10 UNK     1      20.534  -3.568  36.517  1.00  0.00     0.288 A 
HETATM   24  O4  UNK     1      21.207  -4.445  37.047  1.00  0.00    -0.260 OA
HETATM   25  C7  UNK     1      18.382  -0.316  33.277  1.00  0.00     0.038 A 
ENDBRANCH   1  14
TORSDOF 5
ENDMDL
MODEL 2
REMARK VINA RESULT:      -9.0      1.494      2.160
REMARK  5 active torsions:
REMARK  status: ('A' for Active; 'I' for Inactive)
REMARK    1  A    between atoms: C11_18  and  O2_4 
REMARK    2  A    between atoms: C6_13  and  O2_4 
REMARK    3  A    between atoms: C12_19  and  O3_5 
REMARK    4  A    between atoms: C13_20  and  O3_5 
REMARK    5  A    between atoms: C11_18  and  C12_19 
ROOT
HETATM    1  O2  UNK     1      19.374  -0.877  31.083  1.00  0.00    -0.341 OA
ENDROOT
BRANCH   1   2
HETATM    2  C11 UNK     1      19.841   0.425  30.731  1.00  0.00     0.287 C 
BRANCH   2   3
HETATM    3  C12 UNK     1      18.936   0.995  29.670  1.00  0.00     0.288 C 
HETATM    4  O5  UNK     1      19.114   0.892  28.464  1.00  0.00    -0.262 OA
BRANCH   3   5
HETATM    5  O3  UNK     1      17.880   1.644  30.303  1.00  0.00    -0.277 OA
BRANCH   5   6
HETATM    6  C13 UNK     1      18.258   2.854  30.887  1.00  0.00     0.081 A 
HETATM    7  C14 UNK     1      18.941   3.775  30.122  1.00  0.00     0.063 A 
HETATM    8  C16 UNK     1      19.318   4.983  30.707  1.00  0.00     0.058 A 
HETATM    9 Cl1  UNK     1      20.174   6.122  29.724  1.00  0.00    -0.082 Cl
HETATM   10  C18 UNK     1      19.005   5.242  32.041  1.00  0.00     0.056 A 
HETATM   11  C17 UNK     1      18.314   4.290  32.791  1.00  0.00     0.028 A 
HETATM   12 Cl2  UNK     1      19.446   6.719  32.821  1.00  0.00    -0.083 Cl
HETATM   13  C15 UNK     1      17.936   3.082  32.207  1.00  0.00     0.039 A 
ENDBRANCH   5   6
ENDBRANCH   3   5
ENDBRANCH   2   3
ENDBRANCH   1   2
BRANCH   1  14
HETATM   14  C6  UNK     1      19.366  -1.196  32.405  1.00  0.00     0.072 A 
HETATM   15  C5  UNK     1      18.495  -0.549  33.275  1.00  0.00     0.075 A 
HETATM   16  C2  UNK     1      18.503  -0.893  34.628  1.00  0.00     0.092 A 
HETATM   17  C1  UNK     1      19.358  -1.868  35.145  1.00  0.00     0.004 A 
HETATM   18  O1  UNK     1      17.598  -0.202  35.460  1.00  0.00    -0.275 OA
HETATM   19  C3  UNK     1      19.298  -2.166  36.582  1.00  0.00    -0.043 A 
HETATM   20  C4  UNK     1      20.227  -2.509  34.252  1.00  0.00     0.017 A 
HETATM   21  C8  UNK     1      18.428  -1.494  37.349  1.00  0.00     0.090 A 
HETATM   22  C9  UNK     1      20.204  -3.209  37.168  1.00  0.00     0.049 C 
HETATM   23  C10 UNK     1      17.520  -0.463  36.819  1.00  0.00     0.288 A 
HETATM   24  O4  UNK     1      16.737   0.132  37.552  1.00  0.00    -0.260 OA
HETATM   25  C7  UNK     1      20.231  -2.175  32.893  1.00  0.00     0.038 A 
ENDBRANCH   1  14
TORSDOF 5
ENDMDL
MODEL 3
REMARK VINA RESULT:      -8.8      4.422      8.128
REMARK  5 active torsions:
REMARK  status: ('A' for Active; 'I' for Inactive)
REMARK    1  A    between atoms: C11_18  and  O2_4 
REMARK    2  A    between atoms: C6_13  and  O2_4 
REMARK    3  A    between atoms: C12_19  and  O3_5 
REMARK    4  A    between atoms: C13_20  and  O3_5 
REMARK    5  A    between atoms: C11_18  and  C12_19 
ROOT
HETATM    1  O2  UNK     1      19.024   3.999  30.453  1.00  0.00    -0.341 OA
ENDROOT
BRANCH   1   2
HETATM    2  C11 UNK     1      18.160   2.897  30.728  1.00  0.00     0.287 C 
BRANCH   2   3
HETATM    3  C12 UNK     1      18.172   1.964  29.544  1.00  0.00     0.288 C 
HETATM    4  O5  UNK     1      17.183   1.611  28.916  1.00  0.00    -0.262 OA
BRANCH   3   5
HETATM    5  O3  UNK     1      19.491   1.588  29.302  1.00  0.00    -0.277 OA
BRANCH   5   6
HETATM    6  C13 UNK     1      19.819   0.359  29.877  1.00  0.00     0.081 A 
HETATM    7  C14 UNK     1      19.433   0.110  31.176  1.00  0.00     0.063 A 
HETATM    8  C16 UNK     1      19.762  -1.119  31.749  1.00  0.00     0.058 A 
HETATM    9 Cl1  UNK     1      19.265  -1.406  33.380  1.00  0.00    -0.082 Cl
HETATM   10  C18 UNK     1      20.469  -2.067  31.009  1.00  0.00     0.056 A 
HETATM   11  C17 UNK     1      20.848  -1.786  29.697  1.00  0.00     0.028 A 
HETATM   12 Cl2  UNK     1      20.906  -3.606  31.664  1.00  0.00    -0.083 Cl
HETATM   13  C15 UNK     1      20.519  -0.559  29.123  1.00  0.00     0.039 A 
ENDBRANCH   5   6
ENDBRANCH   3   5
ENDBRANCH   2   3
ENDBRANCH   1   2
BRANCH   1  14
HETATM   14  C6  UNK     1      19.004   5.036  31.332  1.00  0.00     0.072 A 
HETATM   15  C5  UNK     1      17.794   5.498  31.840  1.00  0.00     0.075 A 
HETATM   16  C2  UNK     1      17.797   6.564  32.742  1.00  0.00     0.092 A 
HETATM   17  C1  UNK     1      18.974   7.188  33.156  1.00  0.00     0.004 A 
HETATM   18  O1  UNK     1      16.540   6.986  33.222  1.00  0.00    -0.275 OA
HETATM   19  C3  UNK     1      18.883   8.303  34.109  1.00  0.00    -0.043 A 
HETATM   20  C4  UNK     1      20.182   6.708  32.634  1.00  0.00     0.017 A 
HETATM   21  C8  UNK     1      17.675   8.683  34.548  1.00  0.00     0.090 A 
HETATM   22  C9  UNK     1      20.131   8.994  34.573  1.00  0.00     0.049 C 
HETATM   23  C10 UNK     1      16.423   8.035  34.121  1.00  0.00     0.288 A 
HETATM   24  O4  UNK     1      15.336   8.411  34.545  1.00  0.00    -0.260 OA
HETATM   25  C7  UNK     1      20.197   5.640  31.728  1.00  0.00     0.038 A 
ENDBRANCH   1  14
TORSDOF 5
ENDMDL
MODEL 4
REMARK VINA RESULT:      -8.6      3.349      5.593
REMARK  5 active torsions:
REMARK  status: ('A' for Active; 'I' for Inactive)
REMARK    1  A    between atoms: C11_18  and  O2_4 
REMARK    2  A    between atoms: C6_13  and  O2_4 
REMARK    3  A    between atoms: C12_19  and  O3_5 
REMARK    4  A    between atoms: C13_20  and  O3_5 
REMARK    5  A    between atoms: C11_18  and  C12_19 
ROOT
HETATM    1  O2  UNK     1      17.652   4.086  31.940  1.00  0.00    -0.341 OA
ENDROOT
BRANCH   1   2
HETATM    2  C11 UNK     1      18.280   4.739  33.042  1.00  0.00     0.287 C 
BRANCH   2   3
HETATM    3  C12 UNK     1      19.084   5.903  32.522  1.00  0.00     0.288 C 
HETATM    4  O5  UNK     1      20.241   6.154  32.832  1.00  0.00    -0.262 OA
BRANCH   3   5
HETATM    5  O3  UNK     1      18.284   6.623  31.640  1.00  0.00    -0.277 OA
BRANCH   5   6
HETATM    6  C13 UNK     1      17.307   7.382  32.288  1.00  0.00     0.081 A 
HETATM    7  C14 UNK     1      15.981   7.075  32.078  1.00  0.00     0.063 A 
HETATM    8  C16 UNK     1      15.007   7.834  32.726  1.00  0.00     0.058 A 
HETATM    9 Cl1  UNK     1      13.349   7.428  32.445  1.00  0.00    -0.082 Cl
HETATM   10  C18 UNK     1      15.383   8.881  33.568  1.00  0.00     0.056 A 
HETATM   11  C17 UNK     1      16.734   9.169  33.762  1.00  0.00     0.028 A 
HETATM   12 Cl2  UNK     1      14.223   9.856  34.399  1.00  0.00    -0.083 Cl
HETATM   13  C15 UNK     1      17.708   8.410  33.114  1.00  0.00     0.039 A 
ENDBRANCH   5   6
ENDBRANCH   3   5
ENDBRANCH   2   3
ENDBRANCH   1   2
BRANCH   1  14
HETATM   14  C6  UNK     1      18.226   2.938  31.491  1.00  0.00     0.072 A 
HETATM   15  C5  UNK     1      18.460   1.884  32.367  1.00  0.00     0.075 A 
HETATM   16  C2  UNK     1      19.049   0.714  31.885  1.00  0.00     0.092 A 
HETATM   17  C1  UNK     1      19.415   0.561  30.547  1.00  0.00     0.004 A 
HETATM   18  O1  UNK     1      19.260  -0.318  32.821  1.00  0.00    -0.275 OA
HETATM   19  C3  UNK     1      20.030  -0.705  30.126  1.00  0.00    -0.043 A 
HETATM   20  C4  UNK     1      19.171   1.633  29.679  1.00  0.00     0.017 A 
HETATM   21  C8  UNK     1      20.219  -1.670  31.038  1.00  0.00     0.090 A 
HETATM   22  C9  UNK     1      20.434  -0.901  28.694  1.00  0.00     0.049 C 
HETATM   23  C10 UNK     1      19.838  -1.524  32.453  1.00  0.00     0.288 A 
HETATM   24  O4  UNK     1      20.027  -2.428  33.259  1.00  0.00    -0.260 OA
HETATM   25  C7  UNK     1      18.580   2.813  30.148  1.00  0.00     0.038 A 
ENDBRANCH   1  14
TORSDOF 5
ENDMDL
MODEL 5
REMARK VINA RESULT:      -8.6      4.932      9.453
REMARK  5 active torsions:
REMARK  status: ('A' for Active; 'I' for Inactive)
REMARK    1  A    between atoms: C11_18  and  O2_4 
REMARK    2  A    between atoms: C6_13  and  O2_4 
REMARK    3  A    between atoms: C12_19  and  O3_5 
REMARK    4  A    between atoms: C13_20  and  O3_5 
REMARK    5  A    between atoms: C11_18  and  C12_19 
ROOT
HETATM    1  O2  UNK     1      19.774  -2.669  34.850  1.00  0.00    -0.341 OA
ENDROOT
BRANCH   1   2
HETATM    2  C11 UNK     1      20.594  -2.143  35.893  1.00  0.00     0.287 C 
BRANCH   2   3
HETATM    3  C12 UNK     1      20.469  -3.032  37.104  1.00  0.00     0.288 C 
HETATM    4  O5  UNK     1      19.747  -2.812  38.066  1.00  0.00    -0.262 OA
BRANCH   3   5
HETATM    5  O3  UNK     1      21.309  -4.128  36.925  1.00  0.00    -0.277 OA
BRANCH   5   6
HETATM    6  C13 UNK     1      20.696  -5.340  37.247  1.00  0.00     0.081 A 
HETATM    7  C14 UNK     1      19.732  -5.841  36.398  1.00  0.00     0.063 A 
HETATM    8  C16 UNK     1      19.121  -7.052  36.720  1.00  0.00     0.058 A 
HETATM    9 Cl1  UNK     1      17.915  -7.660  35.639  1.00  0.00    -0.082 Cl
HETATM   10  C18 UNK     1      19.486  -7.732  37.882  1.00  0.00     0.056 A 
HETATM   11  C17 UNK     1      20.464  -7.200  38.722  1.00  0.00     0.028 A 
HETATM   12 Cl2  UNK     1      18.764  -9.236  38.335  1.00  0.00    -0.083 Cl
HETATM   13  C15 UNK     1      21.076  -5.989  38.401  1.00  0.00     0.039 A 
ENDBRANCH   5   6
ENDBRANCH   3   5
ENDBRANCH   2   3
ENDBRANCH   1   2
BRANCH   1  14
HETATM   14  C6  UNK     1      19.823  -2.039  33.646  1.00  0.00     0.072 A 
HETATM   15  C5  UNK     1      19.085  -0.879  33.433  1.00  0.00     0.075 A 
HETATM   16  C2  UNK     1      19.151  -0.248  32.190  1.00  0.00     0.092 A 
HETATM   17  C1  UNK     1      19.934  -0.739  31.145  1.00  0.00     0.004 A 
HETATM   18  O1  UNK     1      18.380   0.923  32.036  1.00  0.00    -0.275 OA
HETATM   19  C3  UNK     1      19.943  -0.009  29.870  1.00  0.00    -0.043 A 
HETATM   20  C4  UNK     1      20.671  -1.907  31.379  1.00  0.00     0.017 A 
HETATM   21  C8  UNK     1      19.201   1.101  29.751  1.00  0.00     0.090 A 
HETATM   22  C9  UNK     1      20.776  -0.512  28.727  1.00  0.00     0.049 C 
HETATM   23  C10 UNK     1      18.369   1.632  30.844  1.00  0.00     0.288 A 
HETATM   24  O4  UNK     1      17.703   2.650  30.699  1.00  0.00    -0.260 OA
HETATM   25  C7  UNK     1      20.616  -2.552  32.620  1.00  0.00     0.038 A 
ENDBRANCH   1  14
TORSDOF 5
ENDMDL
MODEL 6
REMARK VINA RESULT:      -8.5      4.584      8.788
REMARK  5 active torsions:
REMARK  status: ('A' for Active; 'I' for Inactive)
REMARK    1  A    between atoms: C11_18  and  O2_4 
REMARK    2  A    between atoms: C6_13  and  O2_4 
REMARK    3  A    between atoms: C12_19  and  O3_5 
REMARK    4  A    between atoms: C13_20  and  O3_5 
REMARK    5  A    between atoms: C11_18  and  C12_19 
ROOT
HETATM    1  O2  UNK     1      18.514  -1.625  35.035  1.00  0.00    -0.341 OA
ENDROOT
BRANCH   1   2
HETATM    2  C11 UNK     1      19.257  -1.268  36.200  1.00  0.00     0.287 C 
BRANCH   2   3
HETATM    3  C12 UNK     1      20.452  -2.179  36.312  1.00  0.00     0.288 C 
HETATM    4  O5  UNK     1      21.371  -2.235  35.507  1.00  0.00    -0.262 OA
BRANCH   3   5
HETATM    5  O3  UNK     1      20.319  -2.927  37.478  1.00  0.00    -0.277 OA
BRANCH   5   6
HETATM    6  C13 UNK     1      20.477  -4.298  37.265  1.00  0.00     0.081 A 
HETATM    7  C14 UNK     1      19.610  -4.940  36.408  1.00  0.00     0.063 A 
HETATM    8  C16 UNK     1      19.769  -6.310  36.196  1.00  0.00     0.058 A 
HETATM    9 Cl1  UNK     1      18.668  -7.092  35.117  1.00  0.00    -0.082 Cl
HETATM   10  C18 UNK     1      20.791  -7.002  36.846  1.00  0.00     0.056 A 
HETATM   11  C17 UNK     1      21.653  -6.325  37.708  1.00  0.00     0.028 A 
HETATM   12 Cl2  UNK     1      21.038  -8.698  36.624  1.00  0.00    -0.083 Cl
HETATM   13  C15 UNK     1      21.495  -4.957  37.920  1.00  0.00     0.039 A 
ENDBRANCH   5   6
ENDBRANCH   3   5
ENDBRANCH   2   3
ENDBRANCH   1   2
BRANCH   1  14
HETATM   14  C6  UNK     1      18.622  -0.805  33.955  1.00  0.00     0.072 A 
HETATM   15  C5  UNK     1      19.135  -1.291  32.757  1.00  0.00     0.075 A 
HETATM   16  C2  UNK     1      19.237  -0.432  31.661  1.00  0.00     0.092 A 
HETATM   17  C1  UNK     1      18.840   0.905  31.722  1.00  0.00     0.004 A 
HETATM   18  O1  UNK     1      19.764  -0.982  30.475  1.00  0.00    -0.275 OA
HETATM   19  C3  UNK     1      18.983   1.737  30.519  1.00  0.00    -0.043 A 
HETATM   20  C4  UNK     1      18.325   1.375  32.937  1.00  0.00     0.017 A 
HETATM   21  C8  UNK     1      19.487   1.187  29.406  1.00  0.00     0.090 A 
HETATM   22  C9  UNK     1      18.565   3.178  30.553  1.00  0.00     0.049 C 
HETATM   23  C10 UNK     1      19.910  -0.221  29.325  1.00  0.00     0.288 A 
HETATM   24  O4  UNK     1      20.368  -0.689  28.289  1.00  0.00    -0.260 OA
HETATM   25  C7  UNK     1      18.217   0.526  34.045  1.00  0.00     0.038 A 
ENDBRANCH   1  14
TORSDOF 5
ENDMDL
MODEL 7
REMARK VINA RESULT:      -8.5     24.284     26.285
REMARK  5 active torsions:
REMARK  status: ('A' for Active; 'I' for Inactive)
REMARK    1  A    between atoms: C11_18  and  O2_4 
REMARK    2  A    between atoms: C6_13  and  O2_4 
REMARK    3  A    between atoms: C12_19  and  O3_5 
REMARK    4  A    between atoms: C13_20  and  O3_5 
REMARK    5  A    between atoms: C11_18  and  C12_19 
ROOT
HETATM    1  O2  UNK     1      13.954   5.258  10.289  1.00  0.00    -0.341 OA
ENDROOT
BRANCH   1   2
HETATM    2  C11 UNK     1      15.164   4.746   9.732  1.00  0.00     0.287 C 
BRANCH   2   3
HETATM    3  C12 UNK     1      16.195   5.845   9.717  1.00  0.00     0.288 C 
HETATM    4  O5  UNK     1      17.244   5.817   9.088  1.00  0.00    -0.262 OA
BRANCH   3   5
HETATM    5  O3  UNK     1      15.740   6.877  10.533  1.00  0.00    -0.277 OA
BRANCH   5   6
HETATM    6  C13 UNK     1      15.829   8.130   9.923  1.00  0.00     0.081 A 
HETATM    7  C14 UNK     1      16.942   8.907  10.162  1.00  0.00     0.063 A 
HETATM    8  C16 UNK     1      17.028  10.158   9.552  1.00  0.00     0.058 A 
HETATM    9 Cl1  UNK     1      18.436  11.113   9.868  1.00  0.00    -0.082 Cl
HETATM   10  C18 UNK     1      16.001  10.602   8.719  1.00  0.00     0.056 A 
HETATM   11  C17 UNK     1      14.886   9.794   8.497  1.00  0.00     0.028 A 
HETATM   12 Cl2  UNK     1      16.051  12.142   7.936  1.00  0.00    -0.083 Cl
HETATM   13  C15 UNK     1      14.799   8.543   9.106  1.00  0.00     0.039 A 
ENDBRANCH   5   6
ENDBRANCH   3   5
ENDBRANCH   2   3
ENDBRANCH   1   2
BRANCH   1  14
HETATM   14  C6  UNK     1      12.913   5.453   9.435  1.00  0.00     0.072 A 
HETATM   15  C5  UNK     1      11.609   5.480   9.918  1.00  0.00     0.075 A 
HETATM   16  C2  UNK     1      10.556   5.682   9.025  1.00  0.00     0.092 A 
HETATM   17  C1  UNK     1      10.762   5.858   7.656  1.00  0.00     0.004 A 
HETATM   18  O1  UNK     1       9.257   5.699   9.574  1.00  0.00    -0.275 OA
HETATM   19  C3  UNK     1       9.595   6.065   6.789  1.00  0.00    -0.043 A 
HETATM   20  C4  UNK     1      12.083   5.828   7.189  1.00  0.00     0.017 A 
HETATM   21  C8  UNK     1       8.372   6.077   7.338  1.00  0.00     0.090 A 
HETATM   22  C9  UNK     1       9.784   6.258   5.313  1.00  0.00     0.049 C 
HETATM   23  C10 UNK     1       8.137   5.892   8.780  1.00  0.00     0.288 A 
HETATM   24  O4  UNK     1       7.004   5.909   9.247  1.00  0.00    -0.260 OA
HETATM   25  C7  UNK     1      13.150   5.627   8.072  1.00  0.00     0.038 A 
ENDBRANCH   1  14
TORSDOF 5
ENDMDL
MODEL 8
REMARK VINA RESULT:      -8.4      6.203     10.023
REMARK  5 active torsions:
REMARK  status: ('A' for Active; 'I' for Inactive)
REMARK    1  A    between atoms: C11_18  and  O2_4 
REMARK    2  A    between atoms: C6_13  and  O2_4 
REMARK    3  A    between atoms: C12_19  and  O3_5 
REMARK    4  A    between atoms: C13_20  and  O3_5 
REMARK    5  A    between atoms: C11_18  and  C12_19 
ROOT
HETATM    1  O2  UNK     1      20.213  -4.295  35.936  1.00  0.00    -0.341 OA
ENDROOT
BRANCH   1   2
HETATM    2  C11 UNK     1      19.885  -5.306  36.889  1.00  0.00     0.287 C 
BRANCH   2   3
HETATM    3  C12 UNK     1      18.607  -5.979  36.461  1.00  0.00     0.288 C 
HETATM    4  O5  UNK     1      17.531  -5.876  37.034  1.00  0.00    -0.262 OA
BRANCH   3   5
HETATM    5  O3  UNK     1      18.873  -6.724  35.315  1.00  0.00    -0.277 OA
BRANCH   5   6
HETATM    6  C13 UNK     1      19.676  -7.838  35.565  1.00  0.00     0.081 A 
HETATM    7  C14 UNK     1      19.282  -8.736  36.532  1.00  0.00     0.063 A 
HETATM    8  C16 UNK     1      20.085  -9.849  36.781  1.00  0.00     0.058 A 
HETATM    9 Cl1  UNK     1      19.568 -10.961  38.001  1.00  0.00    -0.082 Cl
HETATM   10  C18 UNK     1      21.263 -10.035  36.057  1.00  0.00     0.056 A 
HETATM   11  C17 UNK     1      21.637  -9.108  35.084  1.00  0.00     0.028 A 
HETATM   12 Cl2  UNK     1      22.300 -11.393  36.320  1.00  0.00    -0.083 Cl
HETATM   13  C15 UNK     1      20.834  -7.997  34.835  1.00  0.00     0.039 A 
ENDBRANCH   5   6
ENDBRANCH   3   5
ENDBRANCH   2   3
ENDBRANCH   1   2
BRANCH   1  14
HETATM   14  C6  UNK     1      19.640  -3.073  36.106  1.00  0.00     0.072 A 
HETATM   15  C5  UNK     1      19.450  -2.232  35.015  1.00  0.00     0.075 A 
HETATM   16  C2  UNK     1      18.859  -0.983  35.212  1.00  0.00     0.092 A 
HETATM   17  C1  UNK     1      18.447  -0.543  36.471  1.00  0.00     0.004 A 
HETATM   18  O1  UNK     1      18.693  -0.176  34.068  1.00  0.00    -0.275 OA
HETATM   19  C3  UNK     1      17.834   0.787  36.586  1.00  0.00    -0.043 A 
HETATM   20  C4  UNK     1      18.646  -1.405  37.558  1.00  0.00     0.017 A 
HETATM   21  C8  UNK     1      17.689   1.532  35.482  1.00  0.00     0.090 A 
HETATM   22  C9  UNK     1      17.381   1.288  37.926  1.00  0.00     0.049 C 
HETATM   23  C10 UNK     1      18.117   1.083  34.147  1.00  0.00     0.288 A 
HETATM   24  O4  UNK     1      17.969   1.793  33.159  1.00  0.00    -0.260 OA
HETATM   25  C7  UNK     1      19.238  -2.661  37.376  1.00  0.00     0.038 A 
ENDBRANCH   1  14
TORSDOF 5
ENDMDL
MODEL 9
REMARK VINA RESULT:      -8.3      4.250      6.888
REMARK  5 active torsions:
REMARK  status: ('A' for Active; 'I' for Inactive)
REMARK    1  A    between atoms: C11_18  and  O2_4 
REMARK    2  A    between atoms: C6_13  and  O2_4 
REMARK    3  A    between atoms: C12_19  and  O3_5 
REMARK    4  A    between atoms: C13_20  and  O3_5 
REMARK    5  A    between atoms: C11_18  and  C12_19 
ROOT
HETATM    1  O2  UNK     1      19.420  -4.420  36.082  1.00  0.00    -0.341 OA
ENDROOT
BRANCH   1   2
HETATM    2  C11 UNK     1      20.362  -3.510  36.649  1.00  0.00     0.287 C 
BRANCH   2   3
HETATM    3  C12 UNK     1      20.617  -2.399  35.663  1.00  0.00     0.288 C 
HETATM    4  O5  UNK     1      21.657  -1.761  35.575  1.00  0.00    -0.262 OA
BRANCH   3   5
HETATM    5  O3  UNK     1      19.473  -2.239  34.885  1.00  0.00    -0.277 OA
BRANCH   5   6
HETATM    6  C13 UNK     1      19.761  -1.956  33.548  1.00  0.00     0.081 A 
HETATM    7  C14 UNK     1      19.245  -0.807  32.988  1.00  0.00     0.063 A 
HETATM    8  C16 UNK     1      19.534  -0.526  31.653  1.00  0.00     0.058 A 
HETATM    9 Cl1  UNK     1      18.875   0.922  30.974  1.00  0.00    -0.082 Cl
HETATM   10  C18 UNK     1      20.329  -1.399  30.911  1.00  0.00     0.056 A 
HETATM   11  C17 UNK     1      20.837  -2.554  31.505  1.00  0.00     0.028 A 
HETATM   12 Cl2  UNK     1      20.721  -1.105  29.254  1.00  0.00    -0.083 Cl
HETATM   13  C15 UNK     1      20.549  -2.836  32.840  1.00  0.00     0.039 A 
ENDBRANCH   5   6
ENDBRANCH   3   5
ENDBRANCH   2   3
ENDBRANCH   1   2
BRANCH   1  14
HETATM   14  C6  UNK     1      19.570  -5.737  36.388  1.00  0.00     0.072 A 
HETATM   15  C5  UNK     1      20.341  -6.560  35.574  1.00  0.00     0.075 A 
HETATM   16  C2  UNK     1      20.483  -7.908  35.907  1.00  0.00     0.092 A 
HETATM   17  C1  UNK     1      19.876  -8.466  37.034  1.00  0.00     0.004 A 
HETATM   18  O1  UNK     1      21.276  -8.691  35.044  1.00  0.00    -0.275 OA
HETATM   19  C3  UNK     1      20.079  -9.895  37.308  1.00  0.00    -0.043 A 
HETATM   20  C4  UNK     1      19.104  -7.620  37.841  1.00  0.00     0.017 A 
HETATM   21  C8  UNK     1      20.838 -10.615  36.470  1.00  0.00     0.090 A 
HETATM   22  C9  UNK     1      19.440 -10.523  38.511  1.00  0.00     0.049 C 
HETATM   23  C10 UNK     1      21.485 -10.042  35.278  1.00  0.00     0.288 A 
HETATM   24  O4  UNK     1      22.173 -10.733  34.534  1.00  0.00    -0.260 OA
HETATM   25  C7  UNK     1      18.953  -6.266  37.521  1.00  0.00     0.038 A 
ENDBRANCH   1  14
TORSDOF 5
ENDMDL
MODEL 10
REMARK VINA RESULT:      -8.3      5.061      9.483
REMARK  5 active torsions:
REMARK  status: ('A' for Active; 'I' for Inactive)
REMARK    1  A    between atoms: C11_18  and  O2_4 
REMARK    2  A    between atoms: C6_13  and  O2_4 
REMARK    3  A    between atoms: C12_19  and  O3_5 
REMARK    4  A    between atoms: C13_20  and  O3_5 
REMARK    5  A    between atoms: C11_18  and  C12_19 
ROOT
HETATM    1  O2  UNK     1      18.995  -1.720  35.018  1.00  0.00    -0.341 OA
ENDROOT
BRANCH   1   2
HETATM    2  C11 UNK     1      20.267  -2.165  35.489  1.00  0.00     0.287 C 
BRANCH   2   3
HETATM    3  C12 UNK     1      20.080  -2.844  36.821  1.00  0.00     0.288 C 
HETATM    4  O5  UNK     1      19.239  -2.538  37.655  1.00  0.00    -0.262 OA
BRANCH   3   5
HETATM    5  O3  UNK     1      21.023  -3.863  36.924  1.00  0.00    -0.277 OA
BRANCH   5   6
HETATM    6  C13 UNK     1      20.448  -5.135  36.938  1.00  0.00     0.081 A 
HETATM    7  C14 UNK     1      20.441  -5.846  38.119  1.00  0.00     0.063 A 
HETATM    8  C16 UNK     1      19.865  -7.117  38.131  1.00  0.00     0.058 A 
HETATM    9 Cl1  UNK     1      19.869  -7.989  39.625  1.00  0.00    -0.082 Cl
HETATM   10  C18 UNK     1      19.312  -7.645  36.964  1.00  0.00     0.056 A 
HETATM   11  C17 UNK     1      19.335  -6.901  35.784  1.00  0.00     0.028 A 
HETATM   12 Cl2  UNK     1      18.587  -9.213  36.917  1.00  0.00    -0.083 Cl
HETATM   13  C15 UNK     1      19.909  -5.631  35.771  1.00  0.00     0.039 A 
ENDBRANCH   5   6
ENDBRANCH   3   5
ENDBRANCH   2   3
ENDBRANCH   1   2
BRANCH   1  14
HETATM   14  C6  UNK     1      18.981  -0.977  33.879  1.00  0.00     0.072 A 
HETATM   15  C5  UNK     1      18.500   0.327  33.900  1.00  0.00     0.075 A 
HETATM   16  C2  UNK     1      18.496   1.071  32.719  1.00  0.00     0.092 A 
HETATM   17  C1  UNK     1      18.960   0.553  31.509  1.00  0.00     0.004 A 
HETATM   18  O1  UNK     1      17.996   2.387  32.804  1.00  0.00    -0.275 OA
HETATM   19  C3  UNK     1      18.918   1.408  30.315  1.00  0.00    -0.043 A 
HETATM   20  C4  UNK     1      19.441  -0.763  31.508  1.00  0.00     0.017 A 
HETATM   21  C8  UNK     1      18.438   2.654  30.426  1.00  0.00     0.090 A 
HETATM   22  C9  UNK     1      19.410   0.879  29.000  1.00  0.00     0.049 C 
HETATM   23  C10 UNK     1      17.945   3.216  31.694  1.00  0.00     0.288 A 
HETATM   24  O4  UNK     1      17.512   4.362  31.757  1.00  0.00    -0.260 OA
HETATM   25  C7  UNK     1      19.452  -1.522  32.684  1.00  0.00     0.038 A 
ENDBRANCH   1  14
TORSDOF 5
ENDMDL
