MODEL 1
REMARK VINA RESULT:      -9.0      0.000      0.000
REMARK  7 active torsions:
REMARK  status: ('A' for Active; 'I' for Inactive)
REMARK    1  A    between atoms: C21_28  and  O3_3 
REMARK    2  A    between atoms: C23_30  and  O3_3 
REMARK    3  A    between atoms: C11_18  and  N1_5 
REMARK    4  A    between atoms: C13_20  and  N2_6 
REMARK    5  A    between atoms: C1_8  and  N3_7 
REMARK       I    between atoms: C12_19  and  N3_7 
REMARK    6  A    between atoms: C11_18  and  C12_19 
REMARK    7  A    between atoms: C13_20  and  C14_21 
ROOT
HETATM    1  N1  UNK     1      18.189  -0.952  36.630  1.00  0.00     0.100 N 
HETATM    2  N2  UNK     1      17.941   1.580  35.258  1.00  0.00     0.096 N 
HETATM    3  C7  UNK     1      18.679  -0.778  35.258  1.00  0.00     0.303 C 
HETATM    4  C8  UNK     1      17.057  -0.053  36.887  1.00  0.00     0.303 C 
HETATM    5  C9  UNK     1      19.072   0.681  34.999  1.00  0.00     0.303 C 
HETATM    6  C10 UNK     1      17.450   1.405  36.629  1.00  0.00     0.303 C 
ENDROOT
BRANCH   2   7
HETATM    7  C13 UNK     1      18.319   2.971  35.015  1.00  0.00     0.312 C 
BRANCH   7   8
HETATM    8  C14 UNK     1      18.278   3.320  33.567  1.00  0.00    -0.011 A 
HETATM    9  C15 UNK     1      18.243   4.729  33.153  1.00  0.00     0.009 A 
HETATM   10  C17 UNK     1      18.205   5.024  31.790  1.00  0.00     0.090 A 
HETATM   11  C18 UNK     1      18.248   5.805  34.051  1.00  0.00     0.051 A 
HETATM   12  O2  UNK     1      18.199   4.000  30.823  1.00  0.00    -0.275 OA
HETATM   13  C20 UNK     1      18.171   6.336  31.310  1.00  0.00     0.041 A 
HETATM   14  C19 UNK     1      18.231   2.662  31.183  1.00  0.00     0.288 A 
HETATM   15  C16 UNK     1      18.272   2.366  32.625  1.00  0.00     0.092 A 
HETATM   16  O4  UNK     1      18.228   1.762  30.349  1.00  0.00    -0.260 OA
HETATM   17  C22 UNK     1      18.175   7.389  32.218  1.00  0.00     0.039 A 
HETATM   18  C21 UNK     1      18.215   7.125  33.587  1.00  0.00     0.069 A 
BRANCH  18  19
HETATM   19  O3  UNK     1      18.220   8.156  34.476  1.00  0.00    -0.351 OA
BRANCH  19  20
HETATM   20  C23 UNK     1      18.893   9.350  34.080  1.00  0.00     0.171 C 
HETATM   21  C24 UNK     1      20.338   9.272  34.523  1.00  0.00     0.034 C 
ENDBRANCH  19  20
ENDBRANCH  18  19
ENDBRANCH   7   8
ENDBRANCH   2   7
BRANCH   1  22
HETATM   22  C11 UNK     1      17.813  -2.343  36.874  1.00  0.00     0.374 C 
BRANCH  22  23
HETATM   23  C12 UNK     1      19.074  -3.166  37.041  1.00  0.00     0.246 C 
HETATM   24  N3  UNK     1      18.918  -4.456  36.554  1.00  0.00    -0.355 N 
HETATM   25  H20 UNK     1      18.011  -4.738  36.196  1.00  0.00     0.162 HD
HETATM   26  O1  UNK     1      20.093  -2.730  37.572  1.00  0.00    -0.272 OA
BRANCH  24  27
HETATM   27  C1  UNK     1      19.959  -5.458  36.614  1.00  0.00     0.084 C 
HETATM   28  C2  UNK     1      19.994  -6.295  35.331  1.00  0.00     0.025 C 
HETATM   29  C4  UNK     1      18.803  -7.246  35.221  1.00  0.00     0.002 C 
HETATM   30  C6  UNK     1      18.669  -8.126  36.460  1.00  0.00     0.000 C 
HETATM   31  C5  UNK     1      18.606  -7.298  37.739  1.00  0.00     0.002 C 
HETATM   32  C3  UNK     1      19.797  -6.346  37.852  1.00  0.00     0.025 C 
ENDBRANCH  24  27
ENDBRANCH  22  23
ENDBRANCH   1  22
TORSDOF 7
ENDMDL
MODEL 2
REMARK VINA RESULT:      -8.7     11.829     14.931
REMARK  7 active torsions:
REMARK  status: ('A' for Active; 'I' for Inactive)
REMARK    1  A    between atoms: C21_28  and  O3_3 
REMARK    2  A    between atoms: C23_30  and  O3_3 
REMARK    3  A    between atoms: C11_18  and  N1_5 
REMARK    4  A    between atoms: C13_20  and  N2_6 
REMARK    5  A    between atoms: C1_8  and  N3_7 
REMARK       I    between atoms: C12_19  and  N3_7 
REMARK    6  A    between atoms: C11_18  and  C12_19 
REMARK    7  A    between atoms: C13_20  and  C14_21 
ROOT
HETATM    1  N1  UNK     1      26.291  -9.954  36.395  1.00  0.00     0.100 N 
HETATM    2  N2  UNK     1      28.263  -7.839  36.410  1.00  0.00     0.096 N 
HETATM    3  C7  UNK     1      26.483  -9.100  37.573  1.00  0.00     0.303 C 
HETATM    4  C8  UNK     1      27.545 -10.074  35.641  1.00  0.00     0.303 C 
HETATM    5  C9  UNK     1      27.010  -7.719  37.166  1.00  0.00     0.303 C 
HETATM    6  C10 UNK     1      28.071  -8.695  35.233  1.00  0.00     0.303 C 
ENDROOT
BRANCH   2   7
HETATM    7  C13 UNK     1      28.761  -6.522  36.019  1.00  0.00     0.312 C 
BRANCH   7   8
HETATM    8  C14 UNK     1      29.648  -5.926  37.057  1.00  0.00    -0.011 A 
HETATM    9  C15 UNK     1      31.079  -6.258  37.077  1.00  0.00     0.009 A 
HETATM   10  C17 UNK     1      31.885  -5.684  38.061  1.00  0.00     0.090 A 
HETATM   11  C18 UNK     1      31.691  -7.122  36.159  1.00  0.00     0.051 A 
HETATM   12  O2  UNK     1      31.347  -4.804  39.021  1.00  0.00    -0.275 OA
HETATM   13  C20 UNK     1      33.254  -5.945  38.152  1.00  0.00     0.041 A 
HETATM   14  C19 UNK     1      30.001  -4.472  39.027  1.00  0.00     0.288 A 
HETATM   15  C16 UNK     1      29.163  -5.085  37.982  1.00  0.00     0.092 A 
HETATM   16  O4  UNK     1      29.523  -3.706  39.857  1.00  0.00    -0.260 OA
HETATM   17  C22 UNK     1      33.841  -6.806  37.231  1.00  0.00     0.039 A 
HETATM   18  C21 UNK     1      33.062  -7.393  36.235  1.00  0.00     0.069 A 
BRANCH  18  19
HETATM   19  O3  UNK     1      33.637  -8.236  35.333  1.00  0.00    -0.351 OA
BRANCH  19  20
HETATM   20  C23 UNK     1      32.818  -8.690  34.257  1.00  0.00     0.171 C 
HETATM   21  C24 UNK     1      33.352 -10.015  33.758  1.00  0.00     0.034 C 
ENDBRANCH  19  20
ENDBRANCH  18  19
ENDBRANCH   7   8
ENDBRANCH   2   7
BRANCH   1  22
HETATM   22  C11 UNK     1      25.792 -11.271  36.785  1.00  0.00     0.374 C 
BRANCH  22  23
HETATM   23  C12 UNK     1      24.511 -11.550  36.025  1.00  0.00     0.246 C 
HETATM   24  N3  UNK     1      23.474 -10.726  36.438  1.00  0.00    -0.355 N 
HETATM   25  H20 UNK     1      23.638 -10.080  37.204  1.00  0.00     0.162 HD
HETATM   26  O1  UNK     1      24.419 -12.426  35.167  1.00  0.00    -0.272 OA
BRANCH  24  27
HETATM   27  C1  UNK     1      22.136 -10.801  35.895  1.00  0.00     0.084 C 
HETATM   28  C2  UNK     1      21.789  -9.534  35.106  1.00  0.00     0.025 C 
HETATM   29  C4  UNK     1      21.573  -8.322  36.012  1.00  0.00     0.002 C 
HETATM   30  C6  UNK     1      20.538  -8.608  37.096  1.00  0.00     0.000 C 
HETATM   31  C5  UNK     1      20.892  -9.853  37.903  1.00  0.00     0.002 C 
HETATM   32  C3  UNK     1      21.109 -11.067  36.999  1.00  0.00     0.025 C 
ENDBRANCH  24  27
ENDBRANCH  22  23
ENDBRANCH   1  22
TORSDOF 7
ENDMDL
MODEL 3
REMARK VINA RESULT:      -8.6     10.280     14.866
REMARK  7 active torsions:
REMARK  status: ('A' for Active; 'I' for Inactive)
REMARK    1  A    between atoms: C21_28  and  O3_3 
REMARK    2  A    between atoms: C23_30  and  O3_3 
REMARK    3  A    between atoms: C11_18  and  N1_5 
REMARK    4  A    between atoms: C13_20  and  N2_6 
REMARK    5  A    between atoms: C1_8  and  N3_7 
REMARK       I    between atoms: C12_19  and  N3_7 
REMARK    6  A    between atoms: C11_18  and  C12_19 
REMARK    7  A    between atoms: C13_20  and  C14_21 
ROOT
HETATM    1  N1  UNK     1      28.568  -7.786  37.805  1.00  0.00     0.100 N 
HETATM    2  N2  UNK     1      25.708  -8.035  38.150  1.00  0.00     0.096 N 
HETATM    3  C7  UNK     1      27.685  -6.617  37.716  1.00  0.00     0.303 C 
HETATM    4  C8  UNK     1      27.852  -9.000  37.392  1.00  0.00     0.303 C 
HETATM    5  C9  UNK     1      26.423  -6.820  38.561  1.00  0.00     0.303 C 
HETATM    6  C10 UNK     1      26.590  -9.204  38.238  1.00  0.00     0.303 C 
ENDROOT
BRANCH   2   7
HETATM    7  C13 UNK     1      24.507  -8.228  38.960  1.00  0.00     0.312 C 
BRANCH   7   8
HETATM    8  C14 UNK     1      23.267  -7.847  38.227  1.00  0.00    -0.011 A 
HETATM    9  C15 UNK     1      22.772  -8.694  37.134  1.00  0.00     0.009 A 
HETATM   10  C17 UNK     1      21.608  -8.310  36.466  1.00  0.00     0.090 A 
HETATM   11  C18 UNK     1      23.401  -9.874  36.717  1.00  0.00     0.051 A 
HETATM   12  O2  UNK     1      20.915  -7.137  36.825  1.00  0.00    -0.275 OA
HETATM   13  C20 UNK     1      21.069  -9.057  35.417  1.00  0.00     0.041 A 
HETATM   14  C19 UNK     1      21.358  -6.319  37.853  1.00  0.00     0.288 A 
HETATM   15  C16 UNK     1      22.588  -6.736  38.548  1.00  0.00     0.092 A 
HETATM   16  O4  UNK     1      20.762  -5.296  38.174  1.00  0.00    -0.260 OA
HETATM   17  C22 UNK     1      21.709 -10.226  35.018  1.00  0.00     0.039 A 
HETATM   18  C21 UNK     1      22.872 -10.635  35.667  1.00  0.00     0.069 A 
BRANCH  18  19
HETATM   19  O3  UNK     1      23.499 -11.779  35.278  1.00  0.00    -0.351 OA
BRANCH  19  20
HETATM   20  C23 UNK     1      24.657 -12.168  36.015  1.00  0.00     0.171 C 
HETATM   21  C24 UNK     1      24.659 -13.673  36.172  1.00  0.00     0.034 C 
ENDBRANCH  19  20
ENDBRANCH  18  19
ENDBRANCH   7   8
ENDBRANCH   2   7
BRANCH   1  22
HETATM   22  C11 UNK     1      29.770  -7.593  36.996  1.00  0.00     0.374 C 
BRANCH  22  23
HETATM   23  C12 UNK     1      30.667  -6.590  37.692  1.00  0.00     0.246 C 
HETATM   24  N3  UNK     1      31.458  -5.891  36.791  1.00  0.00    -0.355 N 
HETATM   25  H20 UNK     1      31.408  -6.132  35.807  1.00  0.00     0.162 HD
HETATM   26  O1  UNK     1      30.693  -6.448  38.913  1.00  0.00    -0.272 OA
BRANCH  24  27
HETATM   27  C1  UNK     1      32.424  -4.892  37.191  1.00  0.00     0.084 C 
HETATM   28  C2  UNK     1      32.692  -3.898  36.057  1.00  0.00     0.025 C 
HETATM   29  C4  UNK     1      33.500  -4.517  34.916  1.00  0.00     0.002 C 
HETATM   30  C6  UNK     1      34.792  -5.152  35.422  1.00  0.00     0.000 C 
HETATM   31  C5  UNK     1      34.529  -6.163  36.533  1.00  0.00     0.002 C 
HETATM   32  C3  UNK     1      33.722  -5.546  37.676  1.00  0.00     0.025 C 
ENDBRANCH  24  27
ENDBRANCH  22  23
ENDBRANCH   1  22
TORSDOF 7
ENDMDL
MODEL 4
REMARK VINA RESULT:      -8.5     10.762     15.066
REMARK  7 active torsions:
REMARK  status: ('A' for Active; 'I' for Inactive)
REMARK    1  A    between atoms: C21_28  and  O3_3 
REMARK    2  A    between atoms: C23_30  and  O3_3 
REMARK    3  A    between atoms: C11_18  and  N1_5 
REMARK    4  A    between atoms: C13_20  and  N2_6 
REMARK    5  A    between atoms: C1_8  and  N3_7 
REMARK       I    between atoms: C12_19  and  N3_7 
REMARK    6  A    between atoms: C11_18  and  C12_19 
REMARK    7  A    between atoms: C13_20  and  C14_21 
ROOT
HETATM    1  N1  UNK     1      29.810  -8.780  37.087  1.00  0.00     0.100 N 
HETATM    2  N2  UNK     1      26.987  -9.387  37.229  1.00  0.00     0.096 N 
HETATM    3  C7  UNK     1      29.015  -8.993  35.872  1.00  0.00     0.303 C 
HETATM    4  C8  UNK     1      29.249  -9.547  38.206  1.00  0.00     0.303 C 
HETATM    5  C9  UNK     1      27.546  -8.621  36.108  1.00  0.00     0.303 C 
HETATM    6  C10 UNK     1      27.782  -9.175  38.443  1.00  0.00     0.303 C 
ENDROOT
BRANCH   2   7
HETATM    7  C13 UNK     1      25.588  -9.027  37.455  1.00  0.00     0.312 C 
BRANCH   7   8
HETATM    8  C14 UNK     1      24.651  -9.941  36.743  1.00  0.00    -0.011 A 
HETATM    9  C15 UNK     1      23.251  -9.545  36.542  1.00  0.00     0.009 A 
HETATM   10  C17 UNK     1      22.397 -10.422  35.872  1.00  0.00     0.090 A 
HETATM   11  C18 UNK     1      22.715  -8.328  36.984  1.00  0.00     0.051 A 
HETATM   12  O2  UNK     1      22.858 -11.665  35.395  1.00  0.00    -0.275 OA
HETATM   13  C20 UNK     1      21.053 -10.123  35.638  1.00  0.00     0.041 A 
HETATM   14  C19 UNK     1      24.174 -12.066  35.570  1.00  0.00     0.288 A 
HETATM   15  C16 UNK     1      25.063 -11.129  36.278  1.00  0.00     0.092 A 
HETATM   16  O4  UNK     1      24.586 -13.145  35.157  1.00  0.00    -0.260 OA
HETATM   17  C22 UNK     1      20.541  -8.910  36.086  1.00  0.00     0.039 A 
HETATM   18  C21 UNK     1      21.370  -8.013  36.757  1.00  0.00     0.069 A 
BRANCH  18  19
HETATM   19  O3  UNK     1      20.869  -6.825  37.195  1.00  0.00    -0.351 OA
BRANCH  19  20
HETATM   20  C23 UNK     1      21.119  -6.477  38.555  1.00  0.00     0.171 C 
HETATM   21  C24 UNK     1      20.132  -7.207  39.440  1.00  0.00     0.034 C 
ENDBRANCH  19  20
ENDBRANCH  18  19
ENDBRANCH   7   8
ENDBRANCH   2   7
BRANCH   1  22
HETATM   22  C11 UNK     1      31.209  -9.138  36.861  1.00  0.00     0.374 C 
BRANCH  22  23
HETATM   23  C12 UNK     1      32.090  -8.120  37.557  1.00  0.00     0.246 C 
HETATM   24  N3  UNK     1      32.431  -7.071  36.716  1.00  0.00    -0.355 N 
HETATM   25  H20 UNK     1      32.123  -7.099  35.749  1.00  0.00     0.162 HD
HETATM   26  O1  UNK     1      32.465  -8.243  38.721  1.00  0.00    -0.272 OA
BRANCH  24  27
HETATM   27  C1  UNK     1      33.286  -5.976  37.118  1.00  0.00     0.084 C 
HETATM   28  C2  UNK     1      32.536  -4.996  38.027  1.00  0.00     0.025 C 
HETATM   29  C4  UNK     1      31.497  -4.172  37.266  1.00  0.00     0.002 C 
HETATM   30  C6  UNK     1      32.112  -3.463  36.064  1.00  0.00     0.000 C 
HETATM   31  C5  UNK     1      32.836  -4.438  35.141  1.00  0.00     0.002 C 
HETATM   32  C3  UNK     1      33.877  -5.263  35.899  1.00  0.00     0.025 C 
ENDBRANCH  24  27
ENDBRANCH  22  23
ENDBRANCH   1  22
TORSDOF 7
ENDMDL
MODEL 5
REMARK VINA RESULT:      -8.5     13.619     16.181
REMARK  7 active torsions:
REMARK  status: ('A' for Active; 'I' for Inactive)
REMARK    1  A    between atoms: C21_28  and  O3_3 
REMARK    2  A    between atoms: C23_30  and  O3_3 
REMARK    3  A    between atoms: C11_18  and  N1_5 
REMARK    4  A    between atoms: C13_20  and  N2_6 
REMARK    5  A    between atoms: C1_8  and  N3_7 
REMARK       I    between atoms: C12_19  and  N3_7 
REMARK    6  A    between atoms: C11_18  and  C12_19 
REMARK    7  A    between atoms: C13_20  and  C14_21 
ROOT
HETATM    1  N1  UNK     1      30.166  -9.640  34.670  1.00  0.00     0.100 N 
HETATM    2  N2  UNK     1      30.948  -8.722  37.298  1.00  0.00     0.096 N 
HETATM    3  C7  UNK     1      29.211  -8.965  35.557  1.00  0.00     0.303 C 
HETATM    4  C8  UNK     1      31.179 -10.353  35.457  1.00  0.00     0.303 C 
HETATM    5  C9  UNK     1      29.933  -8.009  36.512  1.00  0.00     0.303 C 
HETATM    6  C10 UNK     1      31.902  -9.398  36.411  1.00  0.00     0.303 C 
ENDROOT
BRANCH   2   7
HETATM    7  C13 UNK     1      31.639  -7.807  38.205  1.00  0.00     0.312 C 
BRANCH   7   8
HETATM    8  C14 UNK     1      31.187  -6.398  38.032  1.00  0.00    -0.011 A 
HETATM    9  C15 UNK     1      31.975  -5.471  37.209  1.00  0.00     0.009 A 
HETATM   10  C17 UNK     1      31.527  -4.158  37.066  1.00  0.00     0.090 A 
HETATM   11  C18 UNK     1      33.160  -5.828  36.552  1.00  0.00     0.051 A 
HETATM   12  O2  UNK     1      30.344  -3.719  37.694  1.00  0.00    -0.275 OA
HETATM   13  C20 UNK     1      32.215  -3.213  36.302  1.00  0.00     0.041 A 
HETATM   14  C19 UNK     1      29.579  -4.572  38.476  1.00  0.00     0.288 A 
HETATM   15  C16 UNK     1      30.065  -5.954  38.617  1.00  0.00     0.092 A 
HETATM   16  O4  UNK     1      28.548  -4.200  39.025  1.00  0.00    -0.260 OA
HETATM   17  C22 UNK     1      33.390  -3.587  35.659  1.00  0.00     0.039 A 
HETATM   18  C21 UNK     1      33.862  -4.893  35.782  1.00  0.00     0.069 A 
BRANCH  18  19
HETATM   19  O3  UNK     1      35.011  -5.261  35.151  1.00  0.00    -0.351 OA
BRANCH  19  20
HETATM   20  C23 UNK     1      35.663  -6.438  35.625  1.00  0.00     0.171 C 
HETATM   21  C24 UNK     1      36.553  -6.983  34.529  1.00  0.00     0.034 C 
ENDBRANCH  19  20
ENDBRANCH  18  19
ENDBRANCH   7   8
ENDBRANCH   2   7
BRANCH   1  22
HETATM   22  C11 UNK     1      29.476 -10.553  33.762  1.00  0.00     0.374 C 
BRANCH  22  23
HETATM   23  C12 UNK     1      29.837 -10.188  32.336  1.00  0.00     0.246 C 
HETATM   24  N3  UNK     1      28.859  -9.407  31.739  1.00  0.00    -0.355 N 
HETATM   25  H20 UNK     1      28.011  -9.202  32.258  1.00  0.00     0.162 HD
HETATM   26  O1  UNK     1      30.869 -10.571  31.788  1.00  0.00    -0.272 OA
BRANCH  24  27
HETATM   27  C1  UNK     1      28.941  -8.942  30.372  1.00  0.00     0.084 C 
HETATM   28  C2  UNK     1      29.793  -7.672  30.271  1.00  0.00     0.025 C 
HETATM   29  C4  UNK     1      29.091  -6.449  30.860  1.00  0.00     0.002 C 
HETATM   30  C6  UNK     1      27.708  -6.245  30.249  1.00  0.00     0.000 C 
HETATM   31  C5  UNK     1      26.845  -7.497  30.371  1.00  0.00     0.002 C 
HETATM   32  C3  UNK     1      27.545  -8.722  29.781  1.00  0.00     0.025 C 
ENDBRANCH  24  27
ENDBRANCH  22  23
ENDBRANCH   1  22
TORSDOF 7
ENDMDL
MODEL 6
REMARK VINA RESULT:      -8.4     13.779     16.028
REMARK  7 active torsions:
REMARK  status: ('A' for Active; 'I' for Inactive)
REMARK    1  A    between atoms: C21_28  and  O3_3 
REMARK    2  A    between atoms: C23_30  and  O3_3 
REMARK    3  A    between atoms: C11_18  and  N1_5 
REMARK    4  A    between atoms: C13_20  and  N2_6 
REMARK    5  A    between atoms: C1_8  and  N3_7 
REMARK       I    between atoms: C12_19  and  N3_7 
REMARK    6  A    between atoms: C11_18  and  C12_19 
REMARK    7  A    between atoms: C13_20  and  C14_21 
ROOT
HETATM    1  N1  UNK     1      30.551 -10.728  33.455  1.00  0.00     0.100 N 
HETATM    2  N2  UNK     1      30.695  -9.845  36.204  1.00  0.00     0.096 N 
HETATM    3  C7  UNK     1      29.457  -9.966  34.069  1.00  0.00     0.303 C 
HETATM    4  C8  UNK     1      31.261 -11.513  34.472  1.00  0.00     0.303 C 
HETATM    5  C9  UNK     1      29.984  -9.060  35.188  1.00  0.00     0.303 C 
HETATM    6  C10 UNK     1      31.788 -10.608  35.591  1.00  0.00     0.303 C 
ENDROOT
BRANCH   2   7
HETATM    7  C13 UNK     1      31.200  -8.979  37.268  1.00  0.00     0.312 C 
BRANCH   7   8
HETATM    8  C14 UNK     1      30.103  -8.263  37.978  1.00  0.00    -0.011 A 
HETATM    9  C15 UNK     1      30.094  -6.794  38.021  1.00  0.00     0.009 A 
HETATM   10  C17 UNK     1      29.053  -6.152  38.693  1.00  0.00     0.090 A 
HETATM   11  C18 UNK     1      31.074  -5.991  37.423  1.00  0.00     0.051 A 
HETATM   12  O2  UNK     1      28.027  -6.887  39.319  1.00  0.00    -0.275 OA
HETATM   13  C20 UNK     1      28.968  -4.761  38.782  1.00  0.00     0.041 A 
HETATM   14  C19 UNK     1      28.009  -8.273  39.295  1.00  0.00     0.288 A 
HETATM   15  C16 UNK     1      29.114  -8.936  38.582  1.00  0.00     0.092 A 
HETATM   16  O4  UNK     1      27.121  -8.922  39.836  1.00  0.00    -0.260 OA
HETATM   17  C22 UNK     1      29.952  -3.982  38.182  1.00  0.00     0.039 A 
HETATM   18  C21 UNK     1      31.003  -4.596  37.502  1.00  0.00     0.069 A 
BRANCH  18  19
HETATM   19  O3  UNK     1      31.966  -3.834  36.914  1.00  0.00    -0.351 OA
BRANCH  19  20
HETATM   20  C23 UNK     1      32.341  -4.177  35.581  1.00  0.00     0.171 C 
HETATM   21  C24 UNK     1      33.847  -4.107  35.459  1.00  0.00     0.034 C 
ENDBRANCH  19  20
ENDBRANCH  18  19
ENDBRANCH   7   8
ENDBRANCH   2   7
BRANCH   1  22
HETATM   22  C11 UNK     1      30.047 -11.593  32.390  1.00  0.00     0.374 C 
BRANCH  22  23
HETATM   23  C12 UNK     1      30.186 -10.867  31.067  1.00  0.00     0.246 C 
HETATM   24  N3  UNK     1      29.166  -9.946  30.874  1.00  0.00    -0.355 N 
HETATM   25  H20 UNK     1      28.430  -9.877  31.569  1.00  0.00     0.162 HD
HETATM   26  O1  UNK     1      31.088 -11.101  30.266  1.00  0.00    -0.272 OA
BRANCH  24  27
HETATM   27  C1  UNK     1      29.044  -9.136  29.682  1.00  0.00     0.084 C 
HETATM   28  C2  UNK     1      29.932  -7.890  29.768  1.00  0.00     0.025 C 
HETATM   29  C4  UNK     1      29.402  -6.862  30.766  1.00  0.00     0.002 C 
HETATM   30  C6  UNK     1      27.949  -6.495  30.478  1.00  0.00     0.000 C 
HETATM   31  C5  UNK     1      27.055  -7.730  30.419  1.00  0.00     0.002 C 
HETATM   32  C3  UNK     1      27.583  -8.760  29.420  1.00  0.00     0.025 C 
ENDBRANCH  24  27
ENDBRANCH  22  23
ENDBRANCH   1  22
TORSDOF 7
ENDMDL
MODEL 7
REMARK VINA RESULT:      -8.4     14.110     17.986
REMARK  7 active torsions:
REMARK  status: ('A' for Active; 'I' for Inactive)
REMARK    1  A    between atoms: C21_28  and  O3_3 
REMARK    2  A    between atoms: C23_30  and  O3_3 
REMARK    3  A    between atoms: C11_18  and  N1_5 
REMARK    4  A    between atoms: C13_20  and  N2_6 
REMARK    5  A    between atoms: C1_8  and  N3_7 
REMARK       I    between atoms: C12_19  and  N3_7 
REMARK    6  A    between atoms: C11_18  and  C12_19 
REMARK    7  A    between atoms: C13_20  and  C14_21 
ROOT
HETATM    1  N1  UNK     1      35.133  -6.372  34.961  1.00  0.00     0.100 N 
HETATM    2  N2  UNK     1      32.486  -5.722  35.924  1.00  0.00     0.096 N 
HETATM    3  C7  UNK     1      34.050  -7.362  34.937  1.00  0.00     0.303 C 
HETATM    4  C8  UNK     1      34.934  -5.422  36.062  1.00  0.00     0.303 C 
HETATM    5  C9  UNK     1      32.684  -6.674  34.824  1.00  0.00     0.303 C 
HETATM    6  C10 UNK     1      33.570  -4.733  35.948  1.00  0.00     0.303 C 
ENDROOT
BRANCH   2   7
HETATM    7  C13 UNK     1      31.185  -5.063  35.811  1.00  0.00     0.312 C 
BRANCH   7   8
HETATM    8  C14 UNK     1      30.362  -5.232  37.042  1.00  0.00    -0.011 A 
HETATM    9  C15 UNK     1      29.543  -6.439  37.216  1.00  0.00     0.009 A 
HETATM   10  C17 UNK     1      28.783  -6.568  38.379  1.00  0.00     0.090 A 
HETATM   11  C18 UNK     1      29.477  -7.478  36.278  1.00  0.00     0.051 A 
HETATM   12  O2  UNK     1      28.794  -5.569  39.371  1.00  0.00    -0.275 OA
HETATM   13  C20 UNK     1      27.977  -7.682  38.624  1.00  0.00     0.041 A 
HETATM   14  C19 UNK     1      29.558  -4.420  39.235  1.00  0.00     0.288 A 
HETATM   15  C16 UNK     1      30.355  -4.297  38.003  1.00  0.00     0.092 A 
HETATM   16  O4  UNK     1      29.576  -3.544  40.094  1.00  0.00    -0.260 OA
HETATM   17  C22 UNK     1      27.925  -8.702  37.680  1.00  0.00     0.039 A 
HETATM   18  C21 UNK     1      28.675  -8.601  36.508  1.00  0.00     0.069 A 
BRANCH  18  19
HETATM   19  O3  UNK     1      28.626  -9.600  35.584  1.00  0.00    -0.351 OA
BRANCH  19  20
HETATM   20  C23 UNK     1      29.510  -9.496  34.469  1.00  0.00     0.171 C 
HETATM   21  C24 UNK     1      29.027 -10.418  33.370  1.00  0.00     0.034 C 
ENDBRANCH  19  20
ENDBRANCH  18  19
ENDBRANCH   7   8
ENDBRANCH   2   7
BRANCH   1  22
HETATM   22  C11 UNK     1      36.434  -7.030  35.072  1.00  0.00     0.374 C 
BRANCH  22  23
HETATM   23  C12 UNK     1      36.791  -7.632  33.728  1.00  0.00     0.246 C 
HETATM   24  N3  UNK     1      37.170  -8.961  33.842  1.00  0.00    -0.355 N 
HETATM   25  H20 UNK     1      37.224  -9.378  34.766  1.00  0.00     0.162 HD
HETATM   26  O1  UNK     1      36.763  -6.992  32.679  1.00  0.00    -0.272 OA
BRANCH  24  27
HETATM   27  C1  UNK     1      37.587  -9.766  32.715  1.00  0.00     0.084 C 
HETATM   28  C2  UNK     1      36.378 -10.365  31.987  1.00  0.00     0.025 C 
HETATM   29  C4  UNK     1      35.703 -11.475  32.791  1.00  0.00     0.002 C 
HETATM   30  C6  UNK     1      36.697 -12.555  33.206  1.00  0.00     0.000 C 
HETATM   31  C5  UNK     1      37.890 -11.969  33.955  1.00  0.00     0.002 C 
HETATM   32  C3  UNK     1      38.569 -10.858  33.152  1.00  0.00     0.025 C 
ENDBRANCH  24  27
ENDBRANCH  22  23
ENDBRANCH   1  22
TORSDOF 7
ENDMDL
MODEL 8
REMARK VINA RESULT:      -8.3     26.418     27.992
REMARK  7 active torsions:
REMARK  status: ('A' for Active; 'I' for Inactive)
REMARK    1  A    between atoms: C21_28  and  O3_3 
REMARK    2  A    between atoms: C23_30  and  O3_3 
REMARK    3  A    between atoms: C11_18  and  N1_5 
REMARK    4  A    between atoms: C13_20  and  N2_6 
REMARK    5  A    between atoms: C1_8  and  N3_7 
REMARK       I    between atoms: C12_19  and  N3_7 
REMARK    6  A    between atoms: C11_18  and  C12_19 
REMARK    7  A    between atoms: C13_20  and  C14_21 
ROOT
HETATM    1  N1  UNK     1      14.026   9.511  10.177  1.00  0.00     0.100 N 
HETATM    2  N2  UNK     1      16.625  10.718   9.793  1.00  0.00     0.096 N 
HETATM    3  C7  UNK     1      14.910   9.084   9.087  1.00  0.00     0.303 C 
HETATM    4  C8  UNK     1      14.271  10.920  10.512  1.00  0.00     0.303 C 
HETATM    5  C9  UNK     1      16.381   9.310   9.457  1.00  0.00     0.303 C 
HETATM    6  C10 UNK     1      15.740  11.146  10.882  1.00  0.00     0.303 C 
ENDROOT
BRANCH   2   7
HETATM    7  C13 UNK     1      18.027  10.930  10.150  1.00  0.00     0.312 C 
BRANCH   7   8
HETATM    8  C14 UNK     1      18.732  11.796   9.164  1.00  0.00    -0.011 A 
HETATM    9  C15 UNK     1      20.130  12.185   9.397  1.00  0.00     0.009 A 
HETATM   10  C17 UNK     1      20.763  12.996   8.455  1.00  0.00     0.090 A 
HETATM   11  C18 UNK     1      20.872  11.786  10.516  1.00  0.00     0.051 A 
HETATM   12  O2  UNK     1      20.087  13.439   7.302  1.00  0.00    -0.275 OA
HETATM   13  C20 UNK     1      22.089  13.412   8.599  1.00  0.00     0.041 A 
HETATM   14  C19 UNK     1      18.768  13.088   7.055  1.00  0.00     0.288 A 
HETATM   15  C16 UNK     1      18.113  12.231   8.057  1.00  0.00     0.092 A 
HETATM   16  O4  UNK     1      18.170  13.467   6.053  1.00  0.00    -0.260 OA
HETATM   17  C22 UNK     1      22.809  13.006   9.718  1.00  0.00     0.039 A 
HETATM   18  C21 UNK     1      22.202  12.193  10.675  1.00  0.00     0.069 A 
BRANCH  18  19
HETATM   19  O3  UNK     1      22.907  11.794  11.770  1.00  0.00    -0.351 OA
BRANCH  19  20
HETATM   20  C23 UNK     1      24.178  12.405  11.981  1.00  0.00     0.171 C 
HETATM   21  C24 UNK     1      25.245  11.332  11.995  1.00  0.00     0.034 C 
ENDBRANCH  19  20
ENDBRANCH  18  19
ENDBRANCH   7   8
ENDBRANCH   2   7
BRANCH   1  22
HETATM   22  C11 UNK     1      12.624   9.298   9.822  1.00  0.00     0.374 C 
BRANCH  22  23
HETATM   23  C12 UNK     1      12.370   7.808   9.719  1.00  0.00     0.246 C 
HETATM   24  N3  UNK     1      11.708   7.476   8.546  1.00  0.00    -0.355 N 
HETATM   25  H20 UNK     1      11.422   8.220   7.918  1.00  0.00     0.162 HD
HETATM   26  O1  UNK     1      12.698   7.010  10.596  1.00  0.00    -0.272 OA
BRANCH  24  27
HETATM   27  C1  UNK     1      11.319   6.124   8.210  1.00  0.00     0.084 C 
HETATM   28  C2  UNK     1      11.567   5.832   6.726  1.00  0.00     0.025 C 
HETATM   29  C4  UNK     1      10.581   6.560   5.814  1.00  0.00     0.002 C 
HETATM   30  C6  UNK     1       9.135   6.274   6.206  1.00  0.00     0.000 C 
HETATM   31  C5  UNK     1       8.874   6.589   7.675  1.00  0.00     0.002 C 
HETATM   32  C3  UNK     1       9.859   5.861   8.591  1.00  0.00     0.025 C 
ENDBRANCH  24  27
ENDBRANCH  22  23
ENDBRANCH   1  22
TORSDOF 7
ENDMDL
MODEL 9
REMARK VINA RESULT:      -8.3     11.069     14.327
REMARK  7 active torsions:
REMARK  status: ('A' for Active; 'I' for Inactive)
REMARK    1  A    between atoms: C21_28  and  O3_3 
REMARK    2  A    between atoms: C23_30  and  O3_3 
REMARK    3  A    between atoms: C11_18  and  N1_5 
REMARK    4  A    between atoms: C13_20  and  N2_6 
REMARK    5  A    between atoms: C1_8  and  N3_7 
REMARK       I    between atoms: C12_19  and  N3_7 
REMARK    6  A    between atoms: C11_18  and  C12_19 
REMARK    7  A    between atoms: C13_20  and  C14_21 
ROOT
HETATM    1  N1  UNK     1      26.302  -8.568  37.661  1.00  0.00     0.100 N 
HETATM    2  N2  UNK     1      29.192  -8.638  37.718  1.00  0.00     0.096 N 
HETATM    3  C7  UNK     1      27.025  -9.454  38.581  1.00  0.00     0.303 C 
HETATM    4  C8  UNK     1      27.096  -8.334  36.448  1.00  0.00     0.303 C 
HETATM    5  C9  UNK     1      28.400  -8.874  38.931  1.00  0.00     0.303 C 
HETATM    6  C10 UNK     1      28.469  -7.753  36.797  1.00  0.00     0.303 C 
ENDROOT
BRANCH   2   7
HETATM    7  C13 UNK     1      30.501  -8.080  38.054  1.00  0.00     0.312 C 
BRANCH   7   8
HETATM    8  C14 UNK     1      30.497  -6.590  38.038  1.00  0.00    -0.011 A 
HETATM    9  C15 UNK     1      31.351  -5.865  37.086  1.00  0.00     0.009 A 
HETATM   10  C17 UNK     1      31.326  -4.470  37.095  1.00  0.00     0.090 A 
HETATM   11  C18 UNK     1      32.195  -6.494  36.162  1.00  0.00     0.051 A 
HETATM   12  O2  UNK     1      30.503  -3.762  37.993  1.00  0.00    -0.275 OA
HETATM   13  C20 UNK     1      32.104  -3.704  36.225  1.00  0.00     0.041 A 
HETATM   14  C19 UNK     1      29.687  -4.418  38.901  1.00  0.00     0.288 A 
HETATM   15  C16 UNK     1      29.724  -5.890  38.880  1.00  0.00     0.092 A 
HETATM   16  O4  UNK     1      28.966  -3.811  39.686  1.00  0.00    -0.260 OA
HETATM   17  C22 UNK     1      32.937  -4.348  35.315  1.00  0.00     0.039 A 
HETATM   18  C21 UNK     1      32.982  -5.741  35.283  1.00  0.00     0.069 A 
BRANCH  18  19
HETATM   19  O3  UNK     1      33.795  -6.372  34.391  1.00  0.00    -0.351 OA
BRANCH  19  20
HETATM   20  C23 UNK     1      35.095  -5.818  34.195  1.00  0.00     0.171 C 
HETATM   21  C24 UNK     1      36.121  -6.727  34.835  1.00  0.00     0.034 C 
ENDBRANCH  19  20
ENDBRANCH  18  19
ENDBRANCH   7   8
ENDBRANCH   2   7
BRANCH   1  22
HETATM   22  C11 UNK     1      24.993  -9.124  37.326  1.00  0.00     0.374 C 
BRANCH  22  23
HETATM   23  C12 UNK     1      23.924  -8.301  38.016  1.00  0.00     0.246 C 
HETATM   24  N3  UNK     1      22.666  -8.868  37.879  1.00  0.00    -0.355 N 
HETATM   25  H20 UNK     1      22.566  -9.707  37.317  1.00  0.00     0.162 HD
HETATM   26  O1  UNK     1      24.164  -7.247  38.601  1.00  0.00    -0.272 OA
BRANCH  24  27
HETATM   27  C1  UNK     1      21.464  -8.273  38.419  1.00  0.00     0.084 C 
HETATM   28  C2  UNK     1      20.642  -9.302  39.201  1.00  0.00     0.025 C 
HETATM   29  C4  UNK     1      19.968 -10.328  38.290  1.00  0.00     0.002 C 
HETATM   30  C6  UNK     1      19.134  -9.654  37.204  1.00  0.00     0.000 C 
HETATM   31  C5  UNK     1      19.954  -8.648  36.404  1.00  0.00     0.002 C 
HETATM   32  C3  UNK     1      20.628  -7.620  37.313  1.00  0.00     0.025 C 
ENDBRANCH  24  27
ENDBRANCH  22  23
ENDBRANCH   1  22
TORSDOF 7
ENDMDL
MODEL 10
REMARK VINA RESULT:      -8.2     13.609     16.148
REMARK  7 active torsions:
REMARK  status: ('A' for Active; 'I' for Inactive)
REMARK    1  A    between atoms: C21_28  and  O3_3 
REMARK    2  A    between atoms: C23_30  and  O3_3 
REMARK    3  A    between atoms: C11_18  and  N1_5 
REMARK    4  A    between atoms: C13_20  and  N2_6 
REMARK    5  A    between atoms: C1_8  and  N3_7 
REMARK       I    between atoms: C12_19  and  N3_7 
REMARK    6  A    between atoms: C11_18  and  C12_19 
REMARK    7  A    between atoms: C13_20  and  C14_21 
ROOT
HETATM    1  N1  UNK     1      31.034 -10.371  33.520  1.00  0.00     0.100 N 
HETATM    2  N2  UNK     1      31.752  -8.653  35.732  1.00  0.00     0.096 N 
HETATM    3  C7  UNK     1      30.832  -8.919  33.453  1.00  0.00     0.303 C 
HETATM    4  C8  UNK     1      30.943 -10.837  34.909  1.00  0.00     0.303 C 
HETATM    5  C9  UNK     1      31.842  -8.185  34.343  1.00  0.00     0.303 C 
HETATM    6  C10 UNK     1      31.953 -10.105  35.798  1.00  0.00     0.303 C 
ENDROOT
BRANCH   2   7
HETATM    7  C13 UNK     1      32.719  -7.955  36.577  1.00  0.00     0.312 C 
BRANCH   7   8
HETATM    8  C14 UNK     1      32.484  -6.484  36.604  1.00  0.00    -0.011 A 
HETATM    9  C15 UNK     1      31.348  -5.937  37.358  1.00  0.00     0.009 A 
HETATM   10  C17 UNK     1      31.154  -4.555  37.364  1.00  0.00     0.090 A 
HETATM   11  C18 UNK     1      30.440  -6.724  38.079  1.00  0.00     0.051 A 
HETATM   12  O2  UNK     1      32.023  -3.694  36.665  1.00  0.00    -0.275 OA
HETATM   13  C20 UNK     1      30.100  -3.952  38.055  1.00  0.00     0.041 A 
HETATM   14  C19 UNK     1      33.103  -4.182  35.945  1.00  0.00     0.288 A 
HETATM   15  C16 UNK     1      33.295  -5.642  35.948  1.00  0.00     0.092 A 
HETATM   16  O4  UNK     1      33.866  -3.441  35.335  1.00  0.00    -0.260 OA
HETATM   17  C22 UNK     1      29.210  -4.751  38.764  1.00  0.00     0.039 A 
HETATM   18  C21 UNK     1      29.379  -6.135  38.777  1.00  0.00     0.069 A 
BRANCH  18  19
HETATM   19  O3  UNK     1      28.509  -6.918  39.472  1.00  0.00    -0.351 OA
BRANCH  19  20
HETATM   20  C23 UNK     1      27.426  -7.491  38.741  1.00  0.00     0.171 C 
HETATM   21  C24 UNK     1      26.981  -8.761  39.434  1.00  0.00     0.034 C 
ENDBRANCH  19  20
ENDBRANCH  18  19
ENDBRANCH   7   8
ENDBRANCH   2   7
BRANCH   1  22
HETATM   22  C11 UNK     1      30.069 -11.069  32.673  1.00  0.00     0.374 C 
BRANCH  22  23
HETATM   23  C12 UNK     1      30.119 -10.469  31.282  1.00  0.00     0.246 C 
HETATM   24  N3  UNK     1      29.006  -9.684  31.017  1.00  0.00    -0.355 N 
HETATM   25  H20 UNK     1      28.272  -9.623  31.716  1.00  0.00     0.162 HD
HETATM   26  O1  UNK     1      31.034 -10.688  30.491  1.00  0.00    -0.272 OA
BRANCH  24  27
HETATM   27  C1  UNK     1      28.789  -9.016  29.753  1.00  0.00     0.084 C 
HETATM   28  C2  UNK     1      29.707  -7.797  29.609  1.00  0.00     0.025 C 
HETATM   29  C4  UNK     1      29.294  -6.643  30.521  1.00  0.00     0.002 C 
HETATM   30  C6  UNK     1      27.829  -6.267  30.325  1.00  0.00     0.000 C 
HETATM   31  C5  UNK     1      26.908  -7.471  30.495  1.00  0.00     0.002 C 
HETATM   32  C3  UNK     1      27.318  -8.627  29.582  1.00  0.00     0.025 C 
ENDBRANCH  24  27
ENDBRANCH  22  23
ENDBRANCH   1  22
TORSDOF 7
ENDMDL
