MODEL 1
REMARK VINA RESULT:      -9.2      0.000      0.000
REMARK  3 active torsions:
REMARK  status: ('A' for Active; 'I' for Inactive)
REMARK    1  A    between atoms: C1_5  and  N1_4 
REMARK       I    between atoms: C8_12  and  N1_4 
REMARK    2  A    between atoms: C1_5  and  C2_6 
REMARK    3  A    between atoms: C6_10  and  C8_12 
ROOT
HETATM    1  C1  UNK     1      16.487   7.024  32.378  1.00  0.00     0.092 C 
HETATM    2  C4  UNK     1      17.036   7.586  31.058  1.00  0.00     0.053 C 
HETATM    3  C14 UNK     1      15.014   7.147  32.375  1.00  0.00    -0.086 C 
HETATM    4  C20 UNK     1      13.817   7.247  32.368  1.00  0.00     0.015 C 
ENDROOT
BRANCH   1   5
HETATM    5  N1  UNK     1      16.848   5.628  32.467  1.00  0.00    -0.337 N 
HETATM    6  C8  UNK     1      18.155   5.181  32.399  1.00  0.00     0.259 C 
HETATM    7  O2  UNK     1      19.156   5.881  32.259  1.00  0.00    -0.267 OA
HETATM    8  H3  UNK     1      16.094   4.951  32.547  1.00  0.00     0.164 HD
BRANCH   6   9
HETATM    9  C6  UNK     1      18.267   3.722  32.517  1.00  0.00     0.108 A 
HETATM   10  C10 UNK     1      18.129   3.212  33.747  1.00  0.00     0.038 A 
HETATM   11  C3  UNK     1      18.218   1.771  33.997  1.00  0.00     0.010 A 
HETATM   12  C5  UNK     1      18.078   1.168  35.280  1.00  0.00    -0.013 A 
HETATM   13  C7  UNK     1      18.455   0.956  32.888  1.00  0.00     0.090 A 
HETATM   14  C16 UNK     1      17.834   1.884  36.479  1.00  0.00     0.013 A 
HETATM   15  C9  UNK     1      18.188  -0.247  35.383  1.00  0.00    -0.025 A 
HETATM   16  C18 UNK     1      17.706   1.238  37.712  1.00  0.00     0.001 A 
HETATM   17  C19 UNK     1      17.817  -0.142  37.788  1.00  0.00     0.001 A 
HETATM   18  C17 UNK     1      18.057  -0.879  36.631  1.00  0.00     0.012 A 
HETATM   19  C13 UNK     1      18.428  -1.021  34.238  1.00  0.00     0.015 A 
HETATM   20  C12 UNK     1      18.562  -0.426  32.991  1.00  0.00     0.039 A 
HETATM   21  O1  UNK     1      18.600   1.498  31.593  1.00  0.00    -0.274 OA
HETATM   22  C15 UNK     1      18.517   2.861  31.346  1.00  0.00     0.304 A 
HETATM   23  O3  UNK     1      18.646   3.318  30.215  1.00  0.00    -0.259 OA
ENDBRANCH   6   9
ENDBRANCH   1   5
BRANCH   1  24
HETATM   24  C2  UNK     1      17.100   7.817  33.557  1.00  0.00     0.040 C 
HETATM   25  C11 UNK     1      16.680   7.329  34.942  1.00  0.00     0.009 C 
ENDBRANCH   1  24
TORSDOF 3
ENDMDL
MODEL 2
REMARK VINA RESULT:      -8.6      0.865      1.869
REMARK  3 active torsions:
REMARK  status: ('A' for Active; 'I' for Inactive)
REMARK    1  A    between atoms: C1_5  and  N1_4 
REMARK       I    between atoms: C8_12  and  N1_4 
REMARK    2  A    between atoms: C1_5  and  C2_6 
REMARK    3  A    between atoms: C6_10  and  C8_12 
ROOT
HETATM    1  C1  UNK     1      17.407   6.927  33.228  1.00  0.00     0.092 C 
HETATM    2  C4  UNK     1      16.313   7.228  34.265  1.00  0.00     0.053 C 
HETATM    3  C14 UNK     1      18.661   7.587  33.650  1.00  0.00    -0.086 C 
HETATM    4  C20 UNK     1      19.678   8.125  33.996  1.00  0.00     0.015 C 
ENDROOT
BRANCH   1   5
HETATM    5  N1  UNK     1      17.614   5.498  33.183  1.00  0.00    -0.337 N 
HETATM    6  C8  UNK     1      18.298   4.867  32.160  1.00  0.00     0.259 C 
HETATM    7  O2  UNK     1      18.807   5.411  31.182  1.00  0.00    -0.267 OA
HETATM    8  H3  UNK     1      17.202   4.939  33.926  1.00  0.00     0.164 HD
BRANCH   6   9
HETATM    9  C6  UNK     1      18.380   3.411  32.340  1.00  0.00     0.108 A 
HETATM   10  C10 UNK     1      18.219   2.957  33.589  1.00  0.00     0.038 A 
HETATM   11  C3  UNK     1      18.277   1.526  33.900  1.00  0.00     0.010 A 
HETATM   12  C5  UNK     1      18.111   0.981  35.206  1.00  0.00    -0.013 A 
HETATM   13  C7  UNK     1      18.511   0.661  32.829  1.00  0.00     0.090 A 
HETATM   14  C16 UNK     1      17.868   1.751  36.371  1.00  0.00     0.013 A 
HETATM   15  C9  UNK     1      18.193  -0.430  35.370  1.00  0.00    -0.025 A 
HETATM   16  C18 UNK     1      17.714   1.160  37.628  1.00  0.00     0.001 A 
HETATM   17  C19 UNK     1      17.797  -0.217  37.764  1.00  0.00     0.001 A 
HETATM   18  C17 UNK     1      18.036  -1.006  36.641  1.00  0.00     0.012 A 
HETATM   19  C13 UNK     1      18.430  -1.256  34.261  1.00  0.00     0.015 A 
HETATM   20  C12 UNK     1      18.589  -0.717  32.992  1.00  0.00     0.039 A 
HETATM   21  O1  UNK     1      18.680   1.144  31.515  1.00  0.00    -0.274 OA
HETATM   22  C15 UNK     1      18.626   2.497  31.210  1.00  0.00     0.304 A 
HETATM   23  O3  UNK     1      18.776   2.904  30.062  1.00  0.00    -0.259 OA
ENDBRANCH   6   9
ENDBRANCH   1   5
BRANCH   1  24
HETATM   24  C2  UNK     1      16.950   7.450  31.846  1.00  0.00     0.040 C 
HETATM   25  C11 UNK     1      15.736   8.376  31.883  1.00  0.00     0.009 C 
ENDBRANCH   1  24
TORSDOF 3
ENDMDL
MODEL 3
REMARK VINA RESULT:      -8.6      5.307     10.103
REMARK  3 active torsions:
REMARK  status: ('A' for Active; 'I' for Inactive)
REMARK    1  A    between atoms: C1_5  and  N1_4 
REMARK       I    between atoms: C8_12  and  N1_4 
REMARK    2  A    between atoms: C1_5  and  C2_6 
REMARK    3  A    between atoms: C6_10  and  C8_12 
ROOT
HETATM    1  C1  UNK     1      19.516  -6.442  37.403  1.00  0.00     0.092 C 
HETATM    2  C4  UNK     1      18.182  -7.188  37.566  1.00  0.00     0.053 C 
HETATM    3  C14 UNK     1      20.393  -7.221  36.504  1.00  0.00    -0.086 C 
HETATM    4  C20 UNK     1      21.103  -7.857  35.772  1.00  0.00     0.015 C 
ENDROOT
BRANCH   1   5
HETATM    5  N1  UNK     1      19.250  -5.153  36.808  1.00  0.00    -0.337 N 
HETATM    6  C8  UNK     1      20.221  -4.180  36.653  1.00  0.00     0.259 C 
HETATM    7  O2  UNK     1      21.401  -4.271  36.986  1.00  0.00    -0.267 OA
HETATM    8  H3  UNK     1      18.293  -4.951  36.529  1.00  0.00     0.164 HD
BRANCH   6   9
HETATM    9  C6  UNK     1      19.708  -2.958  36.020  1.00  0.00     0.108 A 
HETATM   10  C10 UNK     1      19.959  -2.815  34.713  1.00  0.00     0.038 A 
HETATM   11  C3  UNK     1      19.500  -1.640  33.966  1.00  0.00     0.010 A 
HETATM   12  C5  UNK     1      19.734  -1.431  32.576  1.00  0.00    -0.013 A 
HETATM   13  C7  UNK     1      18.789  -0.678  34.686  1.00  0.00     0.090 A 
HETATM   14  C16 UNK     1      20.438  -2.331  31.738  1.00  0.00     0.013 A 
HETATM   15  C9  UNK     1      19.233  -0.244  31.973  1.00  0.00    -0.025 A 
HETATM   16  C18 UNK     1      20.637  -2.072  30.379  1.00  0.00     0.001 A 
HETATM   17  C19 UNK     1      20.140  -0.909  29.813  1.00  0.00     0.001 A 
HETATM   18  C17 UNK     1      19.443  -0.000  30.606  1.00  0.00     0.012 A 
HETATM   19  C13 UNK     1      18.524   0.693  32.741  1.00  0.00     0.015 A 
HETATM   20  C12 UNK     1      18.300   0.481  34.095  1.00  0.00     0.039 A 
HETATM   21  O1  UNK     1      18.527  -0.833  36.064  1.00  0.00    -0.274 OA
HETATM   22  C15 UNK     1      18.957  -1.941  36.780  1.00  0.00     0.304 A 
HETATM   23  O3  UNK     1      18.722  -2.063  37.978  1.00  0.00    -0.259 OA
ENDBRANCH   6   9
ENDBRANCH   1   5
BRANCH   1  24
HETATM   24  C2  UNK     1      20.170  -6.271  38.794  1.00  0.00     0.040 C 
HETATM   25  C11 UNK     1      20.677  -7.567  39.426  1.00  0.00     0.009 C 
ENDBRANCH   1  24
TORSDOF 3
ENDMDL
MODEL 4
REMARK VINA RESULT:      -8.5      2.048      3.544
REMARK  3 active torsions:
REMARK  status: ('A' for Active; 'I' for Inactive)
REMARK    1  A    between atoms: C1_5  and  N1_4 
REMARK       I    between atoms: C8_12  and  N1_4 
REMARK    2  A    between atoms: C1_5  and  C2_6 
REMARK    3  A    between atoms: C6_10  and  C8_12 
ROOT
HETATM    1  C1  UNK     1      18.311   8.326  34.003  1.00  0.00     0.092 C 
HETATM    2  C4  UNK     1      17.652   7.903  35.325  1.00  0.00     0.053 C 
HETATM    3  C14 UNK     1      19.610   8.965  34.298  1.00  0.00    -0.086 C 
HETATM    4  C20 UNK     1      20.666   9.483  34.542  1.00  0.00     0.015 C 
ENDROOT
BRANCH   1   5
HETATM    5  N1  UNK     1      18.533   7.143  33.204  1.00  0.00    -0.337 N 
HETATM    6  C8  UNK     1      17.508   6.319  32.774  1.00  0.00     0.259 C 
HETATM    7  O2  UNK     1      16.309   6.472  33.002  1.00  0.00    -0.267 OA
HETATM    8  H3  UNK     1      19.495   6.896  32.985  1.00  0.00     0.164 HD
BRANCH   6   9
HETATM    9  C6  UNK     1      17.985   5.184  31.974  1.00  0.00     0.108 A 
HETATM   10  C10 UNK     1      18.010   3.994  32.587  1.00  0.00     0.038 A 
HETATM   11  C3  UNK     1      18.465   2.783  31.897  1.00  0.00     0.010 A 
HETATM   12  C5  UNK     1      18.512   1.490  32.493  1.00  0.00    -0.013 A 
HETATM   13  C7  UNK     1      18.871   2.933  30.570  1.00  0.00     0.090 A 
HETATM   14  C16 UNK     1      18.127   1.207  33.827  1.00  0.00     0.013 A 
HETATM   15  C9  UNK     1      18.977   0.396  31.709  1.00  0.00    -0.025 A 
HETATM   16  C18 UNK     1      18.196  -0.083  34.358  1.00  0.00     0.001 A 
HETATM   17  C19 UNK     1      18.651  -1.133  33.576  1.00  0.00     0.001 A 
HETATM   18  C17 UNK     1      19.040  -0.894  32.260  1.00  0.00     0.012 A 
HETATM   19  C13 UNK     1      19.375   0.600  30.380  1.00  0.00     0.015 A 
HETATM   20  C12 UNK     1      19.324   1.864  29.806  1.00  0.00     0.039 A 
HETATM   21  O1  UNK     1      18.843   4.190  29.928  1.00  0.00    -0.274 OA
HETATM   22  C15 UNK     1      18.414   5.342  30.572  1.00  0.00     0.304 A 
HETATM   23  O3  UNK     1      18.396   6.428  30.003  1.00  0.00    -0.259 OA
ENDBRANCH   6   9
ENDBRANCH   1   5
BRANCH   1  24
HETATM   24  C2  UNK     1      17.373   9.309  33.264  1.00  0.00     0.040 C 
HETATM   25  C11 UNK     1      16.379  10.043  34.163  1.00  0.00     0.009 C 
ENDBRANCH   1  24
TORSDOF 3
ENDMDL
MODEL 5
REMARK VINA RESULT:      -8.4      1.975      6.676
REMARK  3 active torsions:
REMARK  status: ('A' for Active; 'I' for Inactive)
REMARK    1  A    between atoms: C1_5  and  N1_4 
REMARK       I    between atoms: C8_12  and  N1_4 
REMARK    2  A    between atoms: C1_5  and  C2_6 
REMARK    3  A    between atoms: C6_10  and  C8_12 
ROOT
HETATM    1  C1  UNK     1      18.043  -0.248  35.545  1.00  0.00     0.092 C 
HETATM    2  C4  UNK     1      16.694  -0.951  35.327  1.00  0.00     0.053 C 
HETATM    3  C14 UNK     1      19.123  -1.255  35.486  1.00  0.00    -0.086 C 
HETATM    4  C20 UNK     1      19.998  -2.077  35.436  1.00  0.00     0.015 C 
ENDROOT
BRANCH   1   5
HETATM    5  N1  UNK     1      18.233   0.716  34.486  1.00  0.00    -0.337 N 
HETATM    6  C8  UNK     1      18.332   0.362  33.153  1.00  0.00     0.259 C 
HETATM    7  O2  UNK     1      18.274  -0.778  32.698  1.00  0.00    -0.267 OA
HETATM    8  H3  UNK     1      18.333   1.693  34.751  1.00  0.00     0.164 HD
BRANCH   6   9
HETATM    9  C6  UNK     1      18.519   1.519  32.267  1.00  0.00     0.108 A 
HETATM   10  C10 UNK     1      18.201   2.715  32.777  1.00  0.00     0.038 A 
HETATM   11  C3  UNK     1      18.343   3.946  31.994  1.00  0.00     0.010 A 
HETATM   12  C5  UNK     1      18.024   5.247  32.480  1.00  0.00    -0.013 A 
HETATM   13  C7  UNK     1      18.826   3.809  30.691  1.00  0.00     0.090 A 
HETATM   14  C16 UNK     1      17.529   5.518  33.780  1.00  0.00     0.013 A 
HETATM   15  C9  UNK     1      18.209   6.361  31.613  1.00  0.00    -0.025 A 
HETATM   16  C18 UNK     1      17.233   6.817  34.201  1.00  0.00     0.001 A 
HETATM   17  C19 UNK     1      17.420   7.887  33.340  1.00  0.00     0.001 A 
HETATM   18  C17 UNK     1      17.905   7.660  32.054  1.00  0.00     0.012 A 
HETATM   19  C13 UNK     1      18.696   6.169  30.312  1.00  0.00     0.015 A 
HETATM   20  C12 UNK     1      19.006   4.898  29.847  1.00  0.00     0.039 A 
HETATM   21  O1  UNK     1      19.160   2.545  30.158  1.00  0.00    -0.274 OA
HETATM   22  C15 UNK     1      19.029   1.374  30.891  1.00  0.00     0.304 A 
HETATM   23  O3  UNK     1      19.323   0.282  30.415  1.00  0.00    -0.259 OA
ENDBRANCH   6   9
ENDBRANCH   1   5
BRANCH   1  24
HETATM   24  C2  UNK     1      18.026   0.457  36.922  1.00  0.00     0.040 C 
HETATM   25  C11 UNK     1      16.778   1.294  37.197  1.00  0.00     0.009 C 
ENDBRANCH   1  24
TORSDOF 3
ENDMDL
MODEL 6
REMARK VINA RESULT:      -8.2      1.549      2.144
REMARK  3 active torsions:
REMARK  status: ('A' for Active; 'I' for Inactive)
REMARK    1  A    between atoms: C1_5  and  N1_4 
REMARK       I    between atoms: C8_12  and  N1_4 
REMARK    2  A    between atoms: C1_5  and  C2_6 
REMARK    3  A    between atoms: C6_10  and  C8_12 
ROOT
HETATM    1  C1  UNK     1      18.835   5.633  31.623  1.00  0.00     0.092 C 
HETATM    2  C4  UNK     1      18.973   5.634  30.092  1.00  0.00     0.053 C 
HETATM    3  C14 UNK     1      17.502   6.162  31.984  1.00  0.00    -0.086 C 
HETATM    4  C20 UNK     1      16.418   6.591  32.273  1.00  0.00     0.015 C 
ENDROOT
BRANCH   1   5
HETATM    5  N1  UNK     1      18.949   4.271  32.091  1.00  0.00    -0.337 N 
HETATM    6  C8  UNK     1      18.102   3.259  31.679  1.00  0.00     0.259 C 
HETATM    7  O2  UNK     1      17.169   3.369  30.887  1.00  0.00    -0.267 OA
HETATM    8  H3  UNK     1      19.666   4.070  32.783  1.00  0.00     0.164 HD
BRANCH   6   9
HETATM    9  C6  UNK     1      18.421   1.963  32.292  1.00  0.00     0.108 A 
HETATM   10  C10 UNK     1      18.169   1.847  33.602  1.00  0.00     0.038 A 
HETATM   11  C3  UNK     1      18.443   0.604  34.330  1.00  0.00     0.010 A 
HETATM   12  C5  UNK     1      18.195   0.418  35.721  1.00  0.00    -0.013 A 
HETATM   13  C7  UNK     1      18.980  -0.451  33.590  1.00  0.00     0.090 A 
HETATM   14  C16 UNK     1      17.653   1.408  36.578  1.00  0.00     0.013 A 
HETATM   15  C9  UNK     1      18.508  -0.841  36.305  1.00  0.00    -0.025 A 
HETATM   16  C18 UNK     1      17.432   1.168  37.937  1.00  0.00     0.001 A 
HETATM   17  C19 UNK     1      17.744  -0.067  38.484  1.00  0.00     0.001 A 
HETATM   18  C17 UNK     1      18.280  -1.064  37.673  1.00  0.00     0.012 A 
HETATM   19  C13 UNK     1      19.047  -1.869  35.518  1.00  0.00     0.015 A 
HETATM   20  C12 UNK     1      19.284  -1.680  34.163  1.00  0.00     0.039 A 
HETATM   21  O1  UNK     1      19.244  -0.324  32.210  1.00  0.00    -0.274 OA
HETATM   22  C15 UNK     1      18.988   0.848  31.511  1.00  0.00     0.304 A 
HETATM   23  O3  UNK     1      19.223   0.945  30.311  1.00  0.00    -0.259 OA
ENDBRANCH   6   9
ENDBRANCH   1   5
BRANCH   1  24
HETATM   24  C2  UNK     1      19.955   6.510  32.230  1.00  0.00     0.040 C 
HETATM   25  C11 UNK     1      19.688   6.990  33.656  1.00  0.00     0.009 C 
ENDBRANCH   1  24
TORSDOF 3
ENDMDL
MODEL 7
REMARK VINA RESULT:      -8.2     16.027     19.020
REMARK  3 active torsions:
REMARK  status: ('A' for Active; 'I' for Inactive)
REMARK    1  A    between atoms: C1_5  and  N1_4 
REMARK       I    between atoms: C8_12  and  N1_4 
REMARK    2  A    between atoms: C1_5  and  C2_6 
REMARK    3  A    between atoms: C6_10  and  C8_12 
ROOT
HETATM    1  C1  UNK     1      19.889  -5.161  14.583  1.00  0.00     0.092 C 
HETATM    2  C4  UNK     1      20.122  -5.358  13.077  1.00  0.00     0.053 C 
HETATM    3  C14 UNK     1      21.025  -5.750  15.324  1.00  0.00    -0.086 C 
HETATM    4  C20 UNK     1      21.950  -6.228  15.923  1.00  0.00     0.015 C 
ENDROOT
BRANCH   1   5
HETATM    5  N1  UNK     1      19.826  -3.744  14.856  1.00  0.00    -0.337 N 
HETATM    6  C8  UNK     1      18.704  -3.126  15.378  1.00  0.00     0.259 C 
HETATM    7  O2  UNK     1      17.644  -3.673  15.674  1.00  0.00    -0.267 OA
HETATM    8  H3  UNK     1      20.638  -3.182  14.614  1.00  0.00     0.164 HD
BRANCH   6   9
HETATM    9  C6  UNK     1      18.886  -1.681  15.570  1.00  0.00     0.108 A 
HETATM   10  C10 UNK     1      18.923  -1.249  16.836  1.00  0.00     0.038 A 
HETATM   11  C3  UNK     1      19.101   0.170  17.159  1.00  0.00     0.010 A 
HETATM   12  C5  UNK     1      19.151   0.691  18.484  1.00  0.00    -0.013 A 
HETATM   13  C7  UNK     1      19.228   1.047  16.080  1.00  0.00     0.090 A 
HETATM   14  C16 UNK     1      19.036  -0.094  19.659  1.00  0.00     0.013 A 
HETATM   15  C9  UNK     1      19.327   2.092  18.658  1.00  0.00    -0.025 A 
HETATM   16  C18 UNK     1      19.092   0.473  20.935  1.00  0.00     0.001 A 
HETATM   17  C19 UNK     1      19.265   1.841  21.080  1.00  0.00     0.001 A 
HETATM   18  C17 UNK     1      19.380   2.645  19.948  1.00  0.00     0.012 A 
HETATM   19  C13 UNK     1      19.448   2.932  17.541  1.00  0.00     0.015 A 
HETATM   20  C12 UNK     1      19.400   2.416  16.253  1.00  0.00     0.039 A 
HETATM   21  O1  UNK     1      19.187   0.587  14.747  1.00  0.00    -0.274 OA
HETATM   22  C15 UNK     1      19.020  -0.754  14.430  1.00  0.00     0.304 A 
HETATM   23  O3  UNK     1      18.987  -1.140  13.267  1.00  0.00    -0.259 OA
ENDBRANCH   6   9
ENDBRANCH   1   5
BRANCH   1  24
HETATM   24  C2  UNK     1      18.561  -5.848  14.981  1.00  0.00     0.040 C 
HETATM   25  C11 UNK     1      17.758  -6.414  13.811  1.00  0.00     0.009 C 
ENDBRANCH   1  24
TORSDOF 3
ENDMDL
MODEL 8
REMARK VINA RESULT:      -8.2     24.420     25.988
REMARK  3 active torsions:
REMARK  status: ('A' for Active; 'I' for Inactive)
REMARK    1  A    between atoms: C1_5  and  N1_4 
REMARK       I    between atoms: C8_12  and  N1_4 
REMARK    2  A    between atoms: C1_5  and  C2_6 
REMARK    3  A    between atoms: C6_10  and  C8_12 
ROOT
HETATM    1  C1  UNK     1       8.588   6.224   8.326  1.00  0.00     0.092 C 
HETATM    2  C4  UNK     1       8.374   5.834   6.855  1.00  0.00     0.053 C 
HETATM    3  C14 UNK     1       7.869   5.261   9.186  1.00  0.00    -0.086 C 
HETATM    4  C20 UNK     1       7.284   4.476   9.882  1.00  0.00     0.015 C 
ENDROOT
BRANCH   1   5
HETATM    5  N1  UNK     1      10.002   6.158   8.615  1.00  0.00    -0.337 N 
HETATM    6  C8  UNK     1      10.972   6.638   7.754  1.00  0.00     0.259 C 
HETATM    7  O2  UNK     1      10.776   7.169   6.663  1.00  0.00    -0.267 OA
HETATM    8  H3  UNK     1      10.284   5.701   9.479  1.00  0.00     0.164 HD
BRANCH   6   9
HETATM    9  C6  UNK     1      12.334   6.459   8.272  1.00  0.00     0.108 A 
HETATM   10  C10 UNK     1      13.024   7.577   8.529  1.00  0.00     0.038 A 
HETATM   11  C3  UNK     1      14.393   7.533   9.050  1.00  0.00     0.010 A 
HETATM   12  C5  UNK     1      15.177   8.685   9.345  1.00  0.00    -0.013 A 
HETATM   13  C7  UNK     1      14.943   6.267   9.263  1.00  0.00     0.090 A 
HETATM   14  C16 UNK     1      14.735  10.021   9.174  1.00  0.00     0.013 A 
HETATM   15  C9  UNK     1      16.497   8.501   9.846  1.00  0.00    -0.025 A 
HETATM   16  C18 UNK     1      15.550  11.114   9.481  1.00  0.00     0.001 A 
HETATM   17  C19 UNK     1      16.832  10.910   9.968  1.00  0.00     0.001 A 
HETATM   18  C17 UNK     1      17.302   9.611  10.148  1.00  0.00     0.012 A 
HETATM   19  C13 UNK     1      17.002   7.207  10.042  1.00  0.00     0.015 A 
HETATM   20  C12 UNK     1      16.231   6.089   9.753  1.00  0.00     0.039 A 
HETATM   21  O1  UNK     1      14.212   5.091   8.990  1.00  0.00    -0.274 OA
HETATM   22  C15 UNK     1      12.914   5.122   8.497  1.00  0.00     0.304 A 
HETATM   23  O3  UNK     1      12.291   4.092   8.264  1.00  0.00    -0.259 OA
ENDBRANCH   6   9
ENDBRANCH   1   5
BRANCH   1  24
HETATM   24  C2  UNK     1       8.058   7.660   8.548  1.00  0.00     0.040 C 
HETATM   25  C11 UNK     1       8.503   8.310   9.857  1.00  0.00     0.009 C 
ENDBRANCH   1  24
TORSDOF 3
ENDMDL
MODEL 9
REMARK VINA RESULT:      -8.2      2.427      4.213
REMARK  3 active torsions:
REMARK  status: ('A' for Active; 'I' for Inactive)
REMARK    1  A    between atoms: C1_5  and  N1_4 
REMARK       I    between atoms: C8_12  and  N1_4 
REMARK    2  A    between atoms: C1_5  and  C2_6 
REMARK    3  A    between atoms: C6_10  and  C8_12 
ROOT
HETATM    1  C1  UNK     1      18.399   6.636  33.855  1.00  0.00     0.092 C 
HETATM    2  C4  UNK     1      18.789   7.129  32.452  1.00  0.00     0.053 C 
HETATM    3  C14 UNK     1      16.990   6.999  34.115  1.00  0.00    -0.086 C 
HETATM    4  C20 UNK     1      15.844   7.294  34.322  1.00  0.00     0.015 C 
ENDROOT
BRANCH   1   5
HETATM    5  N1  UNK     1      18.535   5.199  33.890  1.00  0.00    -0.337 N 
HETATM    6  C8  UNK     1      17.933   4.362  32.967  1.00  0.00     0.259 C 
HETATM    7  O2  UNK     1      17.226   4.709  32.024  1.00  0.00    -0.267 OA
HETATM    8  H3  UNK     1      19.070   4.795  34.654  1.00  0.00     0.164 HD
BRANCH   6   9
HETATM    9  C6  UNK     1      18.222   2.943  33.210  1.00  0.00     0.108 A 
HETATM   10  C10 UNK     1      18.657   2.236  32.160  1.00  0.00     0.038 A 
HETATM   11  C3  UNK     1      18.981   0.811  32.273  1.00  0.00     0.010 A 
HETATM   12  C5  UNK     1      19.449   0.006  31.195  1.00  0.00    -0.013 A 
HETATM   13  C7  UNK     1      18.811   0.227  33.531  1.00  0.00     0.090 A 
HETATM   14  C16 UNK     1      19.663   0.479  29.876  1.00  0.00     0.013 A 
HETATM   15  C9  UNK     1      19.726  -1.368  31.441  1.00  0.00    -0.025 A 
HETATM   16  C18 UNK     1      20.124  -0.358  28.857  1.00  0.00     0.001 A 
HETATM   17  C19 UNK     1      20.387  -1.694  29.120  1.00  0.00     0.001 A 
HETATM   18  C17 UNK     1      20.188  -2.195  30.404  1.00  0.00     0.012 A 
HETATM   19  C13 UNK     1      19.538  -1.906  32.723  1.00  0.00     0.015 A 
HETATM   20  C12 UNK     1      19.083  -1.115  33.769  1.00  0.00     0.039 A 
HETATM   21  O1  UNK     1      18.352   0.976  34.635  1.00  0.00    -0.274 OA
HETATM   22  C15 UNK     1      18.044   2.326  34.538  1.00  0.00     0.304 A 
HETATM   23  O3  UNK     1      17.645   2.965  35.506  1.00  0.00    -0.259 OA
ENDBRANCH   6   9
ENDBRANCH   1   5
BRANCH   1  24
HETATM   24  C2  UNK     1      19.334   7.293  34.897  1.00  0.00     0.040 C 
HETATM   25  C11 UNK     1      19.847   8.680  34.512  1.00  0.00     0.009 C 
ENDBRANCH   1  24
TORSDOF 3
ENDMDL
MODEL 10
REMARK VINA RESULT:      -8.2      2.974      4.275
REMARK  3 active torsions:
REMARK  status: ('A' for Active; 'I' for Inactive)
REMARK    1  A    between atoms: C1_5  and  N1_4 
REMARK       I    between atoms: C8_12  and  N1_4 
REMARK    2  A    between atoms: C1_5  and  C2_6 
REMARK    3  A    between atoms: C6_10  and  C8_12 
ROOT
HETATM    1  C1  UNK     1      17.988   6.201  32.013  1.00  0.00     0.092 C 
HETATM    2  C4  UNK     1      16.926   5.873  33.075  1.00  0.00     0.053 C 
HETATM    3  C14 UNK     1      19.202   6.705  32.690  1.00  0.00    -0.086 C 
HETATM    4  C20 UNK     1      20.187   7.113  33.244  1.00  0.00     0.015 C 
ENDROOT
BRANCH   1   5
HETATM    5  N1  UNK     1      18.312   4.988  31.298  1.00  0.00    -0.337 N 
HETATM    6  C8  UNK     1      18.207   3.729  31.863  1.00  0.00     0.259 C 
HETATM    7  O2  UNK     1      17.838   3.475  33.008  1.00  0.00    -0.267 OA
HETATM    8  H3  UNK     1      18.666   5.080  30.350  1.00  0.00     0.164 HD
BRANCH   6   9
HETATM    9  C6  UNK     1      18.588   2.655  30.937  1.00  0.00     0.108 A 
HETATM   10  C10 UNK     1      19.042   1.524  31.493  1.00  0.00     0.038 A 
HETATM   11  C3  UNK     1      19.453   0.378  30.677  1.00  0.00     0.010 A 
HETATM   12  C5  UNK     1      19.941  -0.850  31.208  1.00  0.00    -0.013 A 
HETATM   13  C7  UNK     1      19.350   0.525  29.292  1.00  0.00     0.090 A 
HETATM   14  C16 UNK     1      20.091  -1.123  32.591  1.00  0.00     0.013 A 
HETATM   15  C9  UNK     1      20.309  -1.885  30.302  1.00  0.00    -0.025 A 
HETATM   16  C18 UNK     1      20.577  -2.349  33.054  1.00  0.00     0.001 A 
HETATM   17  C19 UNK     1      20.928  -3.342  32.153  1.00  0.00     0.001 A 
HETATM   18  C17 UNK     1      20.795  -3.111  30.786  1.00  0.00     0.012 A 
HETATM   19  C13 UNK     1      20.186  -1.687  28.919  1.00  0.00     0.015 A 
HETATM   20  C12 UNK     1      19.709  -0.487  28.410  1.00  0.00     0.039 A 
HETATM   21  O1  UNK     1      18.872   1.719  28.711  1.00  0.00    -0.274 OA
HETATM   22  C15 UNK     1      18.479   2.809  29.475  1.00  0.00     0.304 A 
HETATM   23  O3  UNK     1      18.065   3.841  28.957  1.00  0.00    -0.259 OA
ENDBRANCH   6   9
ENDBRANCH   1   5
BRANCH   1  24
HETATM   24  C2  UNK     1      17.420   7.264  31.044  1.00  0.00     0.040 C 
HETATM   25  C11 UNK     1      16.456   8.262  31.683  1.00  0.00     0.009 C 
ENDBRANCH   1  24
TORSDOF 3
ENDMDL
