MODEL 1
REMARK VINA RESULT:      -9.6      0.000      0.000
REMARK  6 active torsions:
REMARK  status: ('A' for Active; 'I' for Inactive)
REMARK    1  A    between atoms: C5_10  and  O2_2 
REMARK    2  A    between atoms: C9_14  and  O2_2 
REMARK    3  A    between atoms: C23_28  and  O4_4 
REMARK    4  A    between atoms: C10_15  and  C9_14 
REMARK    5  A    between atoms: C11_16  and  C12_17 
REMARK    6  A    between atoms: C15_20  and  C23_28 
ROOT
HETATM    1  O1  UNK     1      19.883  -1.869  33.830  1.00  0.00    -0.306 OA
HETATM    2  O3  UNK     1      17.283   0.120  35.181  1.00  0.00    -0.284 OA
HETATM    3  C1  UNK     1      18.830  -1.582  35.866  1.00  0.00     0.051 A 
HETATM    4  C2  UNK     1      19.811  -2.261  35.147  1.00  0.00     0.093 A 
HETATM    5  C3  UNK     1      18.908  -0.891  33.674  1.00  0.00     0.127 A 
HETATM    6  C4  UNK     1      18.186  -0.651  34.948  1.00  0.00     0.218 A 
HETATM    7  C5  UNK     1      20.378  -3.481  37.103  1.00  0.00     0.071 A 
HETATM    8  C6  UNK     1      20.601  -3.219  35.747  1.00  0.00     0.075 A 
HETATM    9  C7  UNK     1      18.590  -1.822  37.203  1.00  0.00     0.021 A 
HETATM   10  C8  UNK     1      19.383  -2.790  37.823  1.00  0.00     0.038 A 
HETATM   11  C11 UNK     1      18.653  -0.251  32.532  1.00  0.00     0.053 C 
ENDROOT
BRANCH   7  12
HETATM   12  O2  UNK     1      21.135  -4.420  37.738  1.00  0.00    -0.347 OA
BRANCH  12  13
HETATM   13  C9  UNK     1      20.451  -5.553  38.268  1.00  0.00     0.214 C 
BRANCH  13  14
HETATM   14  C10 UNK     1      20.845  -6.773  37.487  1.00  0.00    -0.034 A 
HETATM   15  C13 UNK     1      20.188  -7.072  36.299  1.00  0.00     0.010 A 
HETATM   16  C16 UNK     1      20.554  -8.205  35.573  1.00  0.00     0.018 A 
HETATM   17  C15 UNK     1      21.576  -9.032  36.040  1.00  0.00     0.039 A 
HETATM   18  C17 UNK     1      22.231  -8.725  37.233  1.00  0.00     0.018 A 
HETATM   19  C14 UNK     1      21.864  -7.592  37.959  1.00  0.00     0.010 A 
BRANCH  17  20
HETATM   20  C23 UNK     1      21.958 -10.213  35.283  1.00  0.00     0.292 C 
HETATM   21  O5  UNK     1      21.830 -10.331  34.058  1.00  0.00    -0.259 OA
BRANCH  20  22
HETATM   22  O4  UNK     1      22.479 -11.184  36.095  1.00  0.00    -0.323 OA
HETATM   23  C24 UNK     1      23.719 -11.772  35.687  1.00  0.00     0.213 C 
ENDBRANCH  20  22
ENDBRANCH  17  20
ENDBRANCH  13  14
ENDBRANCH  12  13
ENDBRANCH   7  12
BRANCH  11  24
HETATM   24  C12 UNK     1      19.349  -0.461  31.250  1.00  0.00    -0.034 A 
HETATM   25  C18 UNK     1      19.924  -1.693  30.985  1.00  0.00     0.011 A 
HETATM   26  C20 UNK     1      20.583  -1.893  29.772  1.00  0.00     0.001 A 
HETATM   27  C22 UNK     1      20.658  -0.857  28.840  1.00  0.00     0.000 A 
HETATM   28  C21 UNK     1      20.073   0.378  29.122  1.00  0.00     0.001 A 
HETATM   29  C19 UNK     1      19.415   0.577  30.336  1.00  0.00     0.011 A 
ENDBRANCH  11  24
TORSDOF 6
ENDMDL
MODEL 2
REMARK VINA RESULT:      -9.6      4.535     11.083
REMARK  6 active torsions:
REMARK  status: ('A' for Active; 'I' for Inactive)
REMARK    1  A    between atoms: C5_10  and  O2_2 
REMARK    2  A    between atoms: C9_14  and  O2_2 
REMARK    3  A    between atoms: C23_28  and  O4_4 
REMARK    4  A    between atoms: C10_15  and  C9_14 
REMARK    5  A    between atoms: C11_16  and  C12_17 
REMARK    6  A    between atoms: C15_20  and  C23_28 
ROOT
HETATM    1  O1  UNK     1      19.265  -0.603  32.984  1.00  0.00    -0.306 OA
HETATM    2  O3  UNK     1      21.267  -3.436  32.272  1.00  0.00    -0.284 OA
HETATM    3  C1  UNK     1      20.338  -1.525  31.157  1.00  0.00     0.051 A 
HETATM    4  C2  UNK     1      19.544  -0.487  31.642  1.00  0.00     0.093 A 
HETATM    5  C3  UNK     1      19.900  -1.766  33.402  1.00  0.00     0.127 A 
HETATM    6  C4  UNK     1      20.615  -2.417  32.276  1.00  0.00     0.218 A 
HETATM    7  C5  UNK     1      19.501   0.473  29.471  1.00  0.00     0.071 A 
HETATM    8  C6  UNK     1      19.112   0.527  30.813  1.00  0.00     0.075 A 
HETATM    9  C7  UNK     1      20.735  -1.602  29.839  1.00  0.00     0.021 A 
HETATM   10  C8  UNK     1      20.304  -0.581  28.989  1.00  0.00     0.038 A 
HETATM   11  C11 UNK     1      19.874  -2.238  34.649  1.00  0.00     0.053 C 
ENDROOT
BRANCH   7  12
HETATM   12  O2  UNK     1      19.098   1.453  28.615  1.00  0.00    -0.347 OA
BRANCH  12  13
HETATM   13  C9  UNK     1      17.943   2.202  28.985  1.00  0.00     0.214 C 
BRANCH  13  14
HETATM   14  C10 UNK     1      18.357   3.335  29.877  1.00  0.00    -0.034 A 
HETATM   15  C13 UNK     1      19.101   4.387  29.355  1.00  0.00     0.010 A 
HETATM   16  C16 UNK     1      19.485   5.440  30.184  1.00  0.00     0.018 A 
HETATM   17  C15 UNK     1      19.123   5.435  31.531  1.00  0.00     0.039 A 
HETATM   18  C17 UNK     1      18.376   4.377  32.048  1.00  0.00     0.018 A 
HETATM   19  C14 UNK     1      17.992   3.324  31.219  1.00  0.00     0.010 A 
BRANCH  17  20
HETATM   20  C23 UNK     1      19.525   6.534  32.395  1.00  0.00     0.292 C 
HETATM   21  O5  UNK     1      20.655   6.665  32.882  1.00  0.00    -0.259 OA
BRANCH  20  22
HETATM   22  O4  UNK     1      18.495   7.410  32.605  1.00  0.00    -0.323 OA
HETATM   23  C24 UNK     1      18.613   8.290  33.728  1.00  0.00     0.213 C 
ENDBRANCH  20  22
ENDBRANCH  17  20
ENDBRANCH  13  14
ENDBRANCH  12  13
ENDBRANCH   7  12
BRANCH  11  24
HETATM   24  C12 UNK     1      19.177  -1.620  35.791  1.00  0.00    -0.034 A 
HETATM   25  C18 UNK     1      18.745  -0.307  35.693  1.00  0.00     0.011 A 
HETATM   26  C20 UNK     1      18.086   0.278  36.774  1.00  0.00     0.001 A 
HETATM   27  C22 UNK     1      17.868  -0.457  37.938  1.00  0.00     0.000 A 
HETATM   28  C21 UNK     1      18.308  -1.779  38.022  1.00  0.00     0.001 A 
HETATM   29  C19 UNK     1      18.968  -2.363  36.941  1.00  0.00     0.011 A 
ENDBRANCH  11  24
TORSDOF 6
ENDMDL
MODEL 3
REMARK VINA RESULT:      -9.5      5.407     12.362
REMARK  6 active torsions:
REMARK  status: ('A' for Active; 'I' for Inactive)
REMARK    1  A    between atoms: C5_10  and  O2_2 
REMARK    2  A    between atoms: C9_14  and  O2_2 
REMARK    3  A    between atoms: C23_28  and  O4_4 
REMARK    4  A    between atoms: C10_15  and  C9_14 
REMARK    5  A    between atoms: C11_16  and  C12_17 
REMARK    6  A    between atoms: C15_20  and  C23_28 
ROOT
HETATM    1  O1  UNK     1      18.519   1.078  33.183  1.00  0.00    -0.306 OA
HETATM    2  O3  UNK     1      19.499  -1.824  31.406  1.00  0.00    -0.284 OA
HETATM    3  C1  UNK     1      19.080   0.506  31.016  1.00  0.00     0.051 A 
HETATM    4  C2  UNK     1      18.686   1.517  31.890  1.00  0.00     0.093 A 
HETATM    5  C3  UNK     1      18.815  -0.280  33.161  1.00  0.00     0.127 A 
HETATM    6  C4  UNK     1      19.186  -0.722  31.794  1.00  0.00     0.218 A 
HETATM    7  C5  UNK     1      18.719   3.065  30.090  1.00  0.00     0.071 A 
HETATM    8  C6  UNK     1      18.498   2.810  31.448  1.00  0.00     0.075 A 
HETATM    9  C7  UNK     1      19.303   0.731  29.674  1.00  0.00     0.021 A 
HETATM   10  C8  UNK     1      19.117   2.036  29.213  1.00  0.00     0.038 A 
HETATM   11  C11 UNK     1      18.771  -1.082  34.225  1.00  0.00     0.053 C 
ENDROOT
BRANCH   7  12
HETATM   12  O2  UNK     1      18.546   4.327  29.607  1.00  0.00    -0.347 OA
BRANCH  12  13
HETATM   13  C9  UNK     1      19.531   5.297  29.959  1.00  0.00     0.214 C 
BRANCH  13  14
HETATM   14  C10 UNK     1      18.969   6.206  31.012  1.00  0.00    -0.034 A 
HETATM   15  C13 UNK     1      17.732   6.810  30.813  1.00  0.00     0.010 A 
HETATM   16  C16 UNK     1      17.210   7.654  31.792  1.00  0.00     0.018 A 
HETATM   17  C15 UNK     1      17.928   7.891  32.964  1.00  0.00     0.039 A 
HETATM   18  C17 UNK     1      19.168   7.281  33.158  1.00  0.00     0.018 A 
HETATM   19  C14 UNK     1      19.690   6.437  32.179  1.00  0.00     0.010 A 
BRANCH  17  20
HETATM   20  C23 UNK     1      17.383   8.772  33.985  1.00  0.00     0.292 C 
HETATM   21  O5  UNK     1      16.926   8.390  35.069  1.00  0.00    -0.259 OA
BRANCH  20  22
HETATM   22  O4  UNK     1      17.439  10.083  33.598  1.00  0.00    -0.323 OA
HETATM   23  C24 UNK     1      18.612  10.818  33.968  1.00  0.00     0.213 C 
ENDBRANCH  20  22
ENDBRANCH  17  20
ENDBRANCH  13  14
ENDBRANCH  12  13
ENDBRANCH   7  12
BRANCH  11  24
HETATM   24  C12 UNK     1      18.408  -0.680  35.596  1.00  0.00    -0.034 A 
HETATM   25  C18 UNK     1      18.160   0.655  35.867  1.00  0.00     0.011 A 
HETATM   26  C20 UNK     1      17.816   1.037  37.164  1.00  0.00     0.001 A 
HETATM   27  C22 UNK     1      17.727   0.077  38.172  1.00  0.00     0.000 A 
HETATM   28  C21 UNK     1      17.981  -1.264  37.883  1.00  0.00     0.001 A 
HETATM   29  C19 UNK     1      18.324  -1.645  36.586  1.00  0.00     0.011 A 
ENDBRANCH  11  24
TORSDOF 6
ENDMDL
MODEL 4
REMARK VINA RESULT:      -9.4      9.581     13.877
REMARK  6 active torsions:
REMARK  status: ('A' for Active; 'I' for Inactive)
REMARK    1  A    between atoms: C5_10  and  O2_2 
REMARK    2  A    between atoms: C9_14  and  O2_2 
REMARK    3  A    between atoms: C23_28  and  O4_4 
REMARK    4  A    between atoms: C10_15  and  C9_14 
REMARK    5  A    between atoms: C11_16  and  C12_17 
REMARK    6  A    between atoms: C15_20  and  C23_28 
ROOT
HETATM    1  O1  UNK     1      15.755  10.217  35.374  1.00  0.00    -0.306 OA
HETATM    2  O3  UNK     1      13.103  10.445  33.037  1.00  0.00    -0.284 OA
HETATM    3  C1  UNK     1      15.281   9.459  33.243  1.00  0.00     0.051 A 
HETATM    4  C2  UNK     1      16.198   9.493  34.291  1.00  0.00     0.093 A 
HETATM    5  C3  UNK     1      14.492  10.680  35.025  1.00  0.00     0.127 A 
HETATM    6  C4  UNK     1      14.117  10.230  33.662  1.00  0.00     0.218 A 
HETATM    7  C5  UNK     1      17.687   8.158  33.010  1.00  0.00     0.071 A 
HETATM    8  C6  UNK     1      17.413   8.847  34.197  1.00  0.00     0.075 A 
HETATM    9  C7  UNK     1      15.526   8.788  32.063  1.00  0.00     0.021 A 
HETATM   10  C8  UNK     1      16.753   8.129  31.955  1.00  0.00     0.038 A 
HETATM   11  C11 UNK     1      13.717  11.430  35.809  1.00  0.00     0.053 C 
ENDROOT
BRANCH   7  12
HETATM   12  O2  UNK     1      18.874   7.504  32.872  1.00  0.00    -0.347 OA
BRANCH  12  13
HETATM   13  C9  UNK     1      18.973   6.208  33.459  1.00  0.00     0.214 C 
BRANCH  13  14
HETATM   14  C10 UNK     1      18.795   5.171  32.389  1.00  0.00    -0.034 A 
HETATM   15  C13 UNK     1      19.228   5.434  31.094  1.00  0.00     0.010 A 
HETATM   16  C16 UNK     1      19.063   4.470  30.101  1.00  0.00     0.018 A 
HETATM   17  C15 UNK     1      18.466   3.248  30.408  1.00  0.00     0.039 A 
HETATM   18  C17 UNK     1      18.034   2.990  31.709  1.00  0.00     0.018 A 
HETATM   19  C14 UNK     1      18.199   3.954  32.703  1.00  0.00     0.010 A 
BRANCH  17  20
HETATM   20  C23 UNK     1      18.294   2.242  29.371  1.00  0.00     0.292 C 
HETATM   21  O5  UNK     1      17.928   2.485  28.214  1.00  0.00    -0.259 OA
BRANCH  20  22
HETATM   22  O4  UNK     1      18.588   0.989  29.834  1.00  0.00    -0.323 OA
HETATM   23  C24 UNK     1      19.747   0.351  29.284  1.00  0.00     0.213 C 
ENDBRANCH  20  22
ENDBRANCH  17  20
ENDBRANCH  13  14
ENDBRANCH  12  13
ENDBRANCH   7  12
BRANCH  11  24
HETATM   24  C12 UNK     1      14.055  11.895  37.167  1.00  0.00    -0.034 A 
HETATM   25  C18 UNK     1      13.619  11.166  38.260  1.00  0.00     0.011 A 
HETATM   26  C20 UNK     1      13.938  11.606  39.545  1.00  0.00     0.001 A 
HETATM   27  C22 UNK     1      14.688  12.769  39.718  1.00  0.00     0.000 A 
HETATM   28  C21 UNK     1      15.120  13.492  38.605  1.00  0.00     0.001 A 
HETATM   29  C19 UNK     1      14.800  13.052  37.321  1.00  0.00     0.011 A 
ENDBRANCH  11  24
TORSDOF 6
ENDMDL
MODEL 5
REMARK VINA RESULT:      -9.3     27.790     30.076
REMARK  6 active torsions:
REMARK  status: ('A' for Active; 'I' for Inactive)
REMARK    1  A    between atoms: C5_10  and  O2_2 
REMARK    2  A    between atoms: C9_14  and  O2_2 
REMARK    3  A    between atoms: C23_28  and  O4_4 
REMARK    4  A    between atoms: C10_15  and  C9_14 
REMARK    5  A    between atoms: C11_16  and  C12_17 
REMARK    6  A    between atoms: C15_20  and  C23_28 
ROOT
HETATM    1  O1  UNK     1      13.585   7.480   8.550  1.00  0.00    -0.306 OA
HETATM    2  O3  UNK     1      15.307   4.542   9.524  1.00  0.00    -0.284 OA
HETATM    3  C1  UNK     1      15.611   6.923   9.511  1.00  0.00     0.051 A 
HETATM    4  C2  UNK     1      14.775   7.943   9.064  1.00  0.00     0.093 A 
HETATM    5  C3  UNK     1      13.639   6.096   8.665  1.00  0.00     0.127 A 
HETATM    6  C4  UNK     1      14.919   5.662   9.277  1.00  0.00     0.218 A 
HETATM    7  C5  UNK     1      16.408   9.542   9.706  1.00  0.00     0.071 A 
HETATM    8  C6  UNK     1      15.154   9.266   9.150  1.00  0.00     0.075 A 
HETATM    9  C7  UNK     1      16.852   7.167  10.061  1.00  0.00     0.021 A 
HETATM   10  C8  UNK     1      17.248   8.503  10.156  1.00  0.00     0.038 A 
HETATM   11  C11 UNK     1      12.670   5.266   8.276  1.00  0.00     0.053 C 
ENDROOT
BRANCH   7  12
HETATM   12  O2  UNK     1      16.826  10.835   9.813  1.00  0.00    -0.347 OA
BRANCH  12  13
HETATM   13  C9  UNK     1      17.578  11.366   8.723  1.00  0.00     0.214 C 
BRANCH  13  14
HETATM   14  C10 UNK     1      18.965  11.689   9.196  1.00  0.00    -0.034 A 
HETATM   15  C13 UNK     1      19.997  11.812   8.272  1.00  0.00     0.010 A 
HETATM   16  C16 UNK     1      21.285  12.113   8.712  1.00  0.00     0.018 A 
HETATM   17  C15 UNK     1      21.534  12.292  10.073  1.00  0.00     0.039 A 
HETATM   18  C17 UNK     1      20.493  12.168  10.994  1.00  0.00     0.018 A 
HETATM   19  C14 UNK     1      19.205  11.867  10.554  1.00  0.00     0.010 A 
BRANCH  17  20
HETATM   20  C23 UNK     1      22.878  12.606  10.531  1.00  0.00     0.292 C 
HETATM   21  O5  UNK     1      23.564  13.541  10.099  1.00  0.00    -0.259 OA
BRANCH  20  22
HETATM   22  O4  UNK     1      23.293  11.738  11.504  1.00  0.00    -0.323 OA
HETATM   23  C24 UNK     1      24.692  11.728  11.808  1.00  0.00     0.213 C 
ENDBRANCH  20  22
ENDBRANCH  17  20
ENDBRANCH  13  14
ENDBRANCH  12  13
ENDBRANCH   7  12
BRANCH  11  24
HETATM   24  C12 UNK     1      11.388   5.660   7.666  1.00  0.00    -0.034 A 
HETATM   25  C18 UNK     1      11.338   5.932   6.310  1.00  0.00     0.011 A 
HETATM   26  C20 UNK     1      10.125   6.306   5.732  1.00  0.00     0.001 A 
HETATM   27  C22 UNK     1       8.978   6.402   6.519  1.00  0.00     0.000 A 
HETATM   28  C21 UNK     1       9.045   6.125   7.886  1.00  0.00     0.001 A 
HETATM   29  C19 UNK     1      10.258   5.752   8.463  1.00  0.00     0.011 A 
ENDBRANCH  11  24
TORSDOF 6
ENDMDL
MODEL 6
REMARK VINA RESULT:      -9.3     27.774     30.054
REMARK  6 active torsions:
REMARK  status: ('A' for Active; 'I' for Inactive)
REMARK    1  A    between atoms: C5_10  and  O2_2 
REMARK    2  A    between atoms: C9_14  and  O2_2 
REMARK    3  A    between atoms: C23_28  and  O4_4 
REMARK    4  A    between atoms: C10_15  and  C9_14 
REMARK    5  A    between atoms: C11_16  and  C12_17 
REMARK    6  A    between atoms: C15_20  and  C23_28 
ROOT
HETATM    1  O1  UNK     1      13.603   7.489   8.558  1.00  0.00    -0.306 OA
HETATM    2  O3  UNK     1      15.330   4.552   9.524  1.00  0.00    -0.284 OA
HETATM    3  C1  UNK     1      15.625   6.934   9.528  1.00  0.00     0.051 A 
HETATM    4  C2  UNK     1      14.788   7.954   9.081  1.00  0.00     0.093 A 
HETATM    5  C3  UNK     1      13.662   6.105   8.664  1.00  0.00     0.127 A 
HETATM    6  C4  UNK     1      14.939   5.672   9.282  1.00  0.00     0.218 A 
HETATM    7  C5  UNK     1      16.411   9.555   9.743  1.00  0.00     0.071 A 
HETATM    8  C6  UNK     1      15.162   9.277   9.178  1.00  0.00     0.075 A 
HETATM    9  C7  UNK     1      16.862   7.180  10.087  1.00  0.00     0.021 A 
HETATM   10  C8  UNK     1      17.252   8.517  10.192  1.00  0.00     0.038 A 
HETATM   11  C11 UNK     1      12.699   5.273   8.265  1.00  0.00     0.053 C 
ENDROOT
BRANCH   7  12
HETATM   12  O2  UNK     1      16.823  10.849   9.860  1.00  0.00    -0.347 OA
BRANCH  12  13
HETATM   13  C9  UNK     1      17.578  11.389   8.778  1.00  0.00     0.214 C 
BRANCH  13  14
HETATM   14  C10 UNK     1      18.962  11.714   9.260  1.00  0.00    -0.034 A 
HETATM   15  C13 UNK     1      19.185  11.940  10.614  1.00  0.00     0.010 A 
HETATM   16  C16 UNK     1      20.470  12.241  11.062  1.00  0.00     0.018 A 
HETATM   17  C15 UNK     1      21.526  12.314  10.153  1.00  0.00     0.039 A 
HETATM   18  C17 UNK     1      21.295  12.086   8.797  1.00  0.00     0.018 A 
HETATM   19  C14 UNK     1      20.009  11.785   8.349  1.00  0.00     0.010 A 
BRANCH  17  20
HETATM   20  C23 UNK     1      22.867  12.629  10.621  1.00  0.00     0.292 C 
HETATM   21  O5  UNK     1      23.536  13.594  10.231  1.00  0.00    -0.259 OA
BRANCH  20  22
HETATM   22  O4  UNK     1      23.300  11.723  11.551  1.00  0.00    -0.323 OA
HETATM   23  C24 UNK     1      24.657  11.846  11.991  1.00  0.00     0.213 C 
ENDBRANCH  20  22
ENDBRANCH  17  20
ENDBRANCH  13  14
ENDBRANCH  12  13
ENDBRANCH   7  12
BRANCH  11  24
HETATM   24  C12 UNK     1      11.419   5.666   7.649  1.00  0.00    -0.034 A 
HETATM   25  C18 UNK     1      10.283   5.746   8.438  1.00  0.00     0.011 A 
HETATM   26  C20 UNK     1       9.072   6.118   7.855  1.00  0.00     0.001 A 
HETATM   27  C22 UNK     1       9.012   6.404   6.492  1.00  0.00     0.000 A 
HETATM   28  C21 UNK     1      10.165   6.318   5.710  1.00  0.00     0.001 A 
HETATM   29  C19 UNK     1      11.376   5.946   6.293  1.00  0.00     0.011 A 
ENDBRANCH  11  24
TORSDOF 6
ENDMDL
MODEL 7
REMARK VINA RESULT:      -9.3      2.232      2.857
REMARK  6 active torsions:
REMARK  status: ('A' for Active; 'I' for Inactive)
REMARK    1  A    between atoms: C5_10  and  O2_2 
REMARK    2  A    between atoms: C9_14  and  O2_2 
REMARK    3  A    between atoms: C23_28  and  O4_4 
REMARK    4  A    between atoms: C10_15  and  C9_14 
REMARK    5  A    between atoms: C11_16  and  C12_17 
REMARK    6  A    between atoms: C15_20  and  C23_28 
ROOT
HETATM    1  O1  UNK     1      18.822   0.709  34.385  1.00  0.00    -0.306 OA
HETATM    2  O3  UNK     1      17.088   1.858  37.252  1.00  0.00    -0.284 OA
HETATM    3  C1  UNK     1      18.254  -0.092  36.477  1.00  0.00     0.051 A 
HETATM    4  C2  UNK     1      18.888  -0.348  35.264  1.00  0.00     0.093 A 
HETATM    5  C3  UNK     1      18.112   1.704  35.048  1.00  0.00     0.127 A 
HETATM    6  C4  UNK     1      17.712   1.260  36.405  1.00  0.00     0.218 A 
HETATM    7  C5  UNK     1      19.469  -2.514  36.043  1.00  0.00     0.071 A 
HETATM    8  C6  UNK     1      19.505  -1.557  35.023  1.00  0.00     0.075 A 
HETATM    9  C7  UNK     1      18.202  -1.017  37.498  1.00  0.00     0.021 A 
HETATM   10  C8  UNK     1      18.824  -2.246  37.268  1.00  0.00     0.038 A 
HETATM   11  C11 UNK     1      17.828   2.902  34.533  1.00  0.00     0.053 C 
ENDROOT
BRANCH   7  12
HETATM   12  O2  UNK     1      20.066  -3.724  35.851  1.00  0.00    -0.347 OA
BRANCH  12  13
HETATM   13  C9  UNK     1      20.076  -4.625  36.957  1.00  0.00     0.214 C 
BRANCH  13  14
HETATM   14  C10 UNK     1      20.521  -5.977  36.483  1.00  0.00    -0.034 A 
HETATM   15  C13 UNK     1      20.112  -6.440  35.237  1.00  0.00     0.010 A 
HETATM   16  C16 UNK     1      20.526  -7.697  34.797  1.00  0.00     0.018 A 
HETATM   17  C15 UNK     1      21.347  -8.483  35.606  1.00  0.00     0.039 A 
HETATM   18  C17 UNK     1      21.754  -8.012  36.854  1.00  0.00     0.018 A 
HETATM   19  C14 UNK     1      21.340  -6.755  37.294  1.00  0.00     0.010 A 
BRANCH  17  20
HETATM   20  C23 UNK     1      21.779  -9.794  35.146  1.00  0.00     0.292 C 
HETATM   21  O5  UNK     1      21.696 -10.188  33.976  1.00  0.00    -0.259 OA
BRANCH  20  22
HETATM   22  O4  UNK     1      22.292 -10.541  36.171  1.00  0.00    -0.323 OA
HETATM   23  C24 UNK     1      23.370 -11.428  35.849  1.00  0.00     0.213 C 
ENDBRANCH  20  22
ENDBRANCH  17  20
ENDBRANCH  13  14
ENDBRANCH  12  13
ENDBRANCH   7  12
BRANCH  11  24
HETATM   24  C12 UNK     1      18.209   3.378  33.191  1.00  0.00    -0.034 A 
HETATM   25  C18 UNK     1      18.203   2.489  32.130  1.00  0.00     0.011 A 
HETATM   26  C20 UNK     1      18.564   2.939  30.860  1.00  0.00     0.001 A 
HETATM   27  C22 UNK     1      18.926   4.272  30.669  1.00  0.00     0.000 A 
HETATM   28  C21 UNK     1      18.927   5.156  31.750  1.00  0.00     0.001 A 
HETATM   29  C19 UNK     1      18.566   4.705  33.019  1.00  0.00     0.011 A 
ENDBRANCH  11  24
TORSDOF 6
ENDMDL
MODEL 8
REMARK VINA RESULT:      -9.2     10.258     14.090
REMARK  6 active torsions:
REMARK  status: ('A' for Active; 'I' for Inactive)
REMARK    1  A    between atoms: C5_10  and  O2_2 
REMARK    2  A    between atoms: C9_14  and  O2_2 
REMARK    3  A    between atoms: C23_28  and  O4_4 
REMARK    4  A    between atoms: C10_15  and  C9_14 
REMARK    5  A    between atoms: C11_16  and  C12_17 
REMARK    6  A    between atoms: C15_20  and  C23_28 
ROOT
HETATM    1  O1  UNK     1      17.966  11.700  33.685  1.00  0.00    -0.306 OA
HETATM    2  O3  UNK     1      14.642  11.994  34.873  1.00  0.00    -0.284 OA
HETATM    3  C1  UNK     1      16.301  10.306  34.474  1.00  0.00     0.051 A 
HETATM    4  C2  UNK     1      17.600  10.407  33.982  1.00  0.00     0.093 A 
HETATM    5  C3  UNK     1      16.861  12.484  33.995  1.00  0.00     0.127 A 
HETATM    6  C4  UNK     1      15.746  11.653  34.511  1.00  0.00     0.218 A 
HETATM    7  C5  UNK     1      17.844   8.054  34.186  1.00  0.00     0.071 A 
HETATM    8  C6  UNK     1      18.394   9.290  33.828  1.00  0.00     0.075 A 
HETATM    9  C7  UNK     1      15.735   9.101  34.833  1.00  0.00     0.021 A 
HETATM   10  C8  UNK     1      16.529   7.961  34.683  1.00  0.00     0.038 A 
HETATM   11  C11 UNK     1      16.808  13.809  33.849  1.00  0.00     0.053 C 
ENDROOT
BRANCH   7  12
HETATM   12  O2  UNK     1      18.592   6.923  34.052  1.00  0.00    -0.347 OA
BRANCH  12  13
HETATM   13  C9  UNK     1      19.541   6.896  32.988  1.00  0.00     0.214 C 
BRANCH  13  14
HETATM   14  C10 UNK     1      19.220   5.751  32.073  1.00  0.00    -0.034 A 
HETATM   15  C13 UNK     1      18.538   4.644  32.567  1.00  0.00     0.010 A 
HETATM   16  C16 UNK     1      18.238   3.581  31.715  1.00  0.00     0.018 A 
HETATM   17  C15 UNK     1      18.623   3.631  30.376  1.00  0.00     0.039 A 
HETATM   18  C17 UNK     1      19.306   4.744  29.887  1.00  0.00     0.018 A 
HETATM   19  C14 UNK     1      19.606   5.808  30.738  1.00  0.00     0.010 A 
BRANCH  17  20
HETATM   20  C23 UNK     1      18.310   2.521  29.489  1.00  0.00     0.292 C 
HETATM   21  O5  UNK     1      17.981   2.644  28.302  1.00  0.00    -0.259 OA
BRANCH  20  22
HETATM   22  O4  UNK     1      18.427   1.318  30.129  1.00  0.00    -0.323 OA
HETATM   23  C24 UNK     1      19.519   0.478  29.736  1.00  0.00     0.213 C 
ENDBRANCH  20  22
ENDBRANCH  17  20
ENDBRANCH  13  14
ENDBRANCH  12  13
ENDBRANCH   7  12
BRANCH  11  24
HETATM   24  C12 UNK     1      17.894  14.666  33.342  1.00  0.00    -0.034 A 
HETATM   25  C18 UNK     1      18.860  15.128  34.220  1.00  0.00     0.011 A 
HETATM   26  C20 UNK     1      19.888  15.940  33.740  1.00  0.00     0.001 A 
HETATM   27  C22 UNK     1      19.934  16.279  32.388  1.00  0.00     0.000 A 
HETATM   28  C21 UNK     1      18.953  15.806  31.516  1.00  0.00     0.001 A 
HETATM   29  C19 UNK     1      17.925  14.995  31.996  1.00  0.00     0.011 A 
ENDBRANCH  11  24
TORSDOF 6
ENDMDL
MODEL 9
REMARK VINA RESULT:      -9.1     27.665     31.501
REMARK  6 active torsions:
REMARK  status: ('A' for Active; 'I' for Inactive)
REMARK    1  A    between atoms: C5_10  and  O2_2 
REMARK    2  A    between atoms: C9_14  and  O2_2 
REMARK    3  A    between atoms: C23_28  and  O4_4 
REMARK    4  A    between atoms: C10_15  and  C9_14 
REMARK    5  A    between atoms: C11_16  and  C12_17 
REMARK    6  A    between atoms: C15_20  and  C23_28 
ROOT
HETATM    1  O1  UNK     1      13.537   7.397   8.633  1.00  0.00    -0.306 OA
HETATM    2  O3  UNK     1      15.215   4.409   9.527  1.00  0.00    -0.284 OA
HETATM    3  C1  UNK     1      15.549   6.785   9.590  1.00  0.00     0.051 A 
HETATM    4  C2  UNK     1      14.729   7.829   9.168  1.00  0.00     0.093 A 
HETATM    5  C3  UNK     1      13.573   6.010   8.705  1.00  0.00     0.127 A 
HETATM    6  C4  UNK     1      14.843   5.540   9.312  1.00  0.00     0.218 A 
HETATM    7  C5  UNK     1      16.378   9.386   9.870  1.00  0.00     0.071 A 
HETATM    8  C6  UNK     1      15.124   9.143   9.298  1.00  0.00     0.075 A 
HETATM    9  C7  UNK     1      16.789   6.996  10.155  1.00  0.00     0.021 A 
HETATM   10  C8  UNK     1      17.201   8.324  10.294  1.00  0.00     0.038 A 
HETATM   11  C11 UNK     1      12.597   5.204   8.285  1.00  0.00     0.053 C 
ENDROOT
BRANCH   7  12
HETATM   12  O2  UNK     1      16.811  10.670  10.019  1.00  0.00    -0.347 OA
BRANCH  12  13
HETATM   13  C9  UNK     1      16.139  11.673   9.260  1.00  0.00     0.214 C 
BRANCH  13  14
HETATM   14  C10 UNK     1      17.044  12.142   8.158  1.00  0.00    -0.034 A 
HETATM   15  C13 UNK     1      16.677  13.238   7.385  1.00  0.00     0.010 A 
HETATM   16  C16 UNK     1      17.518  13.674   6.362  1.00  0.00     0.018 A 
HETATM   17  C15 UNK     1      18.721  13.011   6.118  1.00  0.00     0.039 A 
HETATM   18  C17 UNK     1      19.083  11.913   6.899  1.00  0.00     0.018 A 
HETATM   19  C14 UNK     1      18.242  11.477   7.922  1.00  0.00     0.010 A 
BRANCH  17  20
HETATM   20  C23 UNK     1      19.598  13.466   5.051  1.00  0.00     0.292 C 
HETATM   21  O5  UNK     1      19.727  12.897   3.960  1.00  0.00    -0.259 OA
BRANCH  20  22
HETATM   22  O4  UNK     1      20.265  14.608   5.402  1.00  0.00    -0.323 OA
HETATM   23  C24 UNK     1      21.642  14.466   5.770  1.00  0.00     0.213 C 
ENDBRANCH  20  22
ENDBRANCH  17  20
ENDBRANCH  13  14
ENDBRANCH  12  13
ENDBRANCH   7  12
BRANCH  11  24
HETATM   24  C12 UNK     1      11.324   5.633   7.678  1.00  0.00    -0.034 A 
HETATM   25  C18 UNK     1      11.278   5.908   6.322  1.00  0.00     0.011 A 
HETATM   26  C20 UNK     1      10.073   6.315   5.748  1.00  0.00     0.001 A 
HETATM   27  C22 UNK     1       8.931   6.441   6.538  1.00  0.00     0.000 A 
HETATM   28  C21 UNK     1       8.994   6.160   7.904  1.00  0.00     0.001 A 
HETATM   29  C19 UNK     1      10.199   5.754   8.478  1.00  0.00     0.011 A 
ENDBRANCH  11  24
TORSDOF 6
ENDMDL
MODEL 10
REMARK VINA RESULT:      -9.0      9.228     11.842
REMARK  6 active torsions:
REMARK  status: ('A' for Active; 'I' for Inactive)
REMARK    1  A    between atoms: C5_10  and  O2_2 
REMARK    2  A    between atoms: C9_14  and  O2_2 
REMARK    3  A    between atoms: C23_28  and  O4_4 
REMARK    4  A    between atoms: C10_15  and  C9_14 
REMARK    5  A    between atoms: C11_16  and  C12_17 
REMARK    6  A    between atoms: C15_20  and  C23_28 
ROOT
HETATM    1  O1  UNK     1      30.992  -6.426  33.144  1.00  0.00    -0.306 OA
HETATM    2  O3  UNK     1      33.938  -7.789  31.727  1.00  0.00    -0.284 OA
HETATM    3  C1  UNK     1      33.239  -6.560  33.667  1.00  0.00     0.051 A 
HETATM    4  C2  UNK     1      31.979  -6.103  34.047  1.00  0.00     0.093 A 
HETATM    5  C3  UNK     1      31.628  -7.125  32.125  1.00  0.00     0.127 A 
HETATM    6  C4  UNK     1      33.082  -7.251  32.393  1.00  0.00     0.218 A 
HETATM    7  C5  UNK     1      32.929  -5.172  36.014  1.00  0.00     0.071 A 
HETATM    8  C6  UNK     1      31.799  -5.403  35.221  1.00  0.00     0.075 A 
HETATM    9  C7  UNK     1      34.368  -6.344  34.428  1.00  0.00     0.021 A 
HETATM   10  C8  UNK     1      34.200  -5.637  35.621  1.00  0.00     0.038 A 
HETATM   11  C11 UNK     1      31.016  -7.618  31.048  1.00  0.00     0.053 C 
ENDROOT
BRANCH   7  12
HETATM   12  O2  UNK     1      32.799  -4.485  37.184  1.00  0.00    -0.347 OA
BRANCH  12  13
HETATM   13  C9  UNK     1      32.474  -5.242  38.347  1.00  0.00     0.214 C 
BRANCH  13  14
HETATM   14  C10 UNK     1      30.985  -5.416  38.418  1.00  0.00    -0.034 A 
HETATM   15  C13 UNK     1      30.164  -4.298  38.518  1.00  0.00     0.010 A 
HETATM   16  C16 UNK     1      28.781  -4.460  38.583  1.00  0.00     0.018 A 
HETATM   17  C15 UNK     1      28.226  -5.739  38.548  1.00  0.00     0.039 A 
HETATM   18  C17 UNK     1      29.055  -6.856  38.447  1.00  0.00     0.018 A 
HETATM   19  C14 UNK     1      30.439  -6.694  38.382  1.00  0.00     0.010 A 
BRANCH  17  20
HETATM   20  C23 UNK     1      26.783  -5.907  38.616  1.00  0.00     0.292 C 
HETATM   21  O5  UNK     1      26.002  -5.072  39.090  1.00  0.00    -0.259 OA
BRANCH  20  22
HETATM   22  O4  UNK     1      26.392  -7.107  38.087  1.00  0.00    -0.323 OA
HETATM   23  C24 UNK     1      25.387  -7.834  38.805  1.00  0.00     0.213 C 
ENDBRANCH  20  22
ENDBRANCH  17  20
ENDBRANCH  13  14
ENDBRANCH  12  13
ENDBRANCH   7  12
BRANCH  11  24
HETATM   24  C12 UNK     1      29.576  -7.512  30.749  1.00  0.00    -0.034 A 
HETATM   25  C18 UNK     1      29.033  -6.272  30.458  1.00  0.00     0.011 A 
HETATM   26  C20 UNK     1      27.671  -6.172  30.176  1.00  0.00     0.001 A 
HETATM   27  C22 UNK     1      26.870  -7.314  30.189  1.00  0.00     0.000 A 
HETATM   28  C21 UNK     1      27.433  -8.556  30.483  1.00  0.00     0.001 A 
HETATM   29  C19 UNK     1      28.795  -8.656  30.766  1.00  0.00     0.011 A 
ENDBRANCH  11  24
TORSDOF 6
ENDMDL
