MODEL 1
REMARK VINA RESULT:      -9.7      0.000      0.000
REMARK  4 active torsions:
REMARK  status: ('A' for Active; 'I' for Inactive)
REMARK    1  A    between atoms: C5_13  and  N1_4 
REMARK    2  A    between atoms: C6_14  and  N2_5 
REMARK    3  A    between atoms: C5_13  and  N3_6 
REMARK    4  A    between atoms: C7_15  and  N3_6 
ROOT
HETATM    1  N3  UNK     1      18.636  -3.916  36.538  1.00  0.00    -0.333 N 
HETATM    2  H9  UNK     1      17.705  -4.250  36.294  1.00  0.00     0.168 HD
ENDROOT
BRANCH   1   3
HETATM    3  C5  UNK     1      18.753  -2.537  36.568  1.00  0.00     0.174 C 
HETATM    4  S1  UNK     1      18.367  -1.675  37.956  1.00  0.00    -0.041 SA
BRANCH   3   5
HETATM    5  N1  UNK     1      19.238  -1.889  35.482  1.00  0.00    -0.355 N 
HETATM    6  C1  UNK     1      20.483  -2.283  34.841  1.00  0.00     0.145 C 
HETATM    7  C3  UNK     1      20.284  -2.467  33.339  1.00  0.00     0.161 C 
HETATM    8  N2  UNK     1      19.611  -1.289  32.765  1.00  0.00    -0.211 N 
HETATM    9  C4  UNK     1      18.361  -0.878  33.422  1.00  0.00     0.161 C 
HETATM   10  C2  UNK     1      18.580  -0.717  34.925  1.00  0.00     0.145 C 
BRANCH   8  11
HETATM   11  C6  UNK     1      19.787  -1.043  31.398  1.00  0.00     0.724 A 
HETATM   12  N4  UNK     1      19.557   0.222  30.938  1.00  0.00    -0.075 NA
HETATM   13  C14 UNK     1      19.736   0.424  29.616  1.00  0.00     0.138 A 
HETATM   14  C17 UNK     1      20.130  -0.563  28.736  1.00  0.00     0.040 A 
HETATM   15  C15 UNK     1      20.340  -1.808  29.291  1.00  0.00     0.138 A 
HETATM   16  N5  UNK     1      20.179  -2.082  30.603  1.00  0.00    -0.075 NA
ENDBRANCH   8  11
ENDBRANCH   3   5
ENDBRANCH   1   3
BRANCH   1  17
HETATM   17  C7  UNK     1      19.563  -4.933  36.763  1.00  0.00     0.036 A 
HETATM   18  C11 UNK     1      20.401  -4.881  37.876  1.00  0.00     0.030 A 
HETATM   19  C12 UNK     1      21.335  -5.897  38.107  1.00  0.00     0.017 A 
HETATM   20  C8  UNK     1      21.442  -6.984  37.229  1.00  0.00     0.004 A 
HETATM   21  C10 UNK     1      20.591  -7.009  36.124  1.00  0.00     0.092 A 
HETATM   22  C13 UNK     1      22.397  -8.086  37.407  1.00  0.00    -0.043 A 
HETATM   23  O1  UNK     1      20.637  -8.066  35.193  1.00  0.00    -0.275 OA
HETATM   24  C9  UNK     1      19.655  -6.003  35.879  1.00  0.00     0.067 A 
HETATM   25  C19 UNK     1      21.527  -9.120  35.335  1.00  0.00     0.288 A 
HETATM   26  C16 UNK     1      22.419  -9.078  36.506  1.00  0.00     0.090 A 
HETATM   27  O2  UNK     1      21.576 -10.044  34.531  1.00  0.00    -0.260 OA
HETATM   28  C18 UNK     1      23.327  -8.087  38.585  1.00  0.00     0.049 C 
ENDBRANCH   1  17
TORSDOF 4
ENDMDL
MODEL 2
REMARK VINA RESULT:      -9.4      1.608      1.658
REMARK  4 active torsions:
REMARK  status: ('A' for Active; 'I' for Inactive)
REMARK    1  A    between atoms: C5_13  and  N1_4 
REMARK    2  A    between atoms: C6_14  and  N2_5 
REMARK    3  A    between atoms: C5_13  and  N3_6 
REMARK    4  A    between atoms: C7_15  and  N3_6 
ROOT
HETATM    1  N3  UNK     1      18.647  -3.921  36.528  1.00  0.00    -0.333 N 
HETATM    2  H9  UNK     1      17.898  -4.274  35.935  1.00  0.00     0.168 HD
ENDROOT
BRANCH   1   3
HETATM    3  C5  UNK     1      18.751  -2.541  36.549  1.00  0.00     0.174 C 
HETATM    4  S1  UNK     1      18.343  -1.673  37.927  1.00  0.00    -0.041 SA
BRANCH   3   5
HETATM    5  N1  UNK     1      19.241  -1.897  35.463  1.00  0.00    -0.355 N 
HETATM    6  C1  UNK     1      20.483  -2.300  34.822  1.00  0.00     0.145 C 
HETATM    7  C3  UNK     1      20.284  -2.482  33.320  1.00  0.00     0.161 C 
HETATM    8  N2  UNK     1      19.619  -1.300  32.746  1.00  0.00    -0.211 N 
HETATM    9  C4  UNK     1      18.372  -0.881  33.402  1.00  0.00     0.161 C 
HETATM   10  C2  UNK     1      18.592  -0.721  34.905  1.00  0.00     0.145 C 
BRANCH   8  11
HETATM   11  C6  UNK     1      19.798  -1.055  31.379  1.00  0.00     0.724 A 
HETATM   12  N4  UNK     1      19.558   0.206  30.915  1.00  0.00    -0.075 NA
HETATM   13  C14 UNK     1      19.739   0.407  29.594  1.00  0.00     0.138 A 
HETATM   14  C17 UNK     1      20.145  -0.578  28.718  1.00  0.00     0.040 A 
HETATM   15  C15 UNK     1      20.364  -1.820  29.276  1.00  0.00     0.138 A 
HETATM   16  N5  UNK     1      20.202  -2.093  30.588  1.00  0.00    -0.075 NA
ENDBRANCH   8  11
ENDBRANCH   3   5
ENDBRANCH   1   3
BRANCH   1  17
HETATM   17  C7  UNK     1      19.391  -4.920  37.157  1.00  0.00     0.036 A 
HETATM   18  C11 UNK     1      20.680  -4.649  37.612  1.00  0.00     0.030 A 
HETATM   19  C12 UNK     1      21.433  -5.646  38.242  1.00  0.00     0.017 A 
HETATM   20  C8  UNK     1      20.906  -6.931  38.427  1.00  0.00     0.004 A 
HETATM   21  C10 UNK     1      19.613  -7.174  37.961  1.00  0.00     0.092 A 
HETATM   22  C13 UNK     1      21.636  -8.028  39.079  1.00  0.00    -0.043 A 
HETATM   23  O1  UNK     1      19.011  -8.440  38.108  1.00  0.00    -0.275 OA
HETATM   24  C9  UNK     1      18.850  -6.190  37.330  1.00  0.00     0.067 A 
HETATM   25  C19 UNK     1      19.676  -9.493  38.719  1.00  0.00     0.288 A 
HETATM   26  C16 UNK     1      21.039  -9.220  39.204  1.00  0.00     0.090 A 
HETATM   27  O2  UNK     1      19.162 -10.597  38.851  1.00  0.00    -0.260 OA
HETATM   28  C18 UNK     1      23.028  -7.798  39.590  1.00  0.00     0.049 C 
ENDBRANCH   1  17
TORSDOF 4
ENDMDL
MODEL 3
REMARK VINA RESULT:      -9.2      1.758      2.158
REMARK  4 active torsions:
REMARK  status: ('A' for Active; 'I' for Inactive)
REMARK    1  A    between atoms: C5_13  and  N1_4 
REMARK    2  A    between atoms: C6_14  and  N2_5 
REMARK    3  A    between atoms: C5_13  and  N3_6 
REMARK    4  A    between atoms: C7_15  and  N3_6 
ROOT
HETATM    1  N3  UNK     1      18.382  -3.795  36.541  1.00  0.00    -0.333 N 
HETATM    2  H9  UNK     1      17.531  -4.072  36.056  1.00  0.00     0.168 HD
ENDROOT
BRANCH   1   3
HETATM    3  C5  UNK     1      18.591  -2.427  36.580  1.00  0.00     0.174 C 
HETATM    4  S1  UNK     1      18.279  -1.553  37.979  1.00  0.00    -0.041 SA
BRANCH   3   5
HETATM    5  N1  UNK     1      19.108  -1.803  35.494  1.00  0.00    -0.355 N 
HETATM    6  C1  UNK     1      20.382  -2.197  34.912  1.00  0.00     0.145 C 
HETATM    7  C3  UNK     1      20.242  -2.428  33.409  1.00  0.00     0.161 C 
HETATM    8  N2  UNK     1      19.574  -1.278  32.776  1.00  0.00    -0.211 N 
HETATM    9  C4  UNK     1      18.294  -0.868  33.373  1.00  0.00     0.161 C 
HETATM   10  C2  UNK     1      18.454  -0.660  34.878  1.00  0.00     0.145 C 
BRANCH   8  11
HETATM   11  C6  UNK     1      19.798  -1.069  31.409  1.00  0.00     0.724 A 
HETATM   12  N4  UNK     1      19.623   0.191  30.915  1.00  0.00    -0.075 NA
HETATM   13  C14 UNK     1      19.847   0.357  29.595  1.00  0.00     0.138 A 
HETATM   14  C17 UNK     1      20.233  -0.662  28.750  1.00  0.00     0.040 A 
HETATM   15  C15 UNK     1      20.385  -1.901  29.338  1.00  0.00     0.138 A 
HETATM   16  N5  UNK     1      20.178  -2.139  30.650  1.00  0.00    -0.075 NA
ENDBRANCH   8  11
ENDBRANCH   3   5
ENDBRANCH   1   3
BRANCH   1  17
HETATM   17  C7  UNK     1      19.132  -4.865  37.027  1.00  0.00     0.036 A 
HETATM   18  C11 UNK     1      18.560  -6.133  37.124  1.00  0.00     0.030 A 
HETATM   19  C12 UNK     1      19.306  -7.211  37.613  1.00  0.00     0.017 A 
HETATM   20  C8  UNK     1      20.638  -7.038  38.011  1.00  0.00     0.004 A 
HETATM   21  C10 UNK     1      21.185  -5.759  37.904  1.00  0.00     0.092 A 
HETATM   22  C13 UNK     1      21.482  -8.122  38.533  1.00  0.00    -0.043 A 
HETATM   23  O1  UNK     1      22.517  -5.501  38.284  1.00  0.00    -0.275 OA
HETATM   24  C9  UNK     1      20.453  -4.673  37.419  1.00  0.00     0.067 A 
HETATM   25  C19 UNK     1      23.337  -6.504  38.779  1.00  0.00     0.288 A 
HETATM   26  C16 UNK     1      22.745  -7.848  38.887  1.00  0.00     0.090 A 
HETATM   27  O2  UNK     1      24.496  -6.291  39.114  1.00  0.00    -0.260 OA
HETATM   28  C18 UNK     1      20.923  -9.509  38.661  1.00  0.00     0.049 C 
ENDBRANCH   1  17
TORSDOF 4
ENDMDL
MODEL 4
REMARK VINA RESULT:      -9.2      1.996      2.456
REMARK  4 active torsions:
REMARK  status: ('A' for Active; 'I' for Inactive)
REMARK    1  A    between atoms: C5_13  and  N1_4 
REMARK    2  A    between atoms: C6_14  and  N2_5 
REMARK    3  A    between atoms: C5_13  and  N3_6 
REMARK    4  A    between atoms: C7_15  and  N3_6 
ROOT
HETATM    1  N3  UNK     1      19.050  -3.651  36.028  1.00  0.00    -0.333 N 
HETATM    2  H9  UNK     1      18.729  -3.978  35.119  1.00  0.00     0.168 HD
ENDROOT
BRANCH   1   3
HETATM    3  C5  UNK     1      18.816  -2.307  36.262  1.00  0.00     0.174 C 
HETATM    4  S1  UNK     1      18.179  -1.791  37.727  1.00  0.00    -0.041 SA
BRANCH   3   5
HETATM    5  N1  UNK     1      19.161  -1.400  35.317  1.00  0.00    -0.355 N 
HETATM    6  C1  UNK     1      19.817  -1.788  34.078  1.00  0.00     0.145 C 
HETATM    7  C3  UNK     1      19.085  -1.206  32.872  1.00  0.00     0.161 C 
HETATM    8  N2  UNK     1      18.865   0.239  33.056  1.00  0.00    -0.211 N 
HETATM    9  C4  UNK     1      18.218   0.635  34.316  1.00  0.00     0.161 C 
HETATM   10  C2  UNK     1      18.957   0.027  35.506  1.00  0.00     0.145 C 
BRANCH   8  11
HETATM   11  C6  UNK     1      18.682   1.019  31.908  1.00  0.00     0.724 A 
HETATM   12  N4  UNK     1      19.074   0.498  30.708  1.00  0.00    -0.075 NA
HETATM   13  C14 UNK     1      18.884   1.277  29.624  1.00  0.00     0.138 A 
HETATM   14  C17 UNK     1      18.327   2.538  29.673  1.00  0.00     0.040 A 
HETATM   15  C15 UNK     1      17.962   2.981  30.928  1.00  0.00     0.138 A 
HETATM   16  N5  UNK     1      18.123   2.257  32.055  1.00  0.00    -0.075 NA
ENDBRANCH   8  11
ENDBRANCH   3   5
ENDBRANCH   1   3
BRANCH   1  17
HETATM   17  C7  UNK     1      19.660  -4.638  36.802  1.00  0.00     0.036 A 
HETATM   18  C11 UNK     1      20.880  -4.382  37.426  1.00  0.00     0.030 A 
HETATM   19  C12 UNK     1      21.499  -5.368  38.203  1.00  0.00     0.017 A 
HETATM   20  C8  UNK     1      20.905  -6.626  38.369  1.00  0.00     0.004 A 
HETATM   21  C10 UNK     1      19.684  -6.854  37.732  1.00  0.00     0.092 A 
HETATM   22  C13 UNK     1      21.495  -7.708  39.169  1.00  0.00    -0.043 A 
HETATM   23  O1  UNK     1      19.022  -8.093  37.849  1.00  0.00    -0.275 OA
HETATM   24  C9  UNK     1      19.055  -5.881  36.954  1.00  0.00     0.067 A 
HETATM   25  C19 UNK     1      19.555  -9.132  38.596  1.00  0.00     0.288 A 
HETATM   26  C16 UNK     1      20.844  -8.876  39.261  1.00  0.00     0.090 A 
HETATM   27  O2  UNK     1      18.988 -10.214  38.704  1.00  0.00    -0.260 OA
HETATM   28  C18 UNK     1      22.808  -7.494  39.864  1.00  0.00     0.049 C 
ENDBRANCH   1  17
TORSDOF 4
ENDMDL
MODEL 5
REMARK VINA RESULT:      -9.1      7.768     10.809
REMARK  4 active torsions:
REMARK  status: ('A' for Active; 'I' for Inactive)
REMARK    1  A    between atoms: C5_13  and  N1_4 
REMARK    2  A    between atoms: C6_14  and  N2_5 
REMARK    3  A    between atoms: C5_13  and  N3_6 
REMARK    4  A    between atoms: C7_15  and  N3_6 
ROOT
HETATM    1  N3  UNK     1      17.551   4.200  31.752  1.00  0.00    -0.333 N 
HETATM    2  H9  UNK     1      16.534   4.158  31.771  1.00  0.00     0.168 HD
ENDROOT
BRANCH   1   3
HETATM    3  C5  UNK     1      18.075   5.428  32.117  1.00  0.00     0.174 C 
HETATM    4  S1  UNK     1      19.622   5.874  31.642  1.00  0.00    -0.041 SA
BRANCH   3   5
HETATM    5  N1  UNK     1      17.305   6.296  32.816  1.00  0.00    -0.355 N 
HETATM    6  C1  UNK     1      17.560   6.599  34.216  1.00  0.00     0.145 C 
HETATM    7  C3  UNK     1      17.625   8.108  34.440  1.00  0.00     0.161 C 
HETATM    8  N2  UNK     1      16.448   8.764  33.845  1.00  0.00    -0.211 N 
HETATM    9  C4  UNK     1      16.179   8.445  32.435  1.00  0.00     0.161 C 
HETATM   10  C2  UNK     1      16.135   6.932  32.232  1.00  0.00     0.145 C 
BRANCH   8  11
HETATM   11  C6  UNK     1      16.073  10.012  34.356  1.00  0.00     0.724 A 
HETATM   12  N4  UNK     1      16.696  11.122  33.863  1.00  0.00    -0.075 NA
HETATM   13  C14 UNK     1      16.311  12.308  34.378  1.00  0.00     0.138 A 
HETATM   14  C17 UNK     1      15.344  12.442  35.352  1.00  0.00     0.040 A 
HETATM   15  C15 UNK     1      14.769  11.267  35.789  1.00  0.00     0.138 A 
HETATM   16  N5  UNK     1      15.106  10.047  35.319  1.00  0.00    -0.075 NA
ENDBRANCH   8  11
ENDBRANCH   3   5
ENDBRANCH   1   3
BRANCH   1  17
HETATM   17  C7  UNK     1      18.159   3.013  31.343  1.00  0.00     0.036 A 
HETATM   18  C11 UNK     1      18.517   2.835  30.007  1.00  0.00     0.030 A 
HETATM   19  C12 UNK     1      19.126   1.646  29.590  1.00  0.00     0.017 A 
HETATM   20  C8  UNK     1      19.388   0.617  30.504  1.00  0.00     0.004 A 
HETATM   21  C10 UNK     1      19.019   0.823  31.834  1.00  0.00     0.092 A 
HETATM   22  C13 UNK     1      20.024  -0.657  30.139  1.00  0.00    -0.043 A 
HETATM   23  O1  UNK     1      19.248  -0.163  32.815  1.00  0.00    -0.275 OA
HETATM   24  C9  UNK     1      18.410   2.003  32.266  1.00  0.00     0.067 A 
HETATM   25  C19 UNK     1      19.846  -1.374  32.500  1.00  0.00     0.288 A 
HETATM   26  C16 UNK     1      20.229  -1.576  31.092  1.00  0.00     0.090 A 
HETATM   27  O2  UNK     1      20.049  -2.239  33.345  1.00  0.00    -0.260 OA
HETATM   28  C18 UNK     1      20.431  -0.909  28.717  1.00  0.00     0.049 C 
ENDBRANCH   1  17
TORSDOF 4
ENDMDL
MODEL 6
REMARK VINA RESULT:      -9.0      8.263     11.065
REMARK  4 active torsions:
REMARK  status: ('A' for Active; 'I' for Inactive)
REMARK    1  A    between atoms: C5_13  and  N1_4 
REMARK    2  A    between atoms: C6_14  and  N2_5 
REMARK    3  A    between atoms: C5_13  and  N3_6 
REMARK    4  A    between atoms: C7_15  and  N3_6 
ROOT
HETATM    1  N3  UNK     1      17.654   4.750  31.891  1.00  0.00    -0.333 N 
HETATM    2  H9  UNK     1      17.044   5.010  31.118  1.00  0.00     0.168 HD
ENDROOT
BRANCH   1   3
HETATM    3  C5  UNK     1      17.907   5.778  32.783  1.00  0.00     0.174 C 
HETATM    4  S1  UNK     1      19.484   6.215  33.159  1.00  0.00    -0.041 SA
BRANCH   3   5
HETATM    5  N1  UNK     1      16.869   6.471  33.308  1.00  0.00    -0.355 N 
HETATM    6  C1  UNK     1      16.818   6.834  34.716  1.00  0.00     0.145 C 
HETATM    7  C3  UNK     1      16.532   8.325  34.881  1.00  0.00     0.161 C 
HETATM    8  N2  UNK     1      15.362   8.713  34.074  1.00  0.00    -0.211 N 
HETATM    9  C4  UNK     1      15.404   8.331  32.655  1.00  0.00     0.161 C 
HETATM   10  C2  UNK     1      15.708   6.841  32.515  1.00  0.00     0.145 C 
BRANCH   8  11
HETATM   11  C6  UNK     1      14.658   9.859  34.463  1.00  0.00     0.724 A 
HETATM   12  N4  UNK     1      14.896  10.369  35.707  1.00  0.00    -0.075 NA
HETATM   13  C14 UNK     1      14.200  11.472  36.048  1.00  0.00     0.138 A 
HETATM   14  C17 UNK     1      13.286  12.089  35.219  1.00  0.00     0.040 A 
HETATM   15  C15 UNK     1      13.112  11.504  33.982  1.00  0.00     0.138 A 
HETATM   16  N5  UNK     1      13.773  10.400  33.575  1.00  0.00    -0.075 NA
ENDBRANCH   8  11
ENDBRANCH   3   5
ENDBRANCH   1   3
BRANCH   1  17
HETATM   17  C7  UNK     1      18.095   3.428  31.845  1.00  0.00     0.036 A 
HETATM   18  C11 UNK     1      18.028   2.629  32.986  1.00  0.00     0.030 A 
HETATM   19  C12 UNK     1      18.470   1.302  32.949  1.00  0.00     0.017 A 
HETATM   20  C8  UNK     1      18.985   0.752  31.767  1.00  0.00     0.004 A 
HETATM   21  C10 UNK     1      19.041   1.575  30.641  1.00  0.00     0.092 A 
HETATM   22  C13 UNK     1      19.467  -0.631  31.653  1.00  0.00    -0.043 A 
HETATM   23  O1  UNK     1      19.546   1.098  29.415  1.00  0.00    -0.275 OA
HETATM   24  C9  UNK     1      18.604   2.901  30.663  1.00  0.00     0.067 A 
HETATM   25  C19 UNK     1      20.007  -0.202  29.277  1.00  0.00     0.288 A 
HETATM   26  C16 UNK     1      19.943  -1.057  30.475  1.00  0.00     0.090 A 
HETATM   27  O2  UNK     1      20.449  -0.626  28.216  1.00  0.00    -0.260 OA
HETATM   28  C18 UNK     1      19.421  -1.540  32.846  1.00  0.00     0.049 C 
ENDBRANCH   1  17
TORSDOF 4
ENDMDL
MODEL 7
REMARK VINA RESULT:      -8.9      4.196      9.380
REMARK  4 active torsions:
REMARK  status: ('A' for Active; 'I' for Inactive)
REMARK    1  A    between atoms: C5_13  and  N1_4 
REMARK    2  A    between atoms: C6_14  and  N2_5 
REMARK    3  A    between atoms: C5_13  and  N3_6 
REMARK    4  A    between atoms: C7_15  and  N3_6 
ROOT
HETATM    1  N3  UNK     1      18.030   1.731  35.386  1.00  0.00    -0.333 N 
HETATM    2  H9  UNK     1      18.373   2.256  36.189  1.00  0.00     0.168 HD
ENDROOT
BRANCH   1   3
HETATM    3  C5  UNK     1      17.506   0.490  35.703  1.00  0.00     0.174 C 
HETATM    4  S1  UNK     1      15.895   0.137  35.390  1.00  0.00    -0.041 SA
BRANCH   3   5
HETATM    5  N1  UNK     1      18.320  -0.462  36.217  1.00  0.00    -0.355 N 
HETATM    6  C1  UNK     1      17.918  -1.298  37.338  1.00  0.00     0.145 C 
HETATM    7  C3  UNK     1      18.133  -2.775  37.017  1.00  0.00     0.161 C 
HETATM    8  N2  UNK     1      19.497  -2.995  36.509  1.00  0.00    -0.211 N 
HETATM    9  C4  UNK     1      19.912  -2.139  35.387  1.00  0.00     0.161 C 
HETATM   10  C2  UNK     1      19.673  -0.669  35.724  1.00  0.00     0.145 C 
BRANCH   8  11
HETATM   11  C6  UNK     1      20.038  -4.280  36.636  1.00  0.00     0.724 A 
HETATM   12  N4  UNK     1      20.760  -4.565  37.760  1.00  0.00    -0.075 NA
HETATM   13  C14 UNK     1      21.266  -5.812  37.850  1.00  0.00     0.138 A 
HETATM   14  C17 UNK     1      21.092  -6.781  36.884  1.00  0.00     0.040 A 
HETATM   15  C15 UNK     1      20.349  -6.403  35.785  1.00  0.00     0.138 A 
HETATM   16  N5  UNK     1      19.813  -5.174  35.629  1.00  0.00    -0.075 NA
ENDBRANCH   8  11
ENDBRANCH   3   5
ENDBRANCH   1   3
BRANCH   1  17
HETATM   17  C7  UNK     1      18.193   2.389  34.167  1.00  0.00     0.036 A 
HETATM   18  C11 UNK     1      18.359   3.773  34.137  1.00  0.00     0.030 A 
HETATM   19  C12 UNK     1      18.521   4.441  32.918  1.00  0.00     0.017 A 
HETATM   20  C8  UNK     1      18.522   3.732  31.709  1.00  0.00     0.004 A 
HETATM   21  C10 UNK     1      18.353   2.348  31.769  1.00  0.00     0.092 A 
HETATM   22  C13 UNK     1      18.687   4.364  30.392  1.00  0.00    -0.043 A 
HETATM   23  O1  UNK     1      18.341   1.564  30.599  1.00  0.00    -0.275 OA
HETATM   24  C9  UNK     1      18.189   1.668  32.978  1.00  0.00     0.067 A 
HETATM   25  C19 UNK     1      18.495   2.132  29.343  1.00  0.00     0.288 A 
HETATM   26  C16 UNK     1      18.671   3.594  29.296  1.00  0.00     0.090 A 
HETATM   27  O2  UNK     1      18.485   1.459  28.319  1.00  0.00    -0.260 OA
HETATM   28  C18 UNK     1      18.869   5.850  30.294  1.00  0.00     0.049 C 
ENDBRANCH   1  17
TORSDOF 4
ENDMDL
MODEL 8
REMARK VINA RESULT:      -8.6      2.886      3.698
REMARK  4 active torsions:
REMARK  status: ('A' for Active; 'I' for Inactive)
REMARK    1  A    between atoms: C5_13  and  N1_4 
REMARK    2  A    between atoms: C6_14  and  N2_5 
REMARK    3  A    between atoms: C5_13  and  N3_6 
REMARK    4  A    between atoms: C7_15  and  N3_6 
ROOT
HETATM    1  N3  UNK     1      19.070  -2.830  35.982  1.00  0.00    -0.333 N 
HETATM    2  H9  UNK     1      19.317  -2.771  34.996  1.00  0.00     0.168 HD
ENDROOT
BRANCH   1   3
HETATM    3  C5  UNK     1      18.414  -1.713  36.470  1.00  0.00     0.174 C 
HETATM    4  S1  UNK     1      18.255  -1.469  38.123  1.00  0.00    -0.041 SA
BRANCH   3   5
HETATM    5  N1  UNK     1      17.950  -0.784  35.601  1.00  0.00    -0.355 N 
HETATM    6  C1  UNK     1      17.346   0.461  36.052  1.00  0.00     0.145 C 
HETATM    7  C3  UNK     1      17.992   1.658  35.358  1.00  0.00     0.161 C 
HETATM    8  N2  UNK     1      18.021   1.450  33.901  1.00  0.00    -0.211 N 
HETATM    9  C4  UNK     1      18.615   0.185  33.444  1.00  0.00     0.161 C 
HETATM   10  C2  UNK     1      17.967  -0.997  34.163  1.00  0.00     0.145 C 
BRANCH   8  11
HETATM   11  C6  UNK     1      18.096   2.585  33.084  1.00  0.00     0.724 A 
HETATM   12  N4  UNK     1      18.123   3.809  33.687  1.00  0.00    -0.075 NA
HETATM   13  C14 UNK     1      18.195   4.881  32.871  1.00  0.00     0.138 A 
HETATM   14  C17 UNK     1      18.241   4.794  31.495  1.00  0.00     0.040 A 
HETATM   15  C15 UNK     1      18.210   3.517  30.976  1.00  0.00     0.138 A 
HETATM   16  N5  UNK     1      18.138   2.401  31.732  1.00  0.00    -0.075 NA
ENDBRANCH   8  11
ENDBRANCH   3   5
ENDBRANCH   1   3
BRANCH   1  17
HETATM   17  C7  UNK     1      19.471  -4.016  36.596  1.00  0.00     0.036 A 
HETATM   18  C11 UNK     1      18.570  -5.071  36.733  1.00  0.00     0.030 A 
HETATM   19  C12 UNK     1      18.965  -6.264  37.350  1.00  0.00     0.017 A 
HETATM   20  C8  UNK     1      20.269  -6.420  37.838  1.00  0.00     0.004 A 
HETATM   21  C10 UNK     1      21.149  -5.347  37.688  1.00  0.00     0.092 A 
HETATM   22  C13 UNK     1      20.755  -7.641  38.495  1.00  0.00    -0.043 A 
HETATM   23  O1  UNK     1      22.477  -5.424  38.152  1.00  0.00    -0.275 OA
HETATM   24  C9  UNK     1      20.770  -4.151  37.075  1.00  0.00     0.067 A 
HETATM   25  C19 UNK     1      22.963  -6.563  38.776  1.00  0.00     0.288 A 
HETATM   26  C16 UNK     1      22.022  -7.685  38.928  1.00  0.00     0.090 A 
HETATM   27  O2  UNK     1      24.116  -6.640  39.184  1.00  0.00    -0.260 OA
HETATM   28  C18 UNK     1      19.832  -8.812  38.673  1.00  0.00     0.049 C 
ENDBRANCH   1  17
TORSDOF 4
ENDMDL
MODEL 9
REMARK VINA RESULT:      -8.2     27.466     29.169
REMARK  4 active torsions:
REMARK  status: ('A' for Active; 'I' for Inactive)
REMARK    1  A    between atoms: C5_13  and  N1_4 
REMARK    2  A    between atoms: C6_14  and  N2_5 
REMARK    3  A    between atoms: C5_13  and  N3_6 
REMARK    4  A    between atoms: C7_15  and  N3_6 
ROOT
HETATM    1  N3  UNK     1      10.073   7.659   8.710  1.00  0.00    -0.333 N 
HETATM    2  H9  UNK     1       9.612   8.479   9.101  1.00  0.00     0.168 HD
ENDROOT
BRANCH   1   3
HETATM    3  C5  UNK     1       9.226   6.807   8.022  1.00  0.00     0.174 C 
HETATM    4  S1  UNK     1       9.562   6.361   6.439  1.00  0.00    -0.041 SA
BRANCH   3   5
HETATM    5  N1  UNK     1       8.149   6.287   8.658  1.00  0.00    -0.355 N 
HETATM    6  C1  UNK     1       7.720   4.912   8.451  1.00  0.00     0.145 C 
HETATM    7  C3  UNK     1       7.540   4.194   9.786  1.00  0.00     0.161 C 
HETATM    8  N2  UNK     1       6.701   4.999  10.690  1.00  0.00    -0.211 N 
HETATM    9  C4  UNK     1       7.122   6.394  10.887  1.00  0.00     0.161 C 
HETATM   10  C2  UNK     1       7.312   7.087   9.539  1.00  0.00     0.145 C 
BRANCH   8  11
HETATM   11  C6  UNK     1       6.024   4.329  11.716  1.00  0.00     0.724 A 
HETATM   12  N4  UNK     1       5.700   5.035  12.840  1.00  0.00    -0.075 NA
HETATM   13  C14 UNK     1       5.050   4.358  13.808  1.00  0.00     0.138 A 
HETATM   14  C17 UNK     1       4.707   3.025  13.715  1.00  0.00     0.040 A 
HETATM   15  C15 UNK     1       5.074   2.395  12.544  1.00  0.00     0.138 A 
HETATM   16  N5  UNK     1       5.727   3.009  11.534  1.00  0.00    -0.075 NA
ENDBRANCH   8  11
ENDBRANCH   3   5
ENDBRANCH   1   3
BRANCH   1  17
HETATM   17  C7  UNK     1      11.439   7.592   8.984  1.00  0.00     0.036 A 
HETATM   18  C11 UNK     1      12.178   8.764   9.139  1.00  0.00     0.030 A 
HETATM   19  C12 UNK     1      13.549   8.706   9.412  1.00  0.00     0.017 A 
HETATM   20  C8  UNK     1      14.202   7.472   9.535  1.00  0.00     0.004 A 
HETATM   21  C10 UNK     1      13.438   6.316   9.373  1.00  0.00     0.092 A 
HETATM   22  C13 UNK     1      15.637   7.332   9.820  1.00  0.00    -0.043 A 
HETATM   23  O1  UNK     1      14.019   5.037   9.480  1.00  0.00    -0.275 OA
HETATM   24  C9  UNK     1      12.069   6.358   9.100  1.00  0.00     0.067 A 
HETATM   25  C19 UNK     1      15.370   4.874   9.748  1.00  0.00     0.288 A 
HETATM   26  C16 UNK     1      16.163   6.104   9.915  1.00  0.00     0.090 A 
HETATM   27  O2  UNK     1      15.886   3.766   9.843  1.00  0.00    -0.260 OA
HETATM   28  C18 UNK     1      16.486   8.557   9.998  1.00  0.00     0.049 C 
ENDBRANCH   1  17
TORSDOF 4
ENDMDL
MODEL 10
REMARK VINA RESULT:      -8.2      3.641      8.922
REMARK  4 active torsions:
REMARK  status: ('A' for Active; 'I' for Inactive)
REMARK    1  A    between atoms: C5_13  and  N1_4 
REMARK    2  A    between atoms: C6_14  and  N2_5 
REMARK    3  A    between atoms: C5_13  and  N3_6 
REMARK    4  A    between atoms: C7_15  and  N3_6 
ROOT
HETATM    1  N3  UNK     1      20.246  -2.974  34.962  1.00  0.00    -0.333 N 
HETATM    2  H9  UNK     1      21.111  -3.503  35.049  1.00  0.00     0.168 HD
ENDROOT
BRANCH   1   3
HETATM    3  C5  UNK     1      19.391  -3.104  36.043  1.00  0.00     0.174 C 
HETATM    4  S1  UNK     1      18.367  -1.848  36.480  1.00  0.00    -0.041 SA
BRANCH   3   5
HETATM    5  N1  UNK     1      19.344  -4.280  36.714  1.00  0.00    -0.355 N 
HETATM    6  C1  UNK     1      18.161  -5.127  36.705  1.00  0.00     0.145 C 
HETATM    7  C3  UNK     1      18.524  -6.560  36.328  1.00  0.00     0.161 C 
HETATM    8  N2  UNK     1      19.649  -7.036  37.151  1.00  0.00    -0.211 N 
HETATM    9  C4  UNK     1      20.839  -6.173  37.175  1.00  0.00     0.161 C 
HETATM   10  C2  UNK     1      20.449  -4.742  37.538  1.00  0.00     0.145 C 
BRANCH   8  11
HETATM   11  C6  UNK     1      19.793  -8.419  37.315  1.00  0.00     0.724 A 
HETATM   12  N4  UNK     1      20.604  -9.089  36.444  1.00  0.00    -0.075 NA
HETATM   13  C14 UNK     1      20.719 -10.420  36.631  1.00  0.00     0.138 A 
HETATM   14  C17 UNK     1      20.074 -11.112  37.634  1.00  0.00     0.040 A 
HETATM   15  C15 UNK     1      19.278 -10.352  38.467  1.00  0.00     0.138 A 
HETATM   16  N5  UNK     1      19.115  -9.019  38.338  1.00  0.00    -0.075 NA
ENDBRANCH   8  11
ENDBRANCH   3   5
ENDBRANCH   1   3
BRANCH   1  17
HETATM   17  C7  UNK     1      20.133  -2.265  33.766  1.00  0.00     0.036 A 
HETATM   18  C11 UNK     1      20.749  -2.742  32.610  1.00  0.00     0.030 A 
HETATM   19  C12 UNK     1      20.642  -2.035  31.407  1.00  0.00     0.017 A 
HETATM   20  C8  UNK     1      19.914  -0.840  31.342  1.00  0.00     0.004 A 
HETATM   21  C10 UNK     1      19.308  -0.386  32.514  1.00  0.00     0.092 A 
HETATM   22  C13 UNK     1      19.757  -0.045  30.116  1.00  0.00    -0.043 A 
HETATM   23  O1  UNK     1      18.559   0.808  32.533  1.00  0.00    -0.275 OA
HETATM   24  C9  UNK     1      19.407  -1.079  33.722  1.00  0.00     0.067 A 
HETATM   25  C19 UNK     1      18.394   1.578  31.392  1.00  0.00     0.288 A 
HETATM   26  C16 UNK     1      19.041   1.086  30.163  1.00  0.00     0.090 A 
HETATM   27  O2  UNK     1      17.746   2.618  31.396  1.00  0.00    -0.260 OA
HETATM   28  C18 UNK     1      20.398  -0.506  28.839  1.00  0.00     0.049 C 
ENDBRANCH   1  17
TORSDOF 4
ENDMDL
