MODEL 1
REMARK VINA RESULT:      -7.3      0.000      0.000
REMARK  3 active torsions:
REMARK  status: ('A' for Active; 'I' for Inactive)
REMARK    1  A    between atoms: C6_11  and  O2_2 
REMARK    2  A    between atoms: C10_15  and  O4_4 
REMARK    3  A    between atoms: C10_15  and  C8_13 
ROOT
HETATM    1  O1  UNK     1      18.500   0.669  31.270  1.00  0.00    -0.303 OA
HETATM    2  O3  UNK     1      21.256  -1.228  28.939  1.00  0.00    -0.287 OA
HETATM    3  C1  UNK     1      20.176  -1.076  31.037  1.00  0.00     0.048 A 
HETATM    4  C2  UNK     1      19.220  -0.383  31.780  1.00  0.00     0.093 A 
HETATM    5  C3  UNK     1      18.961  -0.752  33.100  1.00  0.00     0.075 A 
HETATM    6  C4  UNK     1      20.879  -2.139  31.607  1.00  0.00     0.021 A 
HETATM    7  C5  UNK     1      20.431  -0.667  29.645  1.00  0.00     0.187 A 
HETATM    8  C6  UNK     1      19.662  -1.814  33.673  1.00  0.00     0.070 A 
HETATM    9  C7  UNK     1      20.618  -2.505  32.928  1.00  0.00     0.038 A 
HETATM   10  C8  UNK     1      18.746   1.044  29.965  1.00  0.00     0.153 A 
HETATM   11  C9  UNK     1      19.632   0.470  29.142  1.00  0.00     0.100 A 
ENDROOT
BRANCH  10  12
HETATM   12  C10 UNK     1      17.970   2.168  29.440  1.00  0.00     0.201 C 
HETATM   13  O5  UNK     1      17.987   2.538  28.279  1.00  0.00    -0.645 OA
BRANCH  12  14
HETATM   14  O4  UNK     1      17.239   2.718  30.433  1.00  0.00    -0.771 OA
HETATM   15  H8  UNK     1      17.248   3.699  30.397  1.00  0.00     0.167 HD
ENDBRANCH  12  14
ENDBRANCH  10  12
BRANCH   8  16
HETATM   16  O2  UNK     1      19.413  -2.175  34.962  1.00  0.00    -0.356 OA
HETATM   17  C11 UNK     1      18.693  -1.244  35.769  1.00  0.00     0.210 C 
ENDBRANCH   8  16
TORSDOF 3
ENDMDL
MODEL 2
REMARK VINA RESULT:      -7.2      2.033      4.867
REMARK  3 active torsions:
REMARK  status: ('A' for Active; 'I' for Inactive)
REMARK    1  A    between atoms: C6_11  and  O2_2 
REMARK    2  A    between atoms: C10_15  and  O4_4 
REMARK    3  A    between atoms: C10_15  and  C8_13 
ROOT
HETATM    1  O1  UNK     1      19.848  -0.320  31.925  1.00  0.00    -0.303 OA
HETATM    2  O3  UNK     1      19.811  -0.643  27.860  1.00  0.00    -0.287 OA
HETATM    3  C1  UNK     1      19.250   0.633  29.770  1.00  0.00     0.048 A 
HETATM    4  C2  UNK     1      19.295   0.680  31.164  1.00  0.00     0.093 A 
HETATM    5  C3  UNK     1      18.762   1.776  31.842  1.00  0.00     0.075 A 
HETATM    6  C4  UNK     1      18.674   1.679  29.047  1.00  0.00     0.021 A 
HETATM    7  C5  UNK     1      19.819  -0.536  29.078  1.00  0.00     0.187 A 
HETATM    8  C6  UNK     1      18.185   2.824  31.122  1.00  0.00     0.070 A 
HETATM    9  C7  UNK     1      18.141   2.774  29.729  1.00  0.00     0.038 A 
HETATM   10  C8  UNK     1      20.379  -1.409  31.267  1.00  0.00     0.153 A 
HETATM   11  C9  UNK     1      20.403  -1.585  29.940  1.00  0.00     0.100 A 
ENDROOT
BRANCH  10  12
HETATM   12  C10 UNK     1      20.965  -2.465  32.095  1.00  0.00     0.201 C 
HETATM   13  O5  UNK     1      21.335  -2.317  33.246  1.00  0.00    -0.645 OA
BRANCH  12  14
HETATM   14  O4  UNK     1      21.025  -3.614  31.388  1.00  0.00    -0.771 OA
HETATM   15  H8  UNK     1      20.133  -3.946  31.148  1.00  0.00     0.167 HD
ENDBRANCH  12  14
ENDBRANCH  10  12
BRANCH   8  16
HETATM   16  O2  UNK     1      17.663   3.894  31.781  1.00  0.00    -0.356 OA
HETATM   17  C11 UNK     1      18.277   4.258  33.017  1.00  0.00     0.210 C 
ENDBRANCH   8  16
TORSDOF 3
ENDMDL
MODEL 3
REMARK VINA RESULT:      -7.0     22.784     25.332
REMARK  3 active torsions:
REMARK  status: ('A' for Active; 'I' for Inactive)
REMARK    1  A    between atoms: C6_11  and  O2_2 
REMARK    2  A    between atoms: C10_15  and  O4_4 
REMARK    3  A    between atoms: C10_15  and  C8_13 
ROOT
HETATM    1  O1  UNK     1      11.701   5.476   9.683  1.00  0.00    -0.303 OA
HETATM    2  O3  UNK     1      12.164   6.460   5.753  1.00  0.00    -0.287 OA
HETATM    3  C1  UNK     1      10.684   5.975   7.533  1.00  0.00     0.048 A 
HETATM    4  C2  UNK     1      10.596   5.639   8.884  1.00  0.00     0.093 A 
HETATM    5  C3  UNK     1       9.347   5.452   9.477  1.00  0.00     0.075 A 
HETATM    6  C4  UNK     1       9.527   6.128   6.767  1.00  0.00     0.021 A 
HETATM    7  C5  UNK     1      12.015   6.166   6.931  1.00  0.00     0.187 A 
HETATM    8  C6  UNK     1       8.189   5.603   8.714  1.00  0.00     0.070 A 
HETATM    9  C7  UNK     1       8.279   5.940   7.363  1.00  0.00     0.038 A 
HETATM   10  C8  UNK     1      12.942   5.658   9.111  1.00  0.00     0.153 A 
HETATM   11  C9  UNK     1      13.172   5.981   7.831  1.00  0.00     0.100 A 
ENDROOT
BRANCH  10  12
HETATM   12  C10 UNK     1      14.107   5.480   9.978  1.00  0.00     0.201 C 
HETATM   13  O5  UNK     1      14.574   6.345  10.697  1.00  0.00    -0.645 OA
BRANCH  12  14
HETATM   14  O4  UNK     1      14.574   4.218   9.857  1.00  0.00    -0.771 OA
HETATM   15  H8  UNK     1      14.683   3.955   8.918  1.00  0.00     0.167 HD
ENDBRANCH  12  14
ENDBRANCH  10  12
BRANCH   8  16
HETATM   16  O2  UNK     1       6.969   5.420   9.289  1.00  0.00    -0.356 OA
HETATM   17  C11 UNK     1       6.723   4.155   9.901  1.00  0.00     0.210 C 
ENDBRANCH   8  16
TORSDOF 3
ENDMDL
MODEL 4
REMARK VINA RESULT:      -7.0      2.085      3.508
REMARK  3 active torsions:
REMARK  status: ('A' for Active; 'I' for Inactive)
REMARK    1  A    between atoms: C6_11  and  O2_2 
REMARK    2  A    between atoms: C10_15  and  O4_4 
REMARK    3  A    between atoms: C10_15  and  C8_13 
ROOT
HETATM    1  O1  UNK     1      18.868   1.481  31.822  1.00  0.00    -0.303 OA
HETATM    2  O3  UNK     1      18.089   2.336  27.912  1.00  0.00    -0.287 OA
HETATM    3  C1  UNK     1      18.988   0.818  29.487  1.00  0.00     0.048 A 
HETATM    4  C2  UNK     1      19.225   0.588  30.843  1.00  0.00     0.093 A 
HETATM    5  C3  UNK     1      19.852  -0.590  31.251  1.00  0.00     0.075 A 
HETATM    6  C4  UNK     1      19.372  -0.126  28.533  1.00  0.00     0.021 A 
HETATM    7  C5  UNK     1      18.326   2.070  29.082  1.00  0.00     0.187 A 
HETATM    8  C6  UNK     1      20.238  -1.535  30.300  1.00  0.00     0.070 A 
HETATM    9  C7  UNK     1      19.999  -1.302  28.945  1.00  0.00     0.038 A 
HETATM   10  C8  UNK     1      18.248   2.650  31.433  1.00  0.00     0.153 A 
HETATM   11  C9  UNK     1      17.961   2.999  30.172  1.00  0.00     0.100 A 
ENDROOT
BRANCH  10  12
HETATM   12  C10 UNK     1      17.876   3.590  32.492  1.00  0.00     0.201 C 
HETATM   13  O5  UNK     1      17.508   4.735  32.302  1.00  0.00    -0.645 OA
BRANCH  12  14
HETATM   14  O4  UNK     1      18.002   2.990  33.695  1.00  0.00    -0.771 OA
HETATM   15  H8  UNK     1      17.156   2.978  34.191  1.00  0.00     0.167 HD
ENDBRANCH  12  14
ENDBRANCH  10  12
BRANCH   8  16
HETATM   16  O2  UNK     1      20.850  -2.684  30.695  1.00  0.00    -0.356 OA
HETATM   17  C11 UNK     1      20.966  -2.908  32.099  1.00  0.00     0.210 C 
ENDBRANCH   8  16
TORSDOF 3
ENDMDL
MODEL 5
REMARK VINA RESULT:      -7.0      1.492      5.060
REMARK  3 active torsions:
REMARK  status: ('A' for Active; 'I' for Inactive)
REMARK    1  A    between atoms: C6_11  and  O2_2 
REMARK    2  A    between atoms: C10_15  and  O4_4 
REMARK    3  A    between atoms: C10_15  and  C8_13 
ROOT
HETATM    1  O1  UNK     1      19.045  -0.353  32.953  1.00  0.00    -0.303 OA
HETATM    2  O3  UNK     1      21.366  -3.588  32.073  1.00  0.00    -0.287 OA
HETATM    3  C1  UNK     1      20.273  -1.639  31.297  1.00  0.00     0.048 A 
HETATM    4  C2  UNK     1      19.477  -0.555  31.666  1.00  0.00     0.093 A 
HETATM    5  C3  UNK     1      19.086   0.381  30.708  1.00  0.00     0.075 A 
HETATM    6  C4  UNK     1      20.684  -1.795  29.972  1.00  0.00     0.021 A 
HETATM    7  C5  UNK     1      20.672  -2.614  32.327  1.00  0.00     0.187 A 
HETATM    8  C6  UNK     1      19.495   0.229  29.383  1.00  0.00     0.070 A 
HETATM    9  C7  UNK     1      20.291  -0.857  29.017  1.00  0.00     0.038 A 
HETATM   10  C8  UNK     1      19.424  -1.271  33.911  1.00  0.00     0.153 A 
HETATM   11  C9  UNK     1      20.182  -2.354  33.697  1.00  0.00     0.100 A 
ENDROOT
BRANCH  10  12
HETATM   12  C10 UNK     1      18.952  -1.039  35.277  1.00  0.00     0.201 C 
HETATM   13  O5  UNK     1      19.193  -0.042  35.932  1.00  0.00    -0.645 OA
BRANCH  12  14
HETATM   14  O4  UNK     1      18.216  -2.095  35.687  1.00  0.00    -0.771 OA
HETATM   15  H8  UNK     1      17.399  -2.203  35.155  1.00  0.00     0.167 HD
ENDBRANCH  12  14
ENDBRANCH  10  12
BRANCH   8  16
HETATM   16  O2  UNK     1      19.114   1.140  28.446  1.00  0.00    -0.356 OA
HETATM   17  C11 UNK     1      17.911   1.864  28.697  1.00  0.00     0.210 C 
ENDBRANCH   8  16
TORSDOF 3
ENDMDL
MODEL 6
REMARK VINA RESULT:      -6.7     22.530     25.364
REMARK  3 active torsions:
REMARK  status: ('A' for Active; 'I' for Inactive)
REMARK    1  A    between atoms: C6_11  and  O2_2 
REMARK    2  A    between atoms: C10_15  and  O4_4 
REMARK    3  A    between atoms: C10_15  and  C8_13 
ROOT
HETATM    1  O1  UNK     1      10.073   5.608   9.237  1.00  0.00    -0.303 OA
HETATM    2  O3  UNK     1      10.897   7.061   5.517  1.00  0.00    -0.287 OA
HETATM    3  C1  UNK     1      11.723   6.366   7.621  1.00  0.00     0.048 A 
HETATM    4  C2  UNK     1      11.372   5.869   8.876  1.00  0.00     0.093 A 
HETATM    5  C3  UNK     1      12.360   5.617   9.828  1.00  0.00     0.075 A 
HETATM    6  C4  UNK     1      13.061   6.612   7.308  1.00  0.00     0.021 A 
HETATM    7  C5  UNK     1      10.660   6.624   6.634  1.00  0.00     0.187 A 
HETATM    8  C6  UNK     1      13.698   5.862   9.519  1.00  0.00     0.070 A 
HETATM    9  C7  UNK     1      14.047   6.359   8.262  1.00  0.00     0.038 A 
HETATM   10  C8  UNK     1       9.085   5.853   8.306  1.00  0.00     0.153 A 
HETATM   11  C9  UNK     1       9.279   6.328   7.069  1.00  0.00     0.100 A 
ENDROOT
BRANCH  10  12
HETATM   12  C10 UNK     1       7.707   5.569   8.708  1.00  0.00     0.201 C 
HETATM   13  O5  UNK     1       7.009   6.322   9.364  1.00  0.00    -0.645 OA
BRANCH  12  14
HETATM   14  O4  UNK     1       7.338   4.357   8.241  1.00  0.00    -0.771 OA
HETATM   15  H8  UNK     1       6.554   4.412   7.653  1.00  0.00     0.167 HD
ENDBRANCH  12  14
ENDBRANCH  10  12
BRANCH   8  16
HETATM   16  O2  UNK     1      14.665   5.619  10.446  1.00  0.00    -0.356 OA
HETATM   17  C11 UNK     1      15.951   6.188  10.207  1.00  0.00     0.210 C 
ENDBRANCH   8  16
TORSDOF 3
ENDMDL
MODEL 7
REMARK VINA RESULT:      -6.7     23.101     25.571
REMARK  3 active torsions:
REMARK  status: ('A' for Active; 'I' for Inactive)
REMARK    1  A    between atoms: C6_11  and  O2_2 
REMARK    2  A    between atoms: C10_15  and  O4_4 
REMARK    3  A    between atoms: C10_15  and  C8_13 
ROOT
HETATM    1  O1  UNK     1       9.952   5.496   9.552  1.00  0.00    -0.303 OA
HETATM    2  O3  UNK     1       9.039   6.637   5.745  1.00  0.00    -0.287 OA
HETATM    3  C1  UNK     1      10.715   6.210   7.357  1.00  0.00     0.048 A 
HETATM    4  C2  UNK     1      10.958   5.813   8.673  1.00  0.00     0.093 A 
HETATM    5  C3  UNK     1      12.268   5.726   9.144  1.00  0.00     0.075 A 
HETATM    6  C4  UNK     1      11.777   6.521   6.506  1.00  0.00     0.021 A 
HETATM    7  C5  UNK     1       9.323   6.294   6.884  1.00  0.00     0.187 A 
HETATM    8  C6  UNK     1      13.332   6.037   8.297  1.00  0.00     0.070 A 
HETATM    9  C7  UNK     1      13.087   6.434   6.982  1.00  0.00     0.038 A 
HETATM   10  C8  UNK     1       8.652   5.577   9.098  1.00  0.00     0.153 A 
HETATM   11  C9  UNK     1       8.277   5.943   7.866  1.00  0.00     0.100 A 
ENDROOT
BRANCH  10  12
HETATM   12  C10 UNK     1       7.594   5.235  10.050  1.00  0.00     0.201 C 
HETATM   13  O5  UNK     1       6.402   5.363   9.834  1.00  0.00    -0.645 OA
BRANCH  12  14
HETATM   14  O4  UNK     1       8.144   4.761  11.189  1.00  0.00    -0.771 OA
HETATM   15  H8  UNK     1       9.112   4.920  11.224  1.00  0.00     0.167 HD
ENDBRANCH  12  14
ENDBRANCH  10  12
BRANCH   8  16
HETATM   16  O2  UNK     1      14.611   5.955   8.755  1.00  0.00    -0.356 OA
HETATM   17  C11 UNK     1      14.872   5.000   9.783  1.00  0.00     0.210 C 
ENDBRANCH   8  16
TORSDOF 3
ENDMDL
MODEL 8
REMARK VINA RESULT:      -6.6      6.222      8.537
REMARK  3 active torsions:
REMARK  status: ('A' for Active; 'I' for Inactive)
REMARK    1  A    between atoms: C6_11  and  O2_2 
REMARK    2  A    between atoms: C10_15  and  O4_4 
REMARK    3  A    between atoms: C10_15  and  C8_13 
ROOT
HETATM    1  O1  UNK     1      17.013   5.450  32.269  1.00  0.00    -0.303 OA
HETATM    2  O3  UNK     1      20.468   7.344  33.322  1.00  0.00    -0.287 OA
HETATM    3  C1  UNK     1      18.103   7.326  33.363  1.00  0.00     0.048 A 
HETATM    4  C2  UNK     1      16.960   6.628  32.971  1.00  0.00     0.093 A 
HETATM    5  C3  UNK     1      15.696   7.123  33.291  1.00  0.00     0.075 A 
HETATM    6  C4  UNK     1      17.990   8.521  34.076  1.00  0.00     0.021 A 
HETATM    7  C5  UNK     1      19.426   6.782  33.012  1.00  0.00     0.187 A 
HETATM    8  C6  UNK     1      15.580   8.317  34.004  1.00  0.00     0.070 A 
HETATM    9  C7  UNK     1      16.724   9.014  34.395  1.00  0.00     0.038 A 
HETATM   10  C8  UNK     1      18.257   4.948  31.945  1.00  0.00     0.153 A 
HETATM   11  C9  UNK     1      19.431   5.512  32.256  1.00  0.00     0.100 A 
ENDROOT
BRANCH  10  12
HETATM   12  C10 UNK     1      18.293   3.691  31.196  1.00  0.00     0.201 C 
HETATM   13  O5  UNK     1      17.489   2.786  31.325  1.00  0.00    -0.645 OA
BRANCH  12  14
HETATM   14  O4  UNK     1      19.344   3.699  30.349  1.00  0.00    -0.771 OA
HETATM   15  H8  UNK     1      19.146   4.187  29.520  1.00  0.00     0.167 HD
ENDBRANCH  12  14
ENDBRANCH  10  12
BRANCH   8  16
HETATM   16  O2  UNK     1      14.348   8.804  34.317  1.00  0.00    -0.356 OA
HETATM   17  C11 UNK     1      14.270  10.176  34.699  1.00  0.00     0.210 C 
ENDBRANCH   8  16
TORSDOF 3
ENDMDL
MODEL 9
REMARK VINA RESULT:      -6.6      6.942      8.560
REMARK  3 active torsions:
REMARK  status: ('A' for Active; 'I' for Inactive)
REMARK    1  A    between atoms: C6_11  and  O2_2 
REMARK    2  A    between atoms: C10_15  and  O4_4 
REMARK    3  A    between atoms: C10_15  and  C8_13 
ROOT
HETATM    1  O1  UNK     1      16.324   6.634  31.931  1.00  0.00    -0.303 OA
HETATM    2  O3  UNK     1      17.184   7.983  35.682  1.00  0.00    -0.287 OA
HETATM    3  C1  UNK     1      17.987   7.099  33.641  1.00  0.00     0.048 A 
HETATM    4  C2  UNK     1      17.624   6.650  32.370  1.00  0.00     0.093 A 
HETATM    5  C3  UNK     1      18.602   6.191  31.487  1.00  0.00     0.075 A 
HETATM    6  C4  UNK     1      19.326   7.094  34.035  1.00  0.00     0.021 A 
HETATM    7  C5  UNK     1      16.936   7.578  34.555  1.00  0.00     0.187 A 
HETATM    8  C6  UNK     1      19.941   6.184  31.878  1.00  0.00     0.070 A 
HETATM    9  C7  UNK     1      20.301   6.634  33.149  1.00  0.00     0.038 A 
HETATM   10  C8  UNK     1      15.347   7.085  32.794  1.00  0.00     0.153 A 
HETATM   11  C9  UNK     1      15.553   7.541  34.036  1.00  0.00     0.100 A 
ENDROOT
BRANCH  10  12
HETATM   12  C10 UNK     1      13.967   7.059  32.308  1.00  0.00     0.201 C 
HETATM   13  O5  UNK     1      12.987   6.896  33.014  1.00  0.00    -0.645 OA
BRANCH  12  14
HETATM   14  O4  UNK     1      13.954   7.245  30.970  1.00  0.00    -0.771 OA
HETATM   15  H8  UNK     1      13.435   6.552  30.507  1.00  0.00     0.167 HD
ENDBRANCH  12  14
ENDBRANCH  10  12
BRANCH   8  16
HETATM   16  O2  UNK     1      20.896   5.736  31.019  1.00  0.00    -0.356 OA
HETATM   17  C11 UNK     1      22.252   5.813  31.458  1.00  0.00     0.210 C 
ENDBRANCH   8  16
TORSDOF 3
ENDMDL
MODEL 10
REMARK VINA RESULT:      -6.6      8.749     10.425
REMARK  3 active torsions:
REMARK  status: ('A' for Active; 'I' for Inactive)
REMARK    1  A    between atoms: C6_11  and  O2_2 
REMARK    2  A    between atoms: C10_15  and  O4_4 
REMARK    3  A    between atoms: C10_15  and  C8_13 
ROOT
HETATM    1  O1  UNK     1      19.694  -8.689  35.816  1.00  0.00    -0.303 OA
HETATM    2  O3  UNK     1      22.071  -6.169  37.967  1.00  0.00    -0.287 OA
HETATM    3  C1  UNK     1      21.863  -8.219  36.808  1.00  0.00     0.048 A 
HETATM    4  C2  UNK     1      20.997  -9.035  36.078  1.00  0.00     0.093 A 
HETATM    5  C3  UNK     1      21.444 -10.260  35.584  1.00  0.00     0.075 A 
HETATM    6  C4  UNK     1      23.179  -8.621  37.045  1.00  0.00     0.021 A 
HETATM    7  C5  UNK     1      21.366  -6.931  37.320  1.00  0.00     0.187 A 
HETATM    8  C6  UNK     1      22.758 -10.665  35.820  1.00  0.00     0.070 A 
HETATM    9  C7  UNK     1      23.622  -9.848  36.549  1.00  0.00     0.038 A 
HETATM   10  C8  UNK     1      19.239  -7.480  36.299  1.00  0.00     0.153 A 
HETATM   11  C9  UNK     1      19.959  -6.604  37.011  1.00  0.00     0.100 A 
ENDROOT
BRANCH  10  12
HETATM   12  C10 UNK     1      17.848  -7.130  36.009  1.00  0.00     0.201 C 
HETATM   13  O5  UNK     1      17.282  -7.360  34.955  1.00  0.00    -0.645 OA
BRANCH  12  14
HETATM   14  O4  UNK     1      17.301  -6.521  37.083  1.00  0.00    -0.771 OA
HETATM   15  H8  UNK     1      17.510  -6.991  37.919  1.00  0.00     0.167 HD
ENDBRANCH  12  14
ENDBRANCH  10  12
BRANCH   8  16
HETATM   16  O2  UNK     1      23.196 -11.861  35.339  1.00  0.00    -0.356 OA
HETATM   17  C11 UNK     1      24.457 -12.329  35.816  1.00  0.00     0.210 C 
ENDBRANCH   8  16
TORSDOF 3
ENDMDL
