MODEL 1
REMARK VINA RESULT:      -7.1      0.000      0.000
REMARK  4 active torsions:
REMARK  status: ('A' for Active; 'I' for Inactive)
REMARK    1  A    between atoms: C5_10  and  O2_2 
REMARK    2  A    between atoms: C8_13  and  O3_3 
REMARK    3  A    between atoms: C2_7  and  N1_5 
REMARK    4  A    between atoms: C1_6  and  C2_7 
ROOT
HETATM    1  O1  UNK     1      18.438   1.402  31.591  1.00  0.00    -0.274 OA
HETATM    2  O4  UNK     1      18.236   2.884  29.861  1.00  0.00    -0.260 OA
HETATM    3  C1  UNK     1      18.645  -0.143  33.399  1.00  0.00     0.041 A 
HETATM    4  C3  UNK     1      18.967   0.191  32.082  1.00  0.00     0.101 A 
HETATM    5  C4  UNK     1      19.769  -0.623  31.281  1.00  0.00     0.007 A 
HETATM    6  C5  UNK     1      19.138  -1.326  33.939  1.00  0.00     0.109 A 
HETATM    7  C6  UNK     1      20.055  -0.193  29.905  1.00  0.00    -0.043 A 
HETATM    8  C7  UNK     1      20.255  -1.811  31.842  1.00  0.00     0.054 A 
HETATM    9  C8  UNK     1      19.942  -2.159  33.162  1.00  0.00     0.100 A 
HETATM   10  C9  UNK     1      19.539   0.962  29.465  1.00  0.00     0.090 A 
HETATM   11  C12 UNK     1      20.914  -1.046  29.018  1.00  0.00     0.049 C 
HETATM   12  C13 UNK     1      18.691   1.833  30.298  1.00  0.00     0.288 A 
ENDROOT
BRANCH   3  13
HETATM   13  C2  UNK     1      17.782   0.756  34.222  1.00  0.00     0.315 C 
BRANCH  13  14
HETATM   14  N1  UNK     1      18.554   1.678  35.015  1.00  0.00     0.084 N 
HETATM   15  C10 UNK     1      18.184   1.596  36.436  1.00  0.00     0.309 C 
HETATM   16  C11 UNK     1      18.388   3.060  34.541  1.00  0.00     0.309 C 
ENDBRANCH  13  14
ENDBRANCH   3  13
BRANCH   6  17
HETATM   17  O2  UNK     1      18.840  -1.676  35.221  1.00  0.00    -0.357 OA
HETATM   18  H14 UNK     1      18.641  -0.880  35.740  1.00  0.00     0.217 HD
ENDBRANCH   6  17
BRANCH   9  19
HETATM   19  O3  UNK     1      20.432  -3.321  33.677  1.00  0.00    -0.358 OA
HETATM   20  H15 UNK     1      20.620  -3.205  34.623  1.00  0.00     0.217 HD
ENDBRANCH   9  19
TORSDOF 4
ENDMDL
MODEL 2
REMARK VINA RESULT:      -6.7      1.789      4.188
REMARK  4 active torsions:
REMARK  status: ('A' for Active; 'I' for Inactive)
REMARK    1  A    between atoms: C5_10  and  O2_2 
REMARK    2  A    between atoms: C8_13  and  O3_3 
REMARK    3  A    between atoms: C2_7  and  N1_5 
REMARK    4  A    between atoms: C1_6  and  C2_7 
ROOT
HETATM    1  O1  UNK     1      18.609   1.111  31.163  1.00  0.00    -0.274 OA
HETATM    2  O4  UNK     1      18.615   2.395  29.272  1.00  0.00    -0.260 OA
HETATM    3  C1  UNK     1      18.605  -0.233  33.137  1.00  0.00     0.041 A 
HETATM    4  C3  UNK     1      18.508   1.039  32.568  1.00  0.00     0.101 A 
HETATM    5  C4  UNK     1      18.322   2.188  33.338  1.00  0.00     0.007 A 
HETATM    6  C5  UNK     1      18.512  -0.367  34.518  1.00  0.00     0.109 A 
HETATM    7  C6  UNK     1      18.233   3.486  32.654  1.00  0.00    -0.043 A 
HETATM    8  C7  UNK     1      18.232   2.032  34.727  1.00  0.00     0.054 A 
HETATM    9  C8  UNK     1      18.326   0.764  35.312  1.00  0.00     0.100 A 
HETATM   10  C9  UNK     1      18.331   3.524  31.318  1.00  0.00     0.090 A 
HETATM   11  C12 UNK     1      18.032   4.740  33.453  1.00  0.00     0.049 C 
HETATM   12  C13 UNK     1      18.528   2.321  30.492  1.00  0.00     0.288 A 
ENDROOT
BRANCH   3  13
HETATM   13  C2  UNK     1      18.805  -1.437  32.277  1.00  0.00     0.315 C 
BRANCH  13  14
HETATM   14  N1  UNK     1      20.170  -1.572  31.837  1.00  0.00     0.084 N 
HETATM   15  C10 UNK     1      20.237  -1.971  30.423  1.00  0.00     0.309 C 
HETATM   16  C11 UNK     1      20.902  -2.547  32.659  1.00  0.00     0.309 C 
ENDBRANCH  13  14
ENDBRANCH   3  13
BRANCH   6  17
HETATM   17  O2  UNK     1      18.604  -1.595  35.099  1.00  0.00    -0.357 OA
HETATM   18  H14 UNK     1      17.946  -2.192  34.708  1.00  0.00     0.217 HD
ENDBRANCH   6  17
BRANCH   9  19
HETATM   19  O3  UNK     1      18.234   0.648  36.667  1.00  0.00    -0.358 OA
HETATM   20  H15 UNK     1      17.654   1.345  37.016  1.00  0.00     0.217 HD
ENDBRANCH   9  19
TORSDOF 4
ENDMDL
MODEL 3
REMARK VINA RESULT:      -6.7      7.318      9.581
REMARK  4 active torsions:
REMARK  status: ('A' for Active; 'I' for Inactive)
REMARK    1  A    between atoms: C5_10  and  O2_2 
REMARK    2  A    between atoms: C8_13  and  O3_3 
REMARK    3  A    between atoms: C2_7  and  N1_5 
REMARK    4  A    between atoms: C1_6  and  C2_7 
ROOT
HETATM    1  O1  UNK     1      18.080   8.998  34.202  1.00  0.00    -0.274 OA
HETATM    2  O4  UNK     1      20.286   8.939  34.796  1.00  0.00    -0.260 OA
HETATM    3  C1  UNK     1      15.775   9.064  33.583  1.00  0.00     0.041 A 
HETATM    4  C3  UNK     1      17.023   8.453  33.445  1.00  0.00     0.101 A 
HETATM    5  C4  UNK     1      17.227   7.357  32.605  1.00  0.00     0.007 A 
HETATM    6  C5  UNK     1      14.694   8.570  32.862  1.00  0.00     0.109 A 
HETATM    7  C6  UNK     1      18.575   6.778  32.521  1.00  0.00    -0.043 A 
HETATM    8  C7  UNK     1      16.126   6.874  31.886  1.00  0.00     0.054 A 
HETATM    9  C8  UNK     1      14.869   7.476  32.014  1.00  0.00     0.100 A 
HETATM   10  C9  UNK     1      19.560   7.316  33.252  1.00  0.00     0.090 A 
HETATM   11  C12 UNK     1      18.829   5.599  31.627  1.00  0.00     0.049 C 
HETATM   12  C13 UNK     1      19.361   8.472  34.143  1.00  0.00     0.288 A 
ENDROOT
BRANCH   3  13
HETATM   13  C2  UNK     1      15.599  10.236  34.492  1.00  0.00     0.315 C 
BRANCH  13  14
HETATM   14  N1  UNK     1      15.840  11.488  33.822  1.00  0.00     0.084 N 
HETATM   15  C10 UNK     1      16.938  12.230  34.460  1.00  0.00     0.309 C 
HETATM   16  C11 UNK     1      14.629  12.322  33.798  1.00  0.00     0.309 C 
ENDBRANCH  13  14
ENDBRANCH   3  13
BRANCH   6  17
HETATM   17  O2  UNK     1      13.465   9.148  32.977  1.00  0.00    -0.357 OA
HETATM   18  H14 UNK     1      12.814   8.637  32.468  1.00  0.00     0.217 HD
ENDBRANCH   6  17
BRANCH   9  19
HETATM   19  O3  UNK     1      13.818   6.981  31.301  1.00  0.00    -0.358 OA
HETATM   20  H15 UNK     1      13.682   7.520  30.504  1.00  0.00     0.217 HD
ENDBRANCH   9  19
TORSDOF 4
ENDMDL
MODEL 4
REMARK VINA RESULT:      -6.5     12.189     14.562
REMARK  4 active torsions:
REMARK  status: ('A' for Active; 'I' for Inactive)
REMARK    1  A    between atoms: C5_10  and  O2_2 
REMARK    2  A    between atoms: C8_13  and  O3_3 
REMARK    3  A    between atoms: C2_7  and  N1_5 
REMARK    4  A    between atoms: C1_6  and  C2_7 
ROOT
HETATM    1  O1  UNK     1      30.494  -6.444  29.775  1.00  0.00    -0.274 OA
HETATM    2  O4  UNK     1      30.309  -4.362  30.700  1.00  0.00    -0.260 OA
HETATM    3  C1  UNK     1      30.691  -8.618  28.809  1.00  0.00     0.041 A 
HETATM    4  C3  UNK     1      29.878  -7.663  29.422  1.00  0.00     0.101 A 
HETATM    5  C4  UNK     1      28.525  -7.889  29.678  1.00  0.00     0.007 A 
HETATM    6  C5  UNK     1      30.140  -9.840  28.437  1.00  0.00     0.109 A 
HETATM    7  C6  UNK     1      27.746  -6.826  30.329  1.00  0.00    -0.043 A 
HETATM    8  C7  UNK     1      27.989  -9.125  29.297  1.00  0.00     0.054 A 
HETATM    9  C8  UNK     1      28.791 -10.094  28.681  1.00  0.00     0.100 A 
HETATM   10  C9  UNK     1      28.357  -5.678  30.653  1.00  0.00     0.090 A 
HETATM   11  C12 UNK     1      26.289  -7.037  30.618  1.00  0.00     0.049 C 
HETATM   12  C13 UNK     1      29.784  -5.424  30.389  1.00  0.00     0.288 A 
ENDROOT
BRANCH   3  13
HETATM   13  C2  UNK     1      32.136  -8.337  28.554  1.00  0.00     0.315 C 
BRANCH  13  14
HETATM   14  N1  UNK     1      32.908  -8.303  29.769  1.00  0.00     0.084 N 
HETATM   15  C10 UNK     1      34.100  -7.456  29.619  1.00  0.00     0.309 C 
HETATM   16  C11 UNK     1      33.313  -9.655  30.182  1.00  0.00     0.309 C 
ENDBRANCH  13  14
ENDBRANCH   3  13
BRANCH   6  17
HETATM   17  O2  UNK     1      30.911 -10.791  27.838  1.00  0.00    -0.357 OA
HETATM   18  H14 UNK     1      31.732 -10.389  27.512  1.00  0.00     0.217 HD
ENDBRANCH   6  17
BRANCH   9  19
HETATM   19  O3  UNK     1      28.237 -11.286  28.323  1.00  0.00    -0.358 OA
HETATM   20  H15 UNK     1      28.176 -11.340  27.355  1.00  0.00     0.217 HD
ENDBRANCH   9  19
TORSDOF 4
ENDMDL
MODEL 5
REMARK VINA RESULT:      -6.5      5.640      8.774
REMARK  4 active torsions:
REMARK  status: ('A' for Active; 'I' for Inactive)
REMARK    1  A    between atoms: C5_10  and  O2_2 
REMARK    2  A    between atoms: C8_13  and  O3_3 
REMARK    3  A    between atoms: C2_7  and  N1_5 
REMARK    4  A    between atoms: C1_6  and  C2_7 
ROOT
HETATM    1  O1  UNK     1      15.918   6.657  32.248  1.00  0.00    -0.274 OA
HETATM    2  O4  UNK     1      13.699   6.772  31.709  1.00  0.00    -0.260 OA
HETATM    3  C1  UNK     1      18.235   6.532  32.808  1.00  0.00     0.041 A 
HETATM    4  C3  UNK     1      17.052   7.275  32.812  1.00  0.00     0.101 A 
HETATM    5  C4  UNK     1      16.983   8.564  33.342  1.00  0.00     0.007 A 
HETATM    6  C5  UNK     1      19.387   7.090  33.351  1.00  0.00     0.109 A 
HETATM    7  C6  UNK     1      15.696   9.272  33.302  1.00  0.00    -0.043 A 
HETATM    8  C7  UNK     1      18.154   9.108  33.884  1.00  0.00     0.054 A 
HETATM    9  C8  UNK     1      19.348   8.376  33.889  1.00  0.00     0.100 A 
HETATM   10  C9  UNK     1      14.634   8.660  32.761  1.00  0.00     0.090 A 
HETATM   11  C12 UNK     1      15.587  10.660  33.864  1.00  0.00     0.049 C 
HETATM   12  C13 UNK     1      14.691   7.300  32.197  1.00  0.00     0.288 A 
ENDROOT
BRANCH   3  13
HETATM   13  C2  UNK     1      18.267   5.156  32.229  1.00  0.00     0.315 C 
BRANCH  13  14
HETATM   14  N1  UNK     1      19.078   5.083  31.042  1.00  0.00     0.084 N 
HETATM   15  C10 UNK     1      18.733   6.153  30.094  1.00  0.00     0.309 C 
HETATM   16  C11 UNK     1      18.941   3.776  30.380  1.00  0.00     0.309 C 
ENDBRANCH  13  14
ENDBRANCH   3  13
BRANCH   6  17
HETATM   17  O2  UNK     1      20.555   6.388  33.361  1.00  0.00    -0.357 OA
HETATM   18  H14 UNK     1      20.717   6.011  32.481  1.00  0.00     0.217 HD
ENDBRANCH   6  17
BRANCH   9  19
HETATM   19  O3  UNK     1      20.469   8.935  34.424  1.00  0.00    -0.358 OA
HETATM   20  H15 UNK     1      20.858   8.328  35.074  1.00  0.00     0.217 HD
ENDBRANCH   9  19
TORSDOF 4
ENDMDL
MODEL 6
REMARK VINA RESULT:      -6.4      2.672      4.398
REMARK  4 active torsions:
REMARK  status: ('A' for Active; 'I' for Inactive)
REMARK    1  A    between atoms: C5_10  and  O2_2 
REMARK    2  A    between atoms: C8_13  and  O3_3 
REMARK    3  A    between atoms: C2_7  and  N1_5 
REMARK    4  A    between atoms: C1_6  and  C2_7 
ROOT
HETATM    1  O1  UNK     1      17.816   4.191  33.503  1.00  0.00    -0.274 OA
HETATM    2  O4  UNK     1      17.444   6.302  34.298  1.00  0.00    -0.260 OA
HETATM    3  C1  UNK     1      18.202   1.985  32.677  1.00  0.00     0.041 A 
HETATM    4  C3  UNK     1      18.233   3.361  32.443  1.00  0.00     0.101 A 
HETATM    5  C4  UNK     1      18.654   3.902  31.226  1.00  0.00     0.007 A 
HETATM    6  C5  UNK     1      18.602   1.116  31.668  1.00  0.00     0.109 A 
HETATM    7  C6  UNK     1      18.653   5.363  31.069  1.00  0.00    -0.043 A 
HETATM    8  C7  UNK     1      19.053   3.010  30.223  1.00  0.00     0.054 A 
HETATM    9  C8  UNK     1      19.028   1.627  30.442  1.00  0.00     0.100 A 
HETATM   10  C9  UNK     1      18.252   6.126  32.093  1.00  0.00     0.090 A 
HETATM   11  C12 UNK     1      19.100   5.975  29.773  1.00  0.00     0.049 C 
HETATM   12  C13 UNK     1      17.805   5.572  33.383  1.00  0.00     0.288 A 
ENDROOT
BRANCH   3  13
HETATM   13  C2  UNK     1      17.743   1.448  33.993  1.00  0.00     0.315 C 
BRANCH  13  14
HETATM   14  N1  UNK     1      18.844   1.077  34.844  1.00  0.00     0.084 N 
HETATM   15  C10 UNK     1      18.660  -0.274  35.395  1.00  0.00     0.309 C 
HETATM   16  C11 UNK     1      19.015   2.038  35.944  1.00  0.00     0.309 C 
ENDBRANCH  13  14
ENDBRANCH   3  13
BRANCH   6  17
HETATM   17  O2  UNK     1      18.581  -0.231  31.869  1.00  0.00    -0.357 OA
HETATM   18  H14 UNK     1      18.014  -0.653  31.203  1.00  0.00     0.217 HD
ENDBRANCH   6  17
BRANCH   9  19
HETATM   19  O3  UNK     1      19.423   0.788  29.444  1.00  0.00    -0.358 OA
HETATM   20  H15 UNK     1      18.864  -0.006  29.446  1.00  0.00     0.217 HD
ENDBRANCH   9  19
TORSDOF 4
ENDMDL
MODEL 7
REMARK VINA RESULT:      -6.4      1.472      3.954
REMARK  4 active torsions:
REMARK  status: ('A' for Active; 'I' for Inactive)
REMARK    1  A    between atoms: C5_10  and  O2_2 
REMARK    2  A    between atoms: C8_13  and  O3_3 
REMARK    3  A    between atoms: C2_7  and  N1_5 
REMARK    4  A    between atoms: C1_6  and  C2_7 
ROOT
HETATM    1  O1  UNK     1      19.709  -1.333  33.167  1.00  0.00    -0.274 OA
HETATM    2  O4  UNK     1      20.720  -3.384  33.133  1.00  0.00    -0.260 OA
HETATM    3  C1  UNK     1      18.654   0.808  33.208  1.00  0.00     0.041 A 
HETATM    4  C3  UNK     1      19.336  -0.165  32.473  1.00  0.00     0.101 A 
HETATM    5  C4  UNK     1      19.638  -0.001  31.120  1.00  0.00     0.007 A 
HETATM    6  C5  UNK     1      18.259   1.982  32.577  1.00  0.00     0.109 A 
HETATM    7  C6  UNK     1      20.359  -1.077  30.426  1.00  0.00    -0.043 A 
HETATM    8  C7  UNK     1      19.232   1.189  30.503  1.00  0.00     0.054 A 
HETATM    9  C8  UNK     1      18.547   2.173  31.226  1.00  0.00     0.100 A 
HETATM   10  C9  UNK     1      20.701  -2.176  31.111  1.00  0.00     0.090 A 
HETATM   11  C12 UNK     1      20.699  -0.932  28.972  1.00  0.00     0.049 C 
HETATM   12  C13 UNK     1      20.390  -2.364  32.538  1.00  0.00     0.288 A 
ENDROOT
BRANCH   3  13
HETATM   13  C2  UNK     1      18.352   0.594  34.655  1.00  0.00     0.315 C 
BRANCH  13  14
HETATM   14  N1  UNK     1      17.291  -0.359  34.856  1.00  0.00     0.084 N 
HETATM   15  C10 UNK     1      16.003   0.316  35.076  1.00  0.00     0.309 C 
HETATM   16  C11 UNK     1      17.580  -1.249  35.990  1.00  0.00     0.309 C 
ENDBRANCH  13  14
ENDBRANCH   3  13
BRANCH   6  17
HETATM   17  O2  UNK     1      17.594   2.948  33.270  1.00  0.00    -0.357 OA
HETATM   18  H14 UNK     1      17.279   3.633  32.658  1.00  0.00     0.217 HD
ENDBRANCH   6  17
BRANCH   9  19
HETATM   19  O3  UNK     1      18.167   3.319  30.594  1.00  0.00    -0.358 OA
HETATM   20  H15 UNK     1      18.499   4.088  31.086  1.00  0.00     0.217 HD
ENDBRANCH   9  19
TORSDOF 4
ENDMDL
MODEL 8
REMARK VINA RESULT:      -6.4     12.361     14.789
REMARK  4 active torsions:
REMARK  status: ('A' for Active; 'I' for Inactive)
REMARK    1  A    between atoms: C5_10  and  O2_2 
REMARK    2  A    between atoms: C8_13  and  O3_3 
REMARK    3  A    between atoms: C2_7  and  N1_5 
REMARK    4  A    between atoms: C1_6  and  C2_7 
ROOT
HETATM    1  O1  UNK     1      30.669  -8.370  38.207  1.00  0.00    -0.274 OA
HETATM    2  O4  UNK     1      31.080 -10.614  38.347  1.00  0.00    -0.260 OA
HETATM    3  C1  UNK     1      30.244  -6.025  38.058  1.00  0.00     0.041 A 
HETATM    4  C3  UNK     1      29.764  -7.300  38.364  1.00  0.00     0.101 A 
HETATM    5  C4  UNK     1      28.458  -7.519  38.806  1.00  0.00     0.007 A 
HETATM    6  C5  UNK     1      29.397  -4.931  38.195  1.00  0.00     0.109 A 
HETATM    7  C6  UNK     1      28.039  -8.896  39.104  1.00  0.00    -0.043 A 
HETATM    8  C7  UNK     1      27.621  -6.404  38.936  1.00  0.00     0.054 A 
HETATM    9  C8  UNK     1      28.087  -5.119  38.634  1.00  0.00     0.100 A 
HETATM   10  C9  UNK     1      28.920  -9.892  38.946  1.00  0.00     0.090 A 
HETATM   11  C12 UNK     1      26.641  -9.165  39.581  1.00  0.00     0.049 C 
HETATM   12  C13 UNK     1      30.301  -9.678  38.481  1.00  0.00     0.288 A 
ENDROOT
BRANCH   3  13
HETATM   13  C2  UNK     1      31.649  -5.834  37.587  1.00  0.00     0.315 C 
BRANCH  13  14
HETATM   14  N1  UNK     1      31.735  -5.740  36.152  1.00  0.00     0.084 N 
HETATM   15  C10 UNK     1      32.392  -6.925  35.580  1.00  0.00     0.309 C 
HETATM   16  C11 UNK     1      32.459  -4.528  35.739  1.00  0.00     0.309 C 
ENDBRANCH  13  14
ENDBRANCH   3  13
BRANCH   6  17
HETATM   17  O2  UNK     1      29.840  -3.676  37.902  1.00  0.00    -0.357 OA
HETATM   18  H14 UNK     1      30.746  -3.563  38.231  1.00  0.00     0.217 HD
ENDBRANCH   6  17
BRANCH   9  19
HETATM   19  O3  UNK     1      27.246  -4.056  38.772  1.00  0.00    -0.358 OA
HETATM   20  H15 UNK     1      26.331  -4.341  38.616  1.00  0.00     0.217 HD
ENDBRANCH   9  19
TORSDOF 4
ENDMDL
MODEL 9
REMARK VINA RESULT:      -6.3     23.814     24.277
REMARK  4 active torsions:
REMARK  status: ('A' for Active; 'I' for Inactive)
REMARK    1  A    between atoms: C5_10  and  O2_2 
REMARK    2  A    between atoms: C8_13  and  O3_3 
REMARK    3  A    between atoms: C2_7  and  N1_5 
REMARK    4  A    between atoms: C1_6  and  C2_7 
ROOT
HETATM    1  O1  UNK     1      13.135   8.003  10.895  1.00  0.00    -0.274 OA
HETATM    2  O4  UNK     1      11.636   9.585  11.586  1.00  0.00    -0.260 OA
HETATM    3  C1  UNK     1      14.697   6.349  10.172  1.00  0.00     0.041 A 
HETATM    4  C3  UNK     1      14.458   7.676  10.538  1.00  0.00     0.101 A 
HETATM    5  C4  UNK     1      15.469   8.638  10.553  1.00  0.00     0.007 A 
HETATM    6  C5  UNK     1      15.983   5.966   9.810  1.00  0.00     0.109 A 
HETATM    7  C6  UNK     1      15.127  10.011  10.950  1.00  0.00    -0.043 A 
HETATM    8  C7  UNK     1      16.758   8.232  10.184  1.00  0.00     0.054 A 
HETATM    9  C8  UNK     1      17.013   6.906   9.816  1.00  0.00     0.100 A 
HETATM   10  C9  UNK     1      13.861  10.293  11.285  1.00  0.00     0.090 A 
HETATM   11  C12 UNK     1      16.191  11.069  10.977  1.00  0.00     0.049 C 
HETATM   12  C13 UNK     1      12.783   9.289  11.274  1.00  0.00     0.288 A 
ENDROOT
BRANCH   3  13
HETATM   13  C2  UNK     1      13.586   5.350  10.168  1.00  0.00     0.315 C 
BRANCH  13  14
HETATM   14  N1  UNK     1      12.589   5.647   9.171  1.00  0.00     0.084 N 
HETATM   15  C10 UNK     1      11.294   5.043   9.518  1.00  0.00     0.309 C 
HETATM   16  C11 UNK     1      13.010   5.182   7.841  1.00  0.00     0.309 C 
ENDBRANCH  13  14
ENDBRANCH   3  13
BRANCH   6  17
HETATM   17  O2  UNK     1      16.243   4.678   9.448  1.00  0.00    -0.357 OA
HETATM   18  H14 UNK     1      15.527   4.100   9.757  1.00  0.00     0.217 HD
ENDBRANCH   6  17
BRANCH   9  19
HETATM   19  O3  UNK     1      18.279   6.544   9.462  1.00  0.00    -0.358 OA
HETATM   20  H15 UNK     1      18.331   6.437   8.499  1.00  0.00     0.217 HD
ENDBRANCH   9  19
TORSDOF 4
ENDMDL
MODEL 10
REMARK VINA RESULT:      -6.3     13.387     14.040
REMARK  4 active torsions:
REMARK  status: ('A' for Active; 'I' for Inactive)
REMARK    1  A    between atoms: C5_10  and  O2_2 
REMARK    2  A    between atoms: C8_13  and  O3_3 
REMARK    3  A    between atoms: C2_7  and  N1_5 
REMARK    4  A    between atoms: C1_6  and  C2_7 
ROOT
HETATM    1  O1  UNK     1      30.408  -6.839  35.747  1.00  0.00    -0.274 OA
HETATM    2  O4  UNK     1      31.535  -7.246  33.800  1.00  0.00    -0.260 OA
HETATM    3  C1  UNK     1      29.229  -6.419  37.780  1.00  0.00     0.041 A 
HETATM    4  C3  UNK     1      30.182  -5.993  36.852  1.00  0.00     0.101 A 
HETATM    5  C4  UNK     1      30.882  -4.795  36.998  1.00  0.00     0.007 A 
HETATM    6  C5  UNK     1      28.963  -5.626  38.891  1.00  0.00     0.109 A 
HETATM    7  C6  UNK     1      31.868  -4.427  35.973  1.00  0.00    -0.043 A 
HETATM    8  C7  UNK     1      30.600  -4.011  38.124  1.00  0.00     0.054 A 
HETATM    9  C8  UNK     1      29.647  -4.423  39.063  1.00  0.00     0.100 A 
HETATM   10  C9  UNK     1      32.061  -5.250  34.933  1.00  0.00     0.090 A 
HETATM   11  C12 UNK     1      32.637  -3.145  36.101  1.00  0.00     0.049 C 
HETATM   12  C13 UNK     1      31.331  -6.517  34.764  1.00  0.00     0.288 A 
ENDROOT
BRANCH   3  13
HETATM   13  C2  UNK     1      28.503  -7.710  37.587  1.00  0.00     0.315 C 
BRANCH  13  14
HETATM   14  N1  UNK     1      28.912  -8.713  38.535  1.00  0.00     0.084 N 
HETATM   15  C10 UNK     1      30.086  -9.454  38.053  1.00  0.00     0.309 C 
HETATM   16  C11 UNK     1      27.818  -9.654  38.821  1.00  0.00     0.309 C 
ENDBRANCH  13  14
ENDBRANCH   3  13
BRANCH   6  17
HETATM   17  O2  UNK     1      28.038  -6.018  39.812  1.00  0.00    -0.357 OA
HETATM   18  H14 UNK     1      28.302  -6.868  40.199  1.00  0.00     0.217 HD
ENDBRANCH   6  17
BRANCH   9  19
HETATM   19  O3  UNK     1      29.397  -3.636  40.148  1.00  0.00    -0.358 OA
HETATM   20  H15 UNK     1      29.831  -4.012  40.930  1.00  0.00     0.217 HD
ENDBRANCH   9  19
TORSDOF 4
ENDMDL
