MODEL 1
REMARK VINA RESULT:      -9.6      0.000      0.000
REMARK  4 active torsions:
REMARK  status: ('A' for Active; 'I' for Inactive)
REMARK    1  A    between atoms: C1_7  and  N1_4 
REMARK       I    between atoms: C10_16  and  N3_6 
REMARK    2  A    between atoms: C3_9  and  N3_6 
REMARK    3  A    between atoms: C1_7  and  C2_8 
REMARK    4  A    between atoms: C10_16  and  C6_12 
ROOT
HETATM    1  O2  UNK     1      17.459   2.040  29.213  1.00  0.00    -0.267 OA
HETATM    2  N3  UNK     1      19.081   2.828  30.728  1.00  0.00    -0.306 N 
HETATM    3  C10 UNK     1      18.444   1.885  29.932  1.00  0.00     0.263 C 
HETATM    4  H6  UNK     1      19.905   2.564  31.260  1.00  0.00     0.170 HD
ENDROOT
BRANCH   2   5
HETATM    5  C3  UNK     1      18.737   4.191  30.895  1.00  0.00     0.151 A 
HETATM    6  N2  UNK     1      17.969   4.596  31.884  1.00  0.00    -0.154 NA
HETATM    7  N1  UNK     1      17.908   5.920  31.662  1.00  0.00    -0.275 N 
HETATM    8  C5  UNK     1      18.616   6.329  30.571  1.00  0.00     0.116 A 
HETATM    9  C8  UNK     1      19.179   5.193  30.041  1.00  0.00     0.071 A 
BRANCH   7  10
HETATM   10  C1  UNK     1      17.140   6.761  32.550  1.00  0.00     0.189 C 
BRANCH  10  11
HETATM   11  C2  UNK     1      18.008   7.797  33.211  1.00  0.00    -0.038 A 
HETATM   12  C11 UNK     1      17.535   9.094  33.359  1.00  0.00     0.009 A 
HETATM   13  C16 UNK     1      18.339  10.054  33.972  1.00  0.00     0.001 A 
HETATM   14  C20 UNK     1      19.609   9.709  34.432  1.00  0.00     0.000 A 
HETATM   15  C17 UNK     1      20.077   8.403  34.279  1.00  0.00     0.001 A 
HETATM   16  C12 UNK     1      19.272   7.443  33.666  1.00  0.00     0.009 A 
ENDBRANCH  10  11
ENDBRANCH   7  10
ENDBRANCH   2   5
BRANCH   3  17
HETATM   17  C6  UNK     1      19.087   0.568  30.010  1.00  0.00     0.108 A 
HETATM   18  C14 UNK     1      19.389  -0.232  28.802  1.00  0.00     0.304 A 
HETATM   19  O1  UNK     1      20.002  -1.466  29.005  1.00  0.00    -0.274 OA
HETATM   20  O3  UNK     1      19.116   0.168  27.675  1.00  0.00    -0.259 OA
HETATM   21  C7  UNK     1      20.320  -1.933  30.295  1.00  0.00     0.089 A 
HETATM   22  C15 UNK     1      20.932  -3.181  30.399  1.00  0.00     0.038 A 
HETATM   23  C4  UNK     1      20.027  -1.166  31.418  1.00  0.00    -0.001 A 
HETATM   24  C19 UNK     1      21.258  -3.670  31.662  1.00  0.00     0.003 A 
HETATM   25  C18 UNK     1      20.972  -2.913  32.800  1.00  0.00     0.001 A 
HETATM   26  C13 UNK     1      20.358  -1.664  32.680  1.00  0.00     0.014 A 
HETATM   27  C9  UNK     1      19.388   0.129  31.238  1.00  0.00     0.037 A 
ENDBRANCH   3  17
TORSDOF 4
ENDMDL
MODEL 2
REMARK VINA RESULT:      -9.5      7.237     12.927
REMARK  4 active torsions:
REMARK  status: ('A' for Active; 'I' for Inactive)
REMARK    1  A    between atoms: C1_7  and  N1_4 
REMARK       I    between atoms: C10_16  and  N3_6 
REMARK    2  A    between atoms: C3_9  and  N3_6 
REMARK    3  A    between atoms: C1_7  and  C2_8 
REMARK    4  A    between atoms: C10_16  and  C6_12 
ROOT
HETATM    1  O2  UNK     1      21.022  -4.276  36.820  1.00  0.00    -0.267 OA
HETATM    2  N3  UNK     1      18.793  -4.880  36.359  1.00  0.00    -0.306 N 
HETATM    3  C10 UNK     1      19.864  -4.009  36.504  1.00  0.00     0.263 C 
HETATM    4  H6  UNK     1      17.886  -4.520  36.072  1.00  0.00     0.170 HD
ENDROOT
BRANCH   2   5
HETATM    5  C3  UNK     1      18.790  -6.283  36.542  1.00  0.00     0.151 A 
HETATM    6  N2  UNK     1      19.607  -6.874  37.388  1.00  0.00    -0.154 NA
HETATM    7  N1  UNK     1      19.268  -8.166  37.243  1.00  0.00    -0.275 N 
HETATM    8  C5  UNK     1      18.271  -8.376  36.336  1.00  0.00     0.116 A 
HETATM    9  C8  UNK     1      17.934  -7.135  35.855  1.00  0.00     0.071 A 
BRANCH   7  10
HETATM   10  C1  UNK     1      19.950  -9.177  38.016  1.00  0.00     0.189 C 
BRANCH  10  11
HETATM   11  C2  UNK     1      21.170  -9.688  37.298  1.00  0.00    -0.038 A 
HETATM   12  C11 UNK     1      21.094 -10.870  36.575  1.00  0.00     0.009 A 
HETATM   13  C16 UNK     1      22.225 -11.342  35.909  1.00  0.00     0.001 A 
HETATM   14  C20 UNK     1      23.421 -10.629  35.973  1.00  0.00     0.000 A 
HETATM   15  C17 UNK     1      23.487  -9.441  36.703  1.00  0.00     0.001 A 
HETATM   16  C12 UNK     1      22.356  -8.969  37.368  1.00  0.00     0.009 A 
ENDBRANCH  10  11
ENDBRANCH   7  10
ENDBRANCH   2   5
BRANCH   3  17
HETATM   17  C6  UNK     1      19.488  -2.617  36.229  1.00  0.00     0.108 A 
HETATM   18  C14 UNK     1      19.921  -1.915  35.000  1.00  0.00     0.304 A 
HETATM   19  O1  UNK     1      19.500  -0.596  34.851  1.00  0.00    -0.274 OA
HETATM   20  O3  UNK     1      20.616  -2.463  34.150  1.00  0.00    -0.259 OA
HETATM   21  C7  UNK     1      18.701   0.042  35.820  1.00  0.00     0.089 A 
HETATM   22  C15 UNK     1      18.330   1.364  35.583  1.00  0.00     0.038 A 
HETATM   23  C4  UNK     1      18.306  -0.635  36.969  1.00  0.00    -0.001 A 
HETATM   24  C19 UNK     1      17.540   2.023  36.524  1.00  0.00     0.003 A 
HETATM   25  C18 UNK     1      17.133   1.358  37.683  1.00  0.00     0.001 A 
HETATM   26  C13 UNK     1      17.515   0.032  37.906  1.00  0.00     0.014 A 
HETATM   27  C9  UNK     1      18.729  -2.015  37.152  1.00  0.00     0.037 A 
ENDBRANCH   3  17
TORSDOF 4
ENDMDL
MODEL 3
REMARK VINA RESULT:      -9.5      2.352      8.862
REMARK  4 active torsions:
REMARK  status: ('A' for Active; 'I' for Inactive)
REMARK    1  A    between atoms: C1_7  and  N1_4 
REMARK       I    between atoms: C10_16  and  N3_6 
REMARK    2  A    between atoms: C3_9  and  N3_6 
REMARK    3  A    between atoms: C1_7  and  C2_8 
REMARK    4  A    between atoms: C10_16  and  C6_12 
ROOT
HETATM    1  O2  UNK     1      17.887   3.231  33.009  1.00  0.00    -0.267 OA
HETATM    2  N3  UNK     1      18.567   3.925  30.864  1.00  0.00    -0.306 N 
HETATM    3  C10 UNK     1      18.195   4.095  32.190  1.00  0.00     0.263 C 
HETATM    4  H6  UNK     1      18.816   4.735  30.302  1.00  0.00     0.170 HD
ENDROOT
BRANCH   2   5
HETATM    5  C3  UNK     1      18.678   2.709  30.147  1.00  0.00     0.151 A 
HETATM    6  N2  UNK     1      19.512   1.760  30.516  1.00  0.00    -0.154 NA
HETATM    7  N1  UNK     1      19.290   0.820  29.582  1.00  0.00    -0.275 N 
HETATM    8  C5  UNK     1      18.349   1.170  28.660  1.00  0.00     0.116 A 
HETATM    9  C8  UNK     1      17.924   2.426  29.015  1.00  0.00     0.071 A 
BRANCH   7  10
HETATM   10  C1  UNK     1      20.027  -0.421  29.626  1.00  0.00     0.189 C 
BRANCH  10  11
HETATM   11  C2  UNK     1      19.986  -1.036  30.999  1.00  0.00    -0.038 A 
HETATM   12  C11 UNK     1      18.988  -0.662  31.887  1.00  0.00     0.009 A 
HETATM   13  C16 UNK     1      18.949  -1.231  33.159  1.00  0.00     0.001 A 
HETATM   14  C20 UNK     1      19.911  -2.170  33.533  1.00  0.00     0.000 A 
HETATM   15  C17 UNK     1      20.911  -2.540  32.633  1.00  0.00     0.001 A 
HETATM   16  C12 UNK     1      20.949  -1.970  31.360  1.00  0.00     0.009 A 
ENDBRANCH  10  11
ENDBRANCH   7  10
ENDBRANCH   2   5
BRANCH   3  17
HETATM   17  C6  UNK     1      18.194   5.508  32.589  1.00  0.00     0.108 A 
HETATM   18  C14 UNK     1      19.416   6.341  32.527  1.00  0.00     0.304 A 
HETATM   19  O1  UNK     1      19.289   7.668  32.931  1.00  0.00    -0.274 OA
HETATM   20  O3  UNK     1      20.489   5.891  32.140  1.00  0.00    -0.259 OA
HETATM   21  C7  UNK     1      18.062   8.195  33.378  1.00  0.00     0.089 A 
HETATM   22  C15 UNK     1      18.033   9.534  33.762  1.00  0.00     0.038 A 
HETATM   23  C4  UNK     1      16.925   7.394  33.429  1.00  0.00    -0.001 A 
HETATM   24  C19 UNK     1      16.832  10.083  34.208  1.00  0.00     0.003 A 
HETATM   25  C18 UNK     1      15.682   9.294  34.265  1.00  0.00     0.001 A 
HETATM   26  C13 UNK     1      15.726   7.952  33.877  1.00  0.00     0.014 A 
HETATM   27  C9  UNK     1      17.025   6.003  33.011  1.00  0.00     0.037 A 
ENDBRANCH   3  17
TORSDOF 4
ENDMDL
MODEL 4
REMARK VINA RESULT:      -9.5      2.289      8.793
REMARK  4 active torsions:
REMARK  status: ('A' for Active; 'I' for Inactive)
REMARK    1  A    between atoms: C1_7  and  N1_4 
REMARK       I    between atoms: C10_16  and  N3_6 
REMARK    2  A    between atoms: C3_9  and  N3_6 
REMARK    3  A    between atoms: C1_7  and  C2_8 
REMARK    4  A    between atoms: C10_16  and  C6_12 
ROOT
HETATM    1  O2  UNK     1      17.940   3.278  33.058  1.00  0.00    -0.267 OA
HETATM    2  N3  UNK     1      18.478   3.979  30.876  1.00  0.00    -0.306 N 
HETATM    3  C10 UNK     1      18.158   4.147  32.216  1.00  0.00     0.263 C 
HETATM    4  H6  UNK     1      18.652   4.794  30.294  1.00  0.00     0.170 HD
ENDROOT
BRANCH   2   5
HETATM    5  C3  UNK     1      18.626   2.762  30.169  1.00  0.00     0.151 A 
HETATM    6  N2  UNK     1      19.474   1.833  30.557  1.00  0.00    -0.154 NA
HETATM    7  N1  UNK     1      19.287   0.883  29.625  1.00  0.00    -0.275 N 
HETATM    8  C5  UNK     1      18.353   1.207  28.686  1.00  0.00     0.116 A 
HETATM    9  C8  UNK     1      17.896   2.456  29.027  1.00  0.00     0.071 A 
BRANCH   7  10
HETATM   10  C1  UNK     1      20.049  -0.342  29.689  1.00  0.00     0.189 C 
BRANCH  10  11
HETATM   11  C2  UNK     1      19.977  -0.963  31.058  1.00  0.00    -0.038 A 
HETATM   12  C11 UNK     1      20.932  -1.895  31.437  1.00  0.00     0.009 A 
HETATM   13  C16 UNK     1      20.866  -2.471  32.706  1.00  0.00     0.001 A 
HETATM   14  C20 UNK     1      19.845  -2.108  33.584  1.00  0.00     0.000 A 
HETATM   15  C17 UNK     1      18.889  -1.170  33.192  1.00  0.00     0.001 A 
HETATM   16  C12 UNK     1      18.956  -0.595  31.923  1.00  0.00     0.009 A 
ENDBRANCH  10  11
ENDBRANCH   7  10
ENDBRANCH   2   5
BRANCH   3  17
HETATM   17  C6  UNK     1      18.094   5.562  32.598  1.00  0.00     0.108 A 
HETATM   18  C14 UNK     1      16.864   6.367  32.424  1.00  0.00     0.304 A 
HETATM   19  O1  UNK     1      16.926   7.700  32.825  1.00  0.00    -0.274 OA
HETATM   20  O3  UNK     1      15.837   5.890  31.952  1.00  0.00    -0.259 OA
HETATM   21  C7  UNK     1      18.100   8.258  33.369  1.00  0.00     0.089 A 
HETATM   22  C15 UNK     1      18.066   9.600  33.740  1.00  0.00     0.038 A 
HETATM   23  C4  UNK     1      19.245   7.484  33.523  1.00  0.00    -0.001 A 
HETATM   24  C19 UNK     1      19.212  10.180  34.281  1.00  0.00     0.003 A 
HETATM   25  C18 UNK     1      20.370   9.418  34.444  1.00  0.00     0.001 A 
HETATM   26  C13 UNK     1      20.389   8.073  34.066  1.00  0.00     0.014 A 
HETATM   27  C9  UNK     1      19.211   6.087  33.115  1.00  0.00     0.037 A 
ENDBRANCH   3  17
TORSDOF 4
ENDMDL
MODEL 5
REMARK VINA RESULT:      -9.5      5.864     11.471
REMARK  4 active torsions:
REMARK  status: ('A' for Active; 'I' for Inactive)
REMARK    1  A    between atoms: C1_7  and  N1_4 
REMARK       I    between atoms: C10_16  and  N3_6 
REMARK    2  A    between atoms: C3_9  and  N3_6 
REMARK    3  A    between atoms: C1_7  and  C2_8 
REMARK    4  A    between atoms: C10_16  and  C6_12 
ROOT
HETATM    1  O2  UNK     1      18.613  -1.627  36.299  1.00  0.00    -0.267 OA
HETATM    2  N3  UNK     1      19.782  -3.346  35.194  1.00  0.00    -0.306 N 
HETATM    3  C10 UNK     1      19.154  -2.114  35.308  1.00  0.00     0.263 C 
HETATM    4  H6  UNK     1      20.207  -3.615  34.311  1.00  0.00     0.170 HD
ENDROOT
BRANCH   2   5
HETATM    5  C3  UNK     1      19.943  -4.330  36.199  1.00  0.00     0.151 A 
HETATM    6  N2  UNK     1      19.282  -5.468  36.168  1.00  0.00    -0.154 NA
HETATM    7  N1  UNK     1      19.730  -6.078  37.279  1.00  0.00    -0.275 N 
HETATM    8  C5  UNK     1      20.641  -5.345  37.981  1.00  0.00     0.116 A 
HETATM    9  C8  UNK     1      20.801  -4.174  37.281  1.00  0.00     0.071 A 
BRANCH   7  10
HETATM   10  C1  UNK     1      19.238  -7.390  37.624  1.00  0.00     0.189 C 
BRANCH  10  11
HETATM   11  C2  UNK     1      20.084  -8.473  37.009  1.00  0.00    -0.038 A 
HETATM   12  C11 UNK     1      20.241  -9.680  37.674  1.00  0.00     0.009 A 
HETATM   13  C16 UNK     1      21.025 -10.683  37.105  1.00  0.00     0.001 A 
HETATM   14  C20 UNK     1      21.645 -10.469  35.874  1.00  0.00     0.000 A 
HETATM   15  C17 UNK     1      21.482  -9.251  35.213  1.00  0.00     0.001 A 
HETATM   16  C12 UNK     1      20.697  -8.248  35.783  1.00  0.00     0.009 A 
ENDBRANCH  10  11
ENDBRANCH   7  10
ENDBRANCH   2   5
BRANCH   3  17
HETATM   17  C6  UNK     1      19.183  -1.358  34.050  1.00  0.00     0.108 A 
HETATM   18  C14 UNK     1      18.598  -0.003  33.934  1.00  0.00     0.304 A 
HETATM   19  O1  UNK     1      18.688   0.613  32.688  1.00  0.00    -0.274 OA
HETATM   20  O3  UNK     1      18.062   0.555  34.885  1.00  0.00    -0.259 OA
HETATM   21  C7  UNK     1      19.303  -0.020  31.590  1.00  0.00     0.089 A 
HETATM   22  C15 UNK     1      19.345   0.675  30.383  1.00  0.00     0.038 A 
HETATM   23  C4  UNK     1      19.845  -1.295  31.720  1.00  0.00    -0.001 A 
HETATM   24  C19 UNK     1      19.946   0.075  29.279  1.00  0.00     0.003 A 
HETATM   25  C18 UNK     1      20.496  -1.203  29.391  1.00  0.00     0.001 A 
HETATM   26  C13 UNK     1      20.446  -1.888  30.608  1.00  0.00     0.014 A 
HETATM   27  C9  UNK     1      19.768  -1.963  33.010  1.00  0.00     0.037 A 
ENDBRANCH   3  17
TORSDOF 4
ENDMDL
MODEL 6
REMARK VINA RESULT:      -9.4      3.194      9.543
REMARK  4 active torsions:
REMARK  status: ('A' for Active; 'I' for Inactive)
REMARK    1  A    between atoms: C1_7  and  N1_4 
REMARK       I    between atoms: C10_16  and  N3_6 
REMARK    2  A    between atoms: C3_9  and  N3_6 
REMARK    3  A    between atoms: C1_7  and  C2_8 
REMARK    4  A    between atoms: C10_16  and  C6_12 
ROOT
HETATM    1  O2  UNK     1      17.657   4.150  32.476  1.00  0.00    -0.267 OA
HETATM    2  N3  UNK     1      18.541   3.990  34.653  1.00  0.00    -0.306 N 
HETATM    3  C10 UNK     1      18.114   4.644  33.504  1.00  0.00     0.263 C 
HETATM    4  H6  UNK     1      18.882   4.531  35.443  1.00  0.00     0.170 HD
ENDROOT
BRANCH   2   5
HETATM    5  C3  UNK     1      18.547   2.597  34.901  1.00  0.00     0.151 A 
HETATM    6  N2  UNK     1      18.041   1.736  34.042  1.00  0.00    -0.154 NA
HETATM    7  N1  UNK     1      18.257   0.565  34.665  1.00  0.00    -0.275 N 
HETATM    8  C5  UNK     1      18.878   0.689  35.873  1.00  0.00     0.116 A 
HETATM    9  C8  UNK     1      19.083   2.035  36.053  1.00  0.00     0.071 A 
BRANCH   7  10
HETATM   10  C1  UNK     1      17.837  -0.667  34.041  1.00  0.00     0.189 C 
BRANCH  10  11
HETATM   11  C2  UNK     1      18.923  -1.238  33.169  1.00  0.00    -0.038 A 
HETATM   12  C11 UNK     1      19.833  -2.136  33.710  1.00  0.00     0.009 A 
HETATM   13  C16 UNK     1      20.839  -2.666  32.903  1.00  0.00     0.001 A 
HETATM   14  C20 UNK     1      20.926  -2.293  31.562  1.00  0.00     0.000 A 
HETATM   15  C17 UNK     1      20.006  -1.390  31.028  1.00  0.00     0.001 A 
HETATM   16  C12 UNK     1      19.000  -0.860  31.835  1.00  0.00     0.009 A 
ENDBRANCH  10  11
ENDBRANCH   7  10
ENDBRANCH   2   5
BRANCH   3  17
HETATM   17  C6  UNK     1      18.256   6.101  33.611  1.00  0.00     0.108 A 
HETATM   18  C14 UNK     1      19.568   6.773  33.478  1.00  0.00     0.304 A 
HETATM   19  O1  UNK     1      19.575   8.161  33.598  1.00  0.00    -0.274 OA
HETATM   20  O3  UNK     1      20.601   6.145  33.272  1.00  0.00    -0.259 OA
HETATM   21  C7  UNK     1      18.394   8.892  33.834  1.00  0.00     0.089 A 
HETATM   22  C15 UNK     1      18.500  10.277  33.939  1.00  0.00     0.038 A 
HETATM   23  C4  UNK     1      17.171   8.239  33.956  1.00  0.00    -0.001 A 
HETATM   24  C19 UNK     1      17.349  11.027  34.172  1.00  0.00     0.003 A 
HETATM   25  C18 UNK     1      16.113  10.389  34.297  1.00  0.00     0.001 A 
HETATM   26  C13 UNK     1      16.022   8.999  34.190  1.00  0.00     0.014 A 
HETATM   27  C9  UNK     1      17.131   6.790  33.834  1.00  0.00     0.037 A 
ENDBRANCH   3  17
TORSDOF 4
ENDMDL
MODEL 7
REMARK VINA RESULT:      -9.4      2.380      3.664
REMARK  4 active torsions:
REMARK  status: ('A' for Active; 'I' for Inactive)
REMARK    1  A    between atoms: C1_7  and  N1_4 
REMARK       I    between atoms: C10_16  and  N3_6 
REMARK    2  A    between atoms: C3_9  and  N3_6 
REMARK    3  A    between atoms: C1_7  and  C2_8 
REMARK    4  A    between atoms: C10_16  and  C6_12 
ROOT
HETATM    1  O2  UNK     1      17.108   4.195  31.191  1.00  0.00    -0.267 OA
HETATM    2  N3  UNK     1      18.626   4.469  32.971  1.00  0.00    -0.306 N 
HETATM    3  C10 UNK     1      17.980   3.781  31.953  1.00  0.00     0.263 C 
HETATM    4  H6  UNK     1      19.347   4.003  33.515  1.00  0.00     0.170 HD
ENDROOT
BRANCH   2   5
HETATM    5  C3  UNK     1      18.426   5.813  33.367  1.00  0.00     0.151 A 
HETATM    6  N2  UNK     1      17.541   6.141  34.285  1.00  0.00    -0.154 NA
HETATM    7  N1  UNK     1      17.686   7.476  34.343  1.00  0.00    -0.275 N 
HETATM    8  C5  UNK     1      18.630   7.966  33.489  1.00  0.00     0.116 A 
HETATM    9  C8  UNK     1      19.139   6.876  32.827  1.00  0.00     0.071 A 
BRANCH   7  10
HETATM   10  C1  UNK     1      16.874   8.246  35.255  1.00  0.00     0.189 C 
BRANCH  10  11
HETATM   11  C2  UNK     1      15.949   9.175  34.516  1.00  0.00    -0.038 A 
HETATM   12  C11 UNK     1      16.217  10.537  34.498  1.00  0.00     0.009 A 
HETATM   13  C16 UNK     1      15.360  11.398  33.813  1.00  0.00     0.001 A 
HETATM   14  C20 UNK     1      14.242  10.889  33.152  1.00  0.00     0.000 A 
HETATM   15  C17 UNK     1      13.981   9.519  33.176  1.00  0.00     0.001 A 
HETATM   16  C12 UNK     1      14.839   8.658  33.861  1.00  0.00     0.009 A 
ENDBRANCH  10  11
ENDBRANCH   7  10
ENDBRANCH   2   5
BRANCH   3  17
HETATM   17  C6  UNK     1      18.452   2.396  31.833  1.00  0.00     0.108 A 
HETATM   18  C14 UNK     1      18.400   1.448  32.969  1.00  0.00     0.304 A 
HETATM   19  O1  UNK     1      18.877   0.161  32.732  1.00  0.00    -0.274 OA
HETATM   20  O3  UNK     1      17.959   1.774  34.066  1.00  0.00    -0.259 OA
HETATM   21  C7  UNK     1      19.385  -0.223  31.476  1.00  0.00     0.089 A 
HETATM   22  C15 UNK     1      19.840  -1.532  31.335  1.00  0.00     0.038 A 
HETATM   23  C4  UNK     1      19.426   0.684  30.421  1.00  0.00    -0.001 A 
HETATM   24  C19 UNK     1      20.349  -1.941  30.103  1.00  0.00     0.003 A 
HETATM   25  C18 UNK     1      20.397  -1.045  29.034  1.00  0.00     0.001 A 
HETATM   26  C13 UNK     1      19.937   0.266  29.191  1.00  0.00     0.014 A 
HETATM   27  C9  UNK     1      18.933   2.036  30.638  1.00  0.00     0.037 A 
ENDBRANCH   3  17
TORSDOF 4
ENDMDL
MODEL 8
REMARK VINA RESULT:      -9.3      4.779     10.094
REMARK  4 active torsions:
REMARK  status: ('A' for Active; 'I' for Inactive)
REMARK    1  A    between atoms: C1_7  and  N1_4 
REMARK       I    between atoms: C10_16  and  N3_6 
REMARK    2  A    between atoms: C3_9  and  N3_6 
REMARK    3  A    between atoms: C1_7  and  C2_8 
REMARK    4  A    between atoms: C10_16  and  C6_12 
ROOT
HETATM    1  O2  UNK     1      21.154  -3.217  32.878  1.00  0.00    -0.267 OA
HETATM    2  N3  UNK     1      19.735  -1.881  34.198  1.00  0.00    -0.306 N 
HETATM    3  C10 UNK     1      20.373  -2.281  33.032  1.00  0.00     0.263 C 
HETATM    4  H6  UNK     1      19.094  -1.092  34.177  1.00  0.00     0.170 HD
ENDROOT
BRANCH   2   5
HETATM    5  C3  UNK     1      19.839  -2.464  35.484  1.00  0.00     0.151 A 
HETATM    6  N2  UNK     1      20.735  -3.389  35.755  1.00  0.00    -0.154 NA
HETATM    7  N1  UNK     1      20.483  -3.647  37.049  1.00  0.00    -0.275 N 
HETATM    8  C5  UNK     1      19.464  -2.907  37.571  1.00  0.00     0.116 A 
HETATM    9  C8  UNK     1      19.018  -2.108  36.546  1.00  0.00     0.071 A 
BRANCH   7  10
HETATM   10  C1  UNK     1      21.270  -4.635  37.750  1.00  0.00     0.189 C 
BRANCH  10  11
HETATM   11  C2  UNK     1      20.486  -5.899  37.977  1.00  0.00    -0.038 A 
HETATM   12  C11 UNK     1      20.569  -6.545  39.203  1.00  0.00     0.009 A 
HETATM   13  C16 UNK     1      19.843  -7.716  39.414  1.00  0.00     0.001 A 
HETATM   14  C20 UNK     1      19.040  -8.232  38.397  1.00  0.00     0.000 A 
HETATM   15  C17 UNK     1      18.962  -7.575  37.168  1.00  0.00     0.001 A 
HETATM   16  C12 UNK     1      19.689  -6.403  36.958  1.00  0.00     0.009 A 
ENDBRANCH  10  11
ENDBRANCH   7  10
ENDBRANCH   2   5
BRANCH   3  17
HETATM   17  C6  UNK     1      20.019  -1.433  31.888  1.00  0.00     0.108 A 
HETATM   18  C14 UNK     1      20.264  -1.857  30.491  1.00  0.00     0.304 A 
HETATM   19  O1  UNK     1      19.883  -0.966  29.490  1.00  0.00    -0.274 OA
HETATM   20  O3  UNK     1      20.776  -2.939  30.222  1.00  0.00    -0.259 OA
HETATM   21  C7  UNK     1      19.295   0.278  29.789  1.00  0.00     0.089 A 
HETATM   22  C15 UNK     1      18.948   1.103  28.720  1.00  0.00     0.038 A 
HETATM   23  C4  UNK     1      19.074   0.658  31.109  1.00  0.00    -0.001 A 
HETATM   24  C19 UNK     1      18.364   2.340  28.984  1.00  0.00     0.003 A 
HETATM   25  C18 UNK     1      18.134   2.738  30.303  1.00  0.00     0.001 A 
HETATM   26  C13 UNK     1      18.488   1.900  31.364  1.00  0.00     0.014 A 
HETATM   27  C9  UNK     1      19.459  -0.252  32.176  1.00  0.00     0.037 A 
ENDBRANCH   3  17
TORSDOF 4
ENDMDL
MODEL 9
REMARK VINA RESULT:      -9.3      4.246      9.795
REMARK  4 active torsions:
REMARK  status: ('A' for Active; 'I' for Inactive)
REMARK    1  A    between atoms: C1_7  and  N1_4 
REMARK       I    between atoms: C10_16  and  N3_6 
REMARK    2  A    between atoms: C3_9  and  N3_6 
REMARK    3  A    between atoms: C1_7  and  C2_8 
REMARK    4  A    between atoms: C10_16  and  C6_12 
ROOT
HETATM    1  O2  UNK     1      16.748   0.607  34.465  1.00  0.00    -0.267 OA
HETATM    2  N3  UNK     1      19.041   0.078  34.524  1.00  0.00    -0.306 N 
HETATM    3  C10 UNK     1      17.908   0.749  34.085  1.00  0.00     0.263 C 
HETATM    4  H6  UNK     1      19.949   0.312  34.131  1.00  0.00     0.170 HD
ENDROOT
BRANCH   2   5
HETATM    5  C3  UNK     1      19.119  -0.929  35.515  1.00  0.00     0.151 A 
HETATM    6  N2  UNK     1      20.183  -1.693  35.646  1.00  0.00    -0.154 NA
HETATM    7  N1  UNK     1      19.833  -2.481  36.677  1.00  0.00    -0.275 N 
HETATM    8  C5  UNK     1      18.591  -2.217  37.175  1.00  0.00     0.116 A 
HETATM    9  C8  UNK     1      18.094  -1.185  36.417  1.00  0.00     0.071 A 
BRANCH   7  10
HETATM   10  C1  UNK     1      20.750  -3.490  37.151  1.00  0.00     0.189 C 
BRANCH  10  11
HETATM   11  C2  UNK     1      20.168  -4.871  37.007  1.00  0.00    -0.038 A 
HETATM   12  C11 UNK     1      20.027  -5.675  38.129  1.00  0.00     0.009 A 
HETATM   13  C16 UNK     1      19.488  -6.954  37.996  1.00  0.00     0.001 A 
HETATM   14  C20 UNK     1      19.095  -7.418  36.741  1.00  0.00     0.000 A 
HETATM   15  C17 UNK     1      19.241  -6.602  35.618  1.00  0.00     0.001 A 
HETATM   16  C12 UNK     1      19.780  -5.322  35.753  1.00  0.00     0.009 A 
ENDBRANCH  10  11
ENDBRANCH   7  10
ENDBRANCH   2   5
BRANCH   3  17
HETATM   17  C6  UNK     1      18.216   1.732  33.040  1.00  0.00     0.108 A 
HETATM   18  C14 UNK     1      18.700   1.329  31.700  1.00  0.00     0.304 A 
HETATM   19  O1  UNK     1      18.957   2.355  30.793  1.00  0.00    -0.274 OA
HETATM   20  O3  UNK     1      18.867   0.153  31.398  1.00  0.00    -0.259 OA
HETATM   21  C7  UNK     1      18.769   3.709  31.131  1.00  0.00     0.089 A 
HETATM   22  C15 UNK     1      19.054   4.664  30.157  1.00  0.00     0.038 A 
HETATM   23  C4  UNK     1      18.314   4.067  32.396  1.00  0.00    -0.001 A 
HETATM   24  C19 UNK     1      18.877   6.013  30.461  1.00  0.00     0.003 A 
HETATM   25  C18 UNK     1      18.421   6.390  31.726  1.00  0.00     0.001 A 
HETATM   26  C13 UNK     1      18.140   5.420  32.693  1.00  0.00     0.014 A 
HETATM   27  C9  UNK     1      18.035   3.018  33.365  1.00  0.00     0.037 A 
ENDBRANCH   3  17
TORSDOF 4
ENDMDL
MODEL 10
REMARK VINA RESULT:      -9.3     12.444     15.276
REMARK  4 active torsions:
REMARK  status: ('A' for Active; 'I' for Inactive)
REMARK    1  A    between atoms: C1_7  and  N1_4 
REMARK       I    between atoms: C10_16  and  N3_6 
REMARK    2  A    between atoms: C3_9  and  N3_6 
REMARK    3  A    between atoms: C1_7  and  C2_8 
REMARK    4  A    between atoms: C10_16  and  C6_12 
ROOT
HETATM    1  O2  UNK     1      26.510  -9.099  39.145  1.00  0.00    -0.267 OA
HETATM    2  N3  UNK     1      25.073  -7.300  38.653  1.00  0.00    -0.306 N 
HETATM    3  C10 UNK     1      26.296  -7.920  38.872  1.00  0.00     0.263 C 
HETATM    4  H6  UNK     1      25.045  -6.312  38.415  1.00  0.00     0.170 HD
ENDROOT
BRANCH   2   5
HETATM    5  C3  UNK     1      23.786  -7.888  38.697  1.00  0.00     0.151 A 
HETATM    6  N2  UNK     1      23.272  -8.507  37.655  1.00  0.00    -0.154 NA
HETATM    7  N1  UNK     1      22.076  -8.897  38.129  1.00  0.00    -0.275 N 
HETATM    8  C5  UNK     1      21.852  -8.535  39.424  1.00  0.00     0.116 A 
HETATM    9  C8  UNK     1      22.979  -7.860  39.826  1.00  0.00     0.071 A 
BRANCH   7  10
HETATM   10  C1  UNK     1      21.172  -9.631  37.276  1.00  0.00     0.189 C 
BRANCH  10  11
HETATM   11  C2  UNK     1      20.278  -8.704  36.497  1.00  0.00    -0.038 A 
HETATM   12  C11 UNK     1      20.790  -8.014  35.407  1.00  0.00     0.009 A 
HETATM   13  C16 UNK     1      19.962  -7.156  34.685  1.00  0.00     0.001 A 
HETATM   14  C20 UNK     1      18.629  -6.993  35.060  1.00  0.00     0.000 A 
HETATM   15  C17 UNK     1      18.123  -7.691  36.158  1.00  0.00     0.001 A 
HETATM   16  C12 UNK     1      18.952  -8.550  36.880  1.00  0.00     0.009 A 
ENDBRANCH  10  11
ENDBRANCH   7  10
ENDBRANCH   2   5
BRANCH   3  17
HETATM   17  C6  UNK     1      27.422  -6.987  38.741  1.00  0.00     0.108 A 
HETATM   18  C14 UNK     1      27.226  -5.520  38.717  1.00  0.00     0.304 A 
HETATM   19  O1  UNK     1      28.372  -4.738  38.589  1.00  0.00    -0.274 OA
HETATM   20  O3  UNK     1      26.114  -5.011  38.806  1.00  0.00    -0.259 OA
HETATM   21  C7  UNK     1      29.655  -5.312  38.487  1.00  0.00     0.089 A 
HETATM   22  C15 UNK     1      30.741  -4.448  38.361  1.00  0.00     0.038 A 
HETATM   23  C4  UNK     1      29.816  -6.694  38.510  1.00  0.00    -0.001 A 
HETATM   24  C19 UNK     1      32.023  -4.987  38.258  1.00  0.00     0.003 A 
HETATM   25  C18 UNK     1      32.203  -6.371  38.280  1.00  0.00     0.001 A 
HETATM   26  C13 UNK     1      31.103  -7.224  38.406  1.00  0.00     0.014 A 
HETATM   27  C9  UNK     1      28.637  -7.537  38.644  1.00  0.00     0.037 A 
ENDBRANCH   3  17
TORSDOF 4
ENDMDL
