MODEL 1
REMARK VINA RESULT:      -6.5      0.000      0.000
REMARK  2 active torsions:
REMARK  status: ('A' for Active; 'I' for Inactive)
REMARK    1  A    between atoms: C5_9  and  O2_2 
REMARK    2  A    between atoms: C7_11  and  O3_3 
ROOT
HETATM    1  O1  UNK     1      18.120   5.238  34.056  1.00  0.00    -0.275 OA
HETATM    2  O4  UNK     1      18.094   7.485  34.479  1.00  0.00    -0.260 OA
HETATM    3  C1  UNK     1      18.510   4.456  31.776  1.00  0.00     0.007 A 
HETATM    4  C2  UNK     1      18.264   4.192  33.124  1.00  0.00     0.093 A 
HETATM    5  C3  UNK     1      18.619   5.855  31.341  1.00  0.00    -0.043 A 
HETATM    6  C4  UNK     1      18.640   3.359  30.912  1.00  0.00     0.054 A 
HETATM    7  C5  UNK     1      18.525   2.051  31.394  1.00  0.00     0.102 A 
HETATM    8  C6  UNK     1      18.147   2.892  33.619  1.00  0.00     0.077 A 
HETATM    9  C7  UNK     1      18.279   1.818  32.747  1.00  0.00     0.104 A 
HETATM   10  C8  UNK     1      18.478   6.829  32.251  1.00  0.00     0.090 A 
HETATM   11  C9  UNK     1      18.884   6.172  29.898  1.00  0.00     0.049 C 
HETATM   12  C10 UNK     1      18.217   6.567  33.676  1.00  0.00     0.288 A 
ENDROOT
BRANCH   7  13
HETATM   13  O2  UNK     1      18.658   1.007  30.528  1.00  0.00    -0.353 OA
HETATM   14  C11 UNK     1      18.600   1.310  29.136  1.00  0.00     0.210 C 
ENDBRANCH   7  13
BRANCH   9  15
HETATM   15  O3  UNK     1      18.166   0.547  33.222  1.00  0.00    -0.353 OA
HETATM   16  C12 UNK     1      17.874   0.397  34.610  1.00  0.00     0.210 C 
ENDBRANCH   9  15
TORSDOF 2
ENDMDL
MODEL 2
REMARK VINA RESULT:      -6.4      2.207      5.423
REMARK  2 active torsions:
REMARK  status: ('A' for Active; 'I' for Inactive)
REMARK    1  A    between atoms: C5_9  and  O2_2 
REMARK    2  A    between atoms: C7_11  and  O3_3 
ROOT
HETATM    1  O1  UNK     1      19.091  -0.279  32.994  1.00  0.00    -0.275 OA
HETATM    2  O4  UNK     1      19.816  -2.416  33.366  1.00  0.00    -0.260 OA
HETATM    3  C1  UNK     1      19.437   0.734  30.799  1.00  0.00     0.007 A 
HETATM    4  C2  UNK     1      18.960   0.808  32.109  1.00  0.00     0.093 A 
HETATM    5  C3  UNK     1      20.083  -0.508  30.355  1.00  0.00    -0.043 A 
HETATM    6  C4  UNK     1      19.267   1.860  29.981  1.00  0.00     0.054 A 
HETATM    7  C5  UNK     1      18.641   3.012  30.470  1.00  0.00     0.102 A 
HETATM    8  C6  UNK     1      18.333   1.951  32.610  1.00  0.00     0.077 A 
HETATM    9  C7  UNK     1      18.175   3.056  31.783  1.00  0.00     0.104 A 
HETATM   10  C8  UNK     1      20.194  -1.526  31.219  1.00  0.00     0.090 A 
HETATM   11  C9  UNK     1      20.606  -0.620  28.953  1.00  0.00     0.049 C 
HETATM   12  C10 UNK     1      19.696  -1.463  32.604  1.00  0.00     0.288 A 
ENDROOT
BRANCH   7  13
HETATM   13  O2  UNK     1      18.492   4.089  29.648  1.00  0.00    -0.353 OA
HETATM   14  C11 UNK     1      19.372   5.191  29.859  1.00  0.00     0.210 C 
ENDBRANCH   7  13
BRANCH   9  15
HETATM   15  O3  UNK     1      17.565   4.175  32.264  1.00  0.00    -0.353 OA
HETATM   16  C12 UNK     1      18.185   4.827  33.371  1.00  0.00     0.210 C 
ENDBRANCH   9  15
TORSDOF 2
ENDMDL
MODEL 3
REMARK VINA RESULT:      -6.4      2.291      5.672
REMARK  2 active torsions:
REMARK  status: ('A' for Active; 'I' for Inactive)
REMARK    1  A    between atoms: C5_9  and  O2_2 
REMARK    2  A    between atoms: C7_11  and  O3_3 
ROOT
HETATM    1  O1  UNK     1      17.264   4.521  32.316  1.00  0.00    -0.275 OA
HETATM    2  O4  UNK     1      17.377   2.782  30.834  1.00  0.00    -0.260 OA
HETATM    3  C1  UNK     1      19.085   6.146  32.391  1.00  0.00     0.007 A 
HETATM    4  C2  UNK     1      17.853   5.682  32.853  1.00  0.00     0.093 A 
HETATM    5  C3  UNK     1      19.763   5.398  31.324  1.00  0.00    -0.043 A 
HETATM    6  C4  UNK     1      19.603   7.309  32.977  1.00  0.00     0.054 A 
HETATM    7  C5  UNK     1      18.903   7.973  33.990  1.00  0.00     0.102 A 
HETATM    8  C6  UNK     1      17.142   6.334  33.863  1.00  0.00     0.077 A 
HETATM    9  C7  UNK     1      17.673   7.486  34.431  1.00  0.00     0.104 A 
HETATM   10  C8  UNK     1      19.179   4.297  30.831  1.00  0.00     0.090 A 
HETATM   11  C9  UNK     1      21.090   5.872  30.804  1.00  0.00     0.049 C 
HETATM   12  C10 UNK     1      17.880   3.794  31.309  1.00  0.00     0.288 A 
ENDROOT
BRANCH   7  13
HETATM   13  O2  UNK     1      19.434   9.102  34.539  1.00  0.00    -0.353 OA
HETATM   14  C11 UNK     1      19.084  10.344  33.932  1.00  0.00     0.210 C 
ENDBRANCH   7  13
BRANCH   9  15
HETATM   15  O3  UNK     1      16.987   8.127  35.417  1.00  0.00    -0.353 OA
HETATM   16  C12 UNK     1      15.893   8.951  35.016  1.00  0.00     0.210 C 
ENDBRANCH   9  15
TORSDOF 2
ENDMDL
MODEL 4
REMARK VINA RESULT:      -6.4      2.231      6.064
REMARK  2 active torsions:
REMARK  status: ('A' for Active; 'I' for Inactive)
REMARK    1  A    between atoms: C5_9  and  O2_2 
REMARK    2  A    between atoms: C7_11  and  O3_3 
ROOT
HETATM    1  O1  UNK     1      19.655   0.862  29.373  1.00  0.00    -0.275 OA
HETATM    2  O4  UNK     1      20.632  -0.716  28.037  1.00  0.00    -0.260 OA
HETATM    3  C1  UNK     1      19.207   0.333  31.715  1.00  0.00     0.007 A 
HETATM    4  C2  UNK     1      19.164   1.225  30.642  1.00  0.00     0.093 A 
HETATM    5  C3  UNK     1      19.780  -1.002  31.497  1.00  0.00    -0.043 A 
HETATM    6  C4  UNK     1      18.697   0.771  32.945  1.00  0.00     0.054 A 
HETATM    7  C5  UNK     1      18.166   2.058  33.082  1.00  0.00     0.102 A 
HETATM    8  C6  UNK     1      18.637   2.512  30.764  1.00  0.00     0.077 A 
HETATM    9  C7  UNK     1      18.136   2.927  31.993  1.00  0.00     0.104 A 
HETATM   10  C8  UNK     1      20.240  -1.319  30.279  1.00  0.00     0.090 A 
HETATM   11  C9  UNK     1      19.841  -1.984  32.630  1.00  0.00     0.049 C 
HETATM   12  C10 UNK     1      20.201  -0.389  29.137  1.00  0.00     0.288 A 
ENDROOT
BRANCH   7  13
HETATM   13  O2  UNK     1      17.679   2.452  34.293  1.00  0.00    -0.353 OA
HETATM   14  C11 UNK     1      18.458   2.125  35.441  1.00  0.00     0.210 C 
ENDBRANCH   7  13
BRANCH   9  15
HETATM   15  O3  UNK     1      17.620   4.181  32.120  1.00  0.00    -0.353 OA
HETATM   16  C12 UNK     1      18.545   5.267  32.117  1.00  0.00     0.210 C 
ENDBRANCH   9  15
TORSDOF 2
ENDMDL
MODEL 5
REMARK VINA RESULT:      -6.3      2.298      5.456
REMARK  2 active torsions:
REMARK  status: ('A' for Active; 'I' for Inactive)
REMARK    1  A    between atoms: C5_9  and  O2_2 
REMARK    2  A    between atoms: C7_11  and  O3_3 
ROOT
HETATM    1  O1  UNK     1      18.764  -0.089  34.337  1.00  0.00    -0.275 OA
HETATM    2  O4  UNK     1      19.247  -1.982  35.526  1.00  0.00    -0.260 OA
HETATM    3  C1  UNK     1      19.237  -0.029  31.942  1.00  0.00     0.007 A 
HETATM    4  C2  UNK     1      18.761   0.586  33.101  1.00  0.00     0.093 A 
HETATM    5  C3  UNK     1      19.746  -1.404  32.034  1.00  0.00    -0.043 A 
HETATM    6  C4  UNK     1      19.199   0.710  30.752  1.00  0.00     0.054 A 
HETATM    7  C5  UNK     1      18.700   2.017  30.736  1.00  0.00     0.102 A 
HETATM    8  C6  UNK     1      18.259   1.889  33.101  1.00  0.00     0.077 A 
HETATM    9  C7  UNK     1      18.230   2.605  31.910  1.00  0.00     0.104 A 
HETATM   10  C8  UNK     1      19.738  -2.021  33.223  1.00  0.00     0.090 A 
HETATM   11  C9  UNK     1      20.266  -2.093  30.806  1.00  0.00     0.049 C 
HETATM   12  C10 UNK     1      19.239  -1.385  34.455  1.00  0.00     0.288 A 
ENDROOT
BRANCH   7  13
HETATM   13  O2  UNK     1      18.676   2.708  29.561  1.00  0.00    -0.353 OA
HETATM   14  C11 UNK     1      17.902   2.153  28.500  1.00  0.00     0.210 C 
ENDBRANCH   7  13
BRANCH   9  15
HETATM   15  O3  UNK     1      17.743   3.877  31.901  1.00  0.00    -0.353 OA
HETATM   16  C12 UNK     1      18.105   4.718  32.995  1.00  0.00     0.210 C 
ENDBRANCH   9  15
TORSDOF 2
ENDMDL
MODEL 6
REMARK VINA RESULT:      -6.3      2.941      5.409
REMARK  2 active torsions:
REMARK  status: ('A' for Active; 'I' for Inactive)
REMARK    1  A    between atoms: C5_9  and  O2_2 
REMARK    2  A    between atoms: C7_11  and  O3_3 
ROOT
HETATM    1  O1  UNK     1      19.688  -0.964  30.538  1.00  0.00    -0.275 OA
HETATM    2  O4  UNK     1      20.246  -0.710  28.335  1.00  0.00    -0.260 OA
HETATM    3  C1  UNK     1      18.828   0.954  31.781  1.00  0.00     0.007 A 
HETATM    4  C2  UNK     1      19.199  -0.390  31.728  1.00  0.00     0.093 A 
HETATM    5  C3  UNK     1      18.956   1.768  30.565  1.00  0.00    -0.043 A 
HETATM    6  C4  UNK     1      18.351   1.449  33.003  1.00  0.00     0.054 A 
HETATM    7  C5  UNK     1      18.254   0.616  34.123  1.00  0.00     0.102 A 
HETATM    8  C6  UNK     1      19.108  -1.233  32.838  1.00  0.00     0.077 A 
HETATM    9  C7  UNK     1      18.632  -0.723  34.040  1.00  0.00     0.104 A 
HETATM   10  C8  UNK     1      19.425   1.195  29.448  1.00  0.00     0.090 A 
HETATM   11  C9  UNK     1      18.565   3.217  30.590  1.00  0.00     0.049 C 
HETATM   12  C10 UNK     1      19.821  -0.221  29.376  1.00  0.00     0.288 A 
ENDROOT
BRANCH   7  13
HETATM   13  O2  UNK     1      17.785   1.128  35.296  1.00  0.00    -0.353 OA
HETATM   14  C11 UNK     1      18.706   1.874  36.091  1.00  0.00     0.210 C 
ENDBRANCH   7  13
BRANCH   9  15
HETATM   15  O3  UNK     1      18.540  -1.538  35.127  1.00  0.00    -0.353 OA
HETATM   16  C12 UNK     1      19.751  -1.829  35.824  1.00  0.00     0.210 C 
ENDBRANCH   9  15
TORSDOF 2
ENDMDL
MODEL 7
REMARK VINA RESULT:      -6.3      3.837      5.918
REMARK  2 active torsions:
REMARK  status: ('A' for Active; 'I' for Inactive)
REMARK    1  A    between atoms: C5_9  and  O2_2 
REMARK    2  A    between atoms: C7_11  and  O3_3 
ROOT
HETATM    1  O1  UNK     1      15.530   6.697  32.010  1.00  0.00    -0.275 OA
HETATM    2  O4  UNK     1      13.255   6.906  31.916  1.00  0.00    -0.260 OA
HETATM    3  C1  UNK     1      16.804   8.160  33.494  1.00  0.00     0.007 A 
HETATM    4  C2  UNK     1      16.755   7.129  32.554  1.00  0.00     0.093 A 
HETATM    5  C3  UNK     1      15.545   8.791  33.911  1.00  0.00    -0.043 A 
HETATM    6  C4  UNK     1      18.063   8.530  33.987  1.00  0.00     0.054 A 
HETATM    7  C5  UNK     1      19.223   7.885  33.545  1.00  0.00     0.102 A 
HETATM    8  C6  UNK     1      17.904   6.476  32.104  1.00  0.00     0.077 A 
HETATM    9  C7  UNK     1      19.143   6.858  32.605  1.00  0.00     0.104 A 
HETATM   10  C8  UNK     1      14.395   8.359  33.377  1.00  0.00     0.090 A 
HETATM   11  C9  UNK     1      15.564   9.902  34.921  1.00  0.00     0.049 C 
HETATM   12  C10 UNK     1      14.327   7.274  32.383  1.00  0.00     0.288 A 
ENDROOT
BRANCH   7  13
HETATM   13  O2  UNK     1      20.431   8.269  34.045  1.00  0.00    -0.353 OA
HETATM   14  C11 UNK     1      20.537   9.609  34.523  1.00  0.00     0.210 C 
ENDBRANCH   7  13
BRANCH   9  15
HETATM   15  O3  UNK     1      20.269   6.226  32.172  1.00  0.00    -0.353 OA
HETATM   16  C12 UNK     1      20.276   5.768  30.820  1.00  0.00     0.210 C 
ENDBRANCH   9  15
TORSDOF 2
ENDMDL
MODEL 8
REMARK VINA RESULT:      -6.2      3.797      5.735
REMARK  2 active torsions:
REMARK  status: ('A' for Active; 'I' for Inactive)
REMARK    1  A    between atoms: C5_9  and  O2_2 
REMARK    2  A    between atoms: C7_11  and  O3_3 
ROOT
HETATM    1  O1  UNK     1      18.619   1.440  31.469  1.00  0.00    -0.275 OA
HETATM    2  O4  UNK     1      18.996   1.961  29.274  1.00  0.00    -0.260 OA
HETATM    3  C1  UNK     1      19.347  -0.728  32.324  1.00  0.00     0.007 A 
HETATM    4  C2  UNK     1      18.740   0.513  32.522  1.00  0.00     0.093 A 
HETATM    5  C3  UNK     1      19.864  -1.053  30.988  1.00  0.00    -0.043 A 
HETATM    6  C4  UNK     1      19.428  -1.594  33.423  1.00  0.00     0.054 A 
HETATM    7  C5  UNK     1      18.915  -1.219  34.669  1.00  0.00     0.102 A 
HETATM    8  C6  UNK     1      18.223   0.901  33.759  1.00  0.00     0.077 A 
HETATM    9  C7  UNK     1      18.313   0.027  34.837  1.00  0.00     0.104 A 
HETATM   10  C8  UNK     1      19.735  -0.151  30.005  1.00  0.00     0.090 A 
HETATM   11  C9  UNK     1      20.523  -2.379  30.743  1.00  0.00     0.049 C 
HETATM   12  C10 UNK     1      19.096   1.162  30.198  1.00  0.00     0.288 A 
ENDROOT
BRANCH   7  13
HETATM   13  O2  UNK     1      19.010  -2.085  35.718  1.00  0.00    -0.353 OA
HETATM   14  C11 UNK     1      20.323  -2.430  36.155  1.00  0.00     0.210 C 
ENDBRANCH   7  13
BRANCH   9  15
HETATM   15  O3  UNK     1      17.812   0.398  36.047  1.00  0.00    -0.353 OA
HETATM   16  C12 UNK     1      18.216   1.668  36.556  1.00  0.00     0.210 C 
ENDBRANCH   9  15
TORSDOF 2
ENDMDL
MODEL 9
REMARK VINA RESULT:      -6.2      2.459      4.531
REMARK  2 active torsions:
REMARK  status: ('A' for Active; 'I' for Inactive)
REMARK    1  A    between atoms: C5_9  and  O2_2 
REMARK    2  A    between atoms: C7_11  and  O3_3 
ROOT
HETATM    1  O1  UNK     1      18.335   1.461  31.607  1.00  0.00    -0.275 OA
HETATM    2  O4  UNK     1      18.253   2.640  29.649  1.00  0.00    -0.260 OA
HETATM    3  C1  UNK     1      18.324   2.668  33.730  1.00  0.00     0.007 A 
HETATM    4  C2  UNK     1      18.359   1.470  33.015  1.00  0.00     0.093 A 
HETATM    5  C3  UNK     1      18.259   3.931  32.983  1.00  0.00    -0.043 A 
HETATM    6  C4  UNK     1      18.351   2.591  35.129  1.00  0.00     0.054 A 
HETATM    7  C5  UNK     1      18.413   1.353  35.777  1.00  0.00     0.102 A 
HETATM    8  C6  UNK     1      18.421   0.227  33.648  1.00  0.00     0.077 A 
HETATM    9  C7  UNK     1      18.447   0.172  35.036  1.00  0.00     0.104 A 
HETATM   10  C8  UNK     1      18.237   3.892  31.643  1.00  0.00     0.090 A 
HETATM   11  C9  UNK     1      18.219   5.237  33.722  1.00  0.00     0.049 C 
HETATM   12  C10 UNK     1      18.274   2.636  30.875  1.00  0.00     0.288 A 
ENDROOT
BRANCH   7  13
HETATM   13  O2  UNK     1      18.437   1.313  37.139  1.00  0.00    -0.353 OA
HETATM   14  C11 UNK     1      17.179   1.263  37.808  1.00  0.00     0.210 C 
ENDBRANCH   7  13
BRANCH   9  15
HETATM   15  O3  UNK     1      18.507  -1.037  35.661  1.00  0.00    -0.353 OA
HETATM   16  C12 UNK     1      19.775  -1.691  35.689  1.00  0.00     0.210 C 
ENDBRANCH   9  15
TORSDOF 2
ENDMDL
MODEL 10
REMARK VINA RESULT:      -6.2      1.439      5.634
REMARK  2 active torsions:
REMARK  status: ('A' for Active; 'I' for Inactive)
REMARK    1  A    between atoms: C5_9  and  O2_2 
REMARK    2  A    between atoms: C7_11  and  O3_3 
ROOT
HETATM    1  O1  UNK     1      18.455   0.988  31.930  1.00  0.00    -0.275 OA
HETATM    2  O4  UNK     1      18.458  -1.236  32.465  1.00  0.00    -0.260 OA
HETATM    3  C1  UNK     1      18.289   2.646  33.716  1.00  0.00     0.007 A 
HETATM    4  C2  UNK     1      18.397   2.328  32.362  1.00  0.00     0.093 A 
HETATM    5  C3  UNK     1      18.239   1.550  34.694  1.00  0.00    -0.043 A 
HETATM    6  C4  UNK     1      18.238   4.003  34.063  1.00  0.00     0.054 A 
HETATM    7  C5  UNK     1      18.292   4.995  33.079  1.00  0.00     0.102 A 
HETATM    8  C6  UNK     1      18.453   3.308  31.368  1.00  0.00     0.077 A 
HETATM    9  C7  UNK     1      18.400   4.648  31.734  1.00  0.00     0.104 A 
HETATM   10  C8  UNK     1      18.296   0.285  34.254  1.00  0.00     0.090 A 
HETATM   11  C9  UNK     1      18.123   1.859  36.158  1.00  0.00     0.049 C 
HETATM   12  C10 UNK     1      18.409  -0.066  32.829  1.00  0.00     0.288 A 
ENDROOT
BRANCH   7  13
HETATM   13  O2  UNK     1      18.240   6.306  33.451  1.00  0.00    -0.353 OA
HETATM   14  C11 UNK     1      17.024   6.764  34.038  1.00  0.00     0.210 C 
ENDBRANCH   7  13
BRANCH   9  15
HETATM   15  O3  UNK     1      18.453   5.610  30.771  1.00  0.00    -0.353 OA
HETATM   16  C12 UNK     1      19.696   5.781  30.093  1.00  0.00     0.210 C 
ENDBRANCH   9  15
TORSDOF 2
ENDMDL
