MODEL 1
REMARK VINA RESULT:      -8.9      0.000      0.000
REMARK  3 active torsions:
REMARK  status: ('A' for Active; 'I' for Inactive)
REMARK    1  A    between atoms: C7_13  and  N1_5 
REMARK    2  A    between atoms: C7_13  and  N2_6 
REMARK    3  A    between atoms: C8_14  and  N2_6 
ROOT
HETATM    1  O2  UNK     1      19.268  -0.129  32.799  1.00  0.00    -0.275 OA
HETATM    2  O3  UNK     1      20.076  -2.196  33.349  1.00  0.00    -0.260 OA
HETATM    3  C8  UNK     1      18.169   3.009  31.291  1.00  0.00     0.036 A 
HETATM    4  C9  UNK     1      19.384   0.621  30.478  1.00  0.00     0.004 A 
HETATM    5  C10 UNK     1      18.422   2.029  32.230  1.00  0.00     0.067 A 
HETATM    6  C11 UNK     1      19.028   0.844  31.809  1.00  0.00     0.092 A 
HETATM    7  C12 UNK     1      18.504   2.833  29.961  1.00  0.00     0.030 A 
HETATM    8  C13 UNK     1      19.113   1.639  29.553  1.00  0.00     0.017 A 
HETATM    9  C14 UNK     1      20.018  -0.655  30.124  1.00  0.00    -0.043 A 
HETATM   10  C15 UNK     1      20.234  -1.563  31.087  1.00  0.00     0.090 A 
HETATM   11  C16 UNK     1      20.413  -0.925  28.700  1.00  0.00     0.049 C 
HETATM   12  C17 UNK     1      19.863  -1.343  32.495  1.00  0.00     0.288 A 
ENDROOT
BRANCH   3  13
HETATM   13  N2  UNK     1      17.555   4.219  31.696  1.00  0.00    -0.333 N 
HETATM   14  H13 UNK     1      16.538   4.179  31.717  1.00  0.00     0.168 HD
BRANCH  13  15
HETATM   15  C7  UNK     1      18.091   5.431  32.045  1.00  0.00     0.174 C 
HETATM   16  S1  UNK     1      19.544   5.931  31.373  1.00  0.00    -0.041 SA
BRANCH  15  17
HETATM   17  N1  UNK     1      17.418   6.251  32.887  1.00  0.00    -0.353 N 
HETATM   18  C3  UNK     1      17.720   6.317  34.309  1.00  0.00     0.157 C 
HETATM   19  C1  UNK     1      17.820   7.769  34.776  1.00  0.00     0.136 C 
HETATM   20  O1  UNK     1      16.676   8.522  34.346  1.00  0.00    -0.378 OA
HETATM   21  C5  UNK     1      19.127   8.440  34.358  1.00  0.00     0.041 C 
HETATM   22  C2  UNK     1      16.454   8.494  32.929  1.00  0.00     0.136 C 
HETATM   23  C4  UNK     1      16.288   7.054  32.446  1.00  0.00     0.157 C 
HETATM   24  C6  UNK     1      15.201   9.312  32.643  1.00  0.00     0.041 C 
ENDBRANCH  15  17
ENDBRANCH  13  15
ENDBRANCH   3  13
TORSDOF 3
ENDMDL
MODEL 2
REMARK VINA RESULT:      -8.8      1.195      1.889
REMARK  3 active torsions:
REMARK  status: ('A' for Active; 'I' for Inactive)
REMARK    1  A    between atoms: C7_13  and  N1_5 
REMARK    2  A    between atoms: C7_13  and  N2_6 
REMARK    3  A    between atoms: C8_14  and  N2_6 
ROOT
HETATM    1  O2  UNK     1      18.946   0.108  32.993  1.00  0.00    -0.275 OA
HETATM    2  O3  UNK     1      19.585  -2.061  33.331  1.00  0.00    -0.260 OA
HETATM    3  C8  UNK     1      18.136   3.467  31.815  1.00  0.00     0.036 A 
HETATM    4  C9  UNK     1      19.222   1.104  30.780  1.00  0.00     0.004 A 
HETATM    5  C10 UNK     1      18.276   2.372  32.644  1.00  0.00     0.067 A 
HETATM    6  C11 UNK     1      18.820   1.201  32.113  1.00  0.00     0.092 A 
HETATM    7  C12 UNK     1      18.520   3.418  30.488  1.00  0.00     0.030 A 
HETATM    8  C13 UNK     1      19.064   2.237  29.969  1.00  0.00     0.017 A 
HETATM    9  C14 UNK     1      19.783  -0.167  30.305  1.00  0.00    -0.043 A 
HETATM   10  C15 UNK     1      19.891  -1.190  31.165  1.00  0.00     0.090 A 
HETATM   11  C16 UNK     1      20.225  -0.304  28.877  1.00  0.00     0.049 C 
HETATM   12  C17 UNK     1      19.471  -1.104  32.573  1.00  0.00     0.288 A 
ENDROOT
BRANCH   3  13
HETATM   13  N2  UNK     1      17.586   4.666  32.334  1.00  0.00    -0.333 N 
HETATM   14  H13 UNK     1      16.569   4.695  32.317  1.00  0.00     0.168 HD
BRANCH  13  15
HETATM   15  C7  UNK     1      18.187   5.792  32.833  1.00  0.00     0.174 C 
HETATM   16  S1  UNK     1      19.554   5.657  33.797  1.00  0.00    -0.041 SA
BRANCH  15  17
HETATM   17  N1  UNK     1      17.713   7.016  32.499  1.00  0.00    -0.353 N 
HETATM   18  C3  UNK     1      16.972   7.248  31.269  1.00  0.00     0.157 C 
HETATM   19  C1  UNK     1      15.715   8.074  31.540  1.00  0.00     0.136 C 
HETATM   20  O1  UNK     1      16.030   9.245  32.308  1.00  0.00    -0.378 OA
HETATM   21  C5  UNK     1      14.595   7.260  32.187  1.00  0.00     0.041 C 
HETATM   22  C2  UNK     1      16.694   8.970  33.550  1.00  0.00     0.136 C 
HETATM   23  C4  UNK     1      17.989   8.198  33.300  1.00  0.00     0.157 C 
HETATM   24  C6  UNK     1      16.978  10.306  34.225  1.00  0.00     0.041 C 
ENDBRANCH  15  17
ENDBRANCH  13  15
ENDBRANCH   3  13
TORSDOF 3
ENDMDL
MODEL 3
REMARK VINA RESULT:      -8.6      1.775      2.820
REMARK  3 active torsions:
REMARK  status: ('A' for Active; 'I' for Inactive)
REMARK    1  A    between atoms: C7_13  and  N1_5 
REMARK    2  A    between atoms: C7_13  and  N2_6 
REMARK    3  A    between atoms: C8_14  and  N2_6 
ROOT
HETATM    1  O2  UNK     1      19.505   1.107  29.495  1.00  0.00    -0.275 OA
HETATM    2  O3  UNK     1      20.401  -0.555  28.205  1.00  0.00    -0.260 OA
HETATM    3  C8  UNK     1      18.089   3.296  32.050  1.00  0.00     0.036 A 
HETATM    4  C9  UNK     1      18.998   0.657  31.841  1.00  0.00     0.004 A 
HETATM    5  C10 UNK     1      18.571   2.845  30.838  1.00  0.00     0.067 A 
HETATM    6  C11 UNK     1      19.021   1.527  30.750  1.00  0.00     0.092 A 
HETATM    7  C12 UNK     1      18.046   2.471  33.159  1.00  0.00     0.030 A 
HETATM    8  C13 UNK     1      18.500   1.151  33.056  1.00  0.00     0.017 A 
HETATM    9  C14 UNK     1      19.491  -0.714  31.659  1.00  0.00    -0.043 A 
HETATM   10  C15 UNK     1      19.946  -1.086  30.454  1.00  0.00     0.090 A 
HETATM   11  C16 UNK     1      19.479  -1.674  32.814  1.00  0.00     0.049 C 
HETATM   12  C17 UNK     1      19.978  -0.180  29.293  1.00  0.00     0.288 A 
ENDROOT
BRANCH   3  13
HETATM   13  N2  UNK     1      17.628   4.631  32.161  1.00  0.00    -0.333 N 
HETATM   14  H13 UNK     1      16.723   4.794  31.724  1.00  0.00     0.168 HD
BRANCH  13  15
HETATM   15  C7  UNK     1      18.197   5.737  32.738  1.00  0.00     0.174 C 
HETATM   16  S1  UNK     1      19.507   5.566  33.771  1.00  0.00    -0.041 SA
BRANCH  15  17
HETATM   17  N1  UNK     1      17.739   6.973  32.425  1.00  0.00    -0.353 N 
HETATM   18  C3  UNK     1      16.959   7.227  31.223  1.00  0.00     0.157 C 
HETATM   19  C1  UNK     1      15.731   8.081  31.543  1.00  0.00     0.136 C 
HETATM   20  O1  UNK     1      16.101   9.241  32.303  1.00  0.00    -0.378 OA
HETATM   21  C5  UNK     1      14.618   7.289  32.227  1.00  0.00     0.041 C 
HETATM   22  C2  UNK     1      16.803   8.945  33.520  1.00  0.00     0.136 C 
HETATM   23  C4  UNK     1      18.070   8.145  33.220  1.00  0.00     0.157 C 
HETATM   24  C6  UNK     1      17.142  10.271  34.189  1.00  0.00     0.041 C 
ENDBRANCH  15  17
ENDBRANCH  13  15
ENDBRANCH   3  13
TORSDOF 3
ENDMDL
MODEL 4
REMARK VINA RESULT:      -8.5      1.395      2.123
REMARK  3 active torsions:
REMARK  status: ('A' for Active; 'I' for Inactive)
REMARK    1  A    between atoms: C7_13  and  N1_5 
REMARK    2  A    between atoms: C7_13  and  N2_6 
REMARK    3  A    between atoms: C8_14  and  N2_6 
ROOT
HETATM    1  O2  UNK     1      19.636   0.853  29.306  1.00  0.00    -0.275 OA
HETATM    2  O3  UNK     1      20.618  -0.812  28.085  1.00  0.00    -0.260 OA
HETATM    3  C8  UNK     1      18.103   3.068  31.769  1.00  0.00     0.036 A 
HETATM    4  C9  UNK     1      19.144   0.472  31.667  1.00  0.00     0.004 A 
HETATM    5  C10 UNK     1      18.612   2.594  30.577  1.00  0.00     0.067 A 
HETATM    6  C11 UNK     1      19.127   1.297  30.542  1.00  0.00     0.092 A 
HETATM    7  C12 UNK     1      18.099   2.287  32.910  1.00  0.00     0.030 A 
HETATM    8  C13 UNK     1      18.618   0.988  32.860  1.00  0.00     0.017 A 
HETATM    9  C14 UNK     1      19.705  -0.879  31.540  1.00  0.00    -0.043 A 
HETATM   10  C15 UNK     1      20.183  -1.275  30.352  1.00  0.00     0.090 A 
HETATM   11  C16 UNK     1      19.737  -1.792  32.733  1.00  0.00     0.049 C 
HETATM   12  C17 UNK     1      20.173  -0.416  29.156  1.00  0.00     0.288 A 
ENDROOT
BRANCH   3  13
HETATM   13  N2  UNK     1      17.576   4.382  31.827  1.00  0.00    -0.333 N 
HETATM   14  H13 UNK     1      16.601   4.448  31.541  1.00  0.00     0.168 HD
BRANCH  13  15
HETATM   15  C7  UNK     1      18.155   5.573  32.181  1.00  0.00     0.174 C 
HETATM   16  S1  UNK     1      19.634   6.015  31.524  1.00  0.00    -0.041 SA
BRANCH  15  17
HETATM   17  N1  UNK     1      17.505   6.418  33.016  1.00  0.00    -0.353 N 
HETATM   18  C3  UNK     1      17.889   6.575  34.411  1.00  0.00     0.157 C 
HETATM   19  C1  UNK     1      17.967   8.054  34.790  1.00  0.00     0.136 C 
HETATM   20  O1  UNK     1      16.775   8.746  34.389  1.00  0.00    -0.378 OA
HETATM   21  C5  UNK     1      19.224   8.740  34.256  1.00  0.00     0.041 C 
HETATM   22  C2  UNK     1      16.471   8.630  32.992  1.00  0.00     0.136 C 
HETATM   23  C4  UNK     1      16.325   7.161  32.600  1.00  0.00     0.157 C 
HETATM   24  C6  UNK     1      15.177   9.392  32.738  1.00  0.00     0.041 C 
ENDBRANCH  15  17
ENDBRANCH  13  15
ENDBRANCH   3  13
TORSDOF 3
ENDMDL
MODEL 5
REMARK VINA RESULT:      -8.4      6.742      9.244
REMARK  3 active torsions:
REMARK  status: ('A' for Active; 'I' for Inactive)
REMARK    1  A    between atoms: C7_13  and  N1_5 
REMARK    2  A    between atoms: C7_13  and  N2_6 
REMARK    3  A    between atoms: C8_14  and  N2_6 
ROOT
HETATM    1  O2  UNK     1      18.855  -7.422  37.571  1.00  0.00    -0.275 OA
HETATM    2  O3  UNK     1      18.635  -9.572  38.316  1.00  0.00    -0.260 OA
HETATM    3  C8  UNK     1      19.796  -3.999  36.721  1.00  0.00     0.036 A 
HETATM    4  C9  UNK     1      20.841  -6.141  38.188  1.00  0.00     0.004 A 
HETATM    5  C10 UNK     1      19.081  -5.178  36.790  1.00  0.00     0.067 A 
HETATM    6  C11 UNK     1      19.616  -6.237  37.526  1.00  0.00     0.092 A 
HETATM    7  C12 UNK     1      21.013  -3.857  37.360  1.00  0.00     0.030 A 
HETATM    8  C13 UNK     1      21.537  -4.928  38.094  1.00  0.00     0.017 A 
HETATM    9  C14 UNK     1      21.328  -7.305  38.938  1.00  0.00    -0.043 A 
HETATM   10  C15 UNK     1      20.583  -8.420  38.964  1.00  0.00     0.090 A 
HETATM   11  C16 UNK     1      22.643  -7.234  39.661  1.00  0.00     0.049 C 
HETATM   12  C17 UNK     1      19.290  -8.537  38.271  1.00  0.00     0.288 A 
ENDROOT
BRANCH   3  13
HETATM   13  N2  UNK     1      19.271  -2.911  35.979  1.00  0.00    -0.333 N 
HETATM   14  H13 UNK     1      19.578  -2.887  35.009  1.00  0.00     0.168 HD
BRANCH  13  15
HETATM   15  C7  UNK     1      18.442  -1.884  36.348  1.00  0.00     0.174 C 
HETATM   16  S1  UNK     1      18.305  -1.454  37.964  1.00  0.00    -0.041 SA
BRANCH  15  17
HETATM   17  N1  UNK     1      17.781  -1.176  35.402  1.00  0.00    -0.353 N 
HETATM   18  C3  UNK     1      16.347  -1.311  35.197  1.00  0.00     0.157 C 
HETATM   19  C1  UNK     1      15.683   0.061  35.084  1.00  0.00     0.136 C 
HETATM   20  O1  UNK     1      16.373   0.885  34.133  1.00  0.00    -0.378 OA
HETATM   21  C5  UNK     1      15.532   0.762  36.434  1.00  0.00     0.041 C 
HETATM   22  C2  UNK     1      17.770   1.056  34.411  1.00  0.00     0.136 C 
HETATM   23  C4  UNK     1      18.471  -0.301  34.466  1.00  0.00     0.157 C 
HETATM   24  C6  UNK     1      18.356   1.926  33.307  1.00  0.00     0.041 C 
ENDBRANCH  15  17
ENDBRANCH  13  15
ENDBRANCH   3  13
TORSDOF 3
ENDMDL
MODEL 6
REMARK VINA RESULT:      -8.4      7.300     11.895
REMARK  3 active torsions:
REMARK  status: ('A' for Active; 'I' for Inactive)
REMARK    1  A    between atoms: C7_13  and  N1_5 
REMARK    2  A    between atoms: C7_13  and  N2_6 
REMARK    3  A    between atoms: C8_14  and  N2_6 
ROOT
HETATM    1  O2  UNK     1      19.030  -0.616  34.042  1.00  0.00    -0.275 OA
HETATM    2  O3  UNK     1      18.293   1.208  32.877  1.00  0.00    -0.260 OA
HETATM    3  C8  UNK     1      19.881  -3.246  36.427  1.00  0.00     0.036 A 
HETATM    4  C9  UNK     1      18.456  -0.836  36.406  1.00  0.00     0.004 A 
HETATM    5  C10 UNK     1      19.801  -2.522  35.254  1.00  0.00     0.067 A 
HETATM    6  C11 UNK     1      19.087  -1.323  35.260  1.00  0.00     0.092 A 
HETATM    7  C12 UNK     1      19.272  -2.803  37.587  1.00  0.00     0.030 A 
HETATM    8  C13 UNK     1      18.560  -1.598  37.578  1.00  0.00     0.017 A 
HETATM    9  C14 UNK     1      17.726   0.435  36.321  1.00  0.00    -0.043 A 
HETATM   10  C15 UNK     1      17.689   1.086  35.150  1.00  0.00     0.090 A 
HETATM   11  C16 UNK     1      17.038   0.986  37.537  1.00  0.00     0.049 C 
HETATM   12  C17 UNK     1      18.348   0.586  33.932  1.00  0.00     0.288 A 
ENDROOT
BRANCH   3  13
HETATM   13  N2  UNK     1      20.600  -4.466  36.444  1.00  0.00    -0.333 N 
HETATM   14  H13 UNK     1      21.610  -4.350  36.483  1.00  0.00     0.168 HD
BRANCH  13  15
HETATM   15  C7  UNK     1      20.171  -5.767  36.397  1.00  0.00     0.174 C 
HETATM   16  S1  UNK     1      19.870  -6.500  34.918  1.00  0.00    -0.041 SA
BRANCH  15  17
HETATM   17  N1  UNK     1      20.048  -6.479  37.542  1.00  0.00    -0.353 N 
HETATM   18  C3  UNK     1      18.792  -7.101  37.935  1.00  0.00     0.157 C 
HETATM   19  C1  UNK     1      19.018  -8.544  38.386  1.00  0.00     0.136 C 
HETATM   20  O1  UNK     1      20.077  -8.616  39.351  1.00  0.00    -0.378 OA
HETATM   21  C5  UNK     1      19.251  -9.503  37.219  1.00  0.00     0.041 C 
HETATM   22  C2  UNK     1      21.321  -8.060  38.900  1.00  0.00     0.136 C 
HETATM   23  C4  UNK     1      21.135  -6.597  38.502  1.00  0.00     0.157 C 
HETATM   24  C6  UNK     1      22.324  -8.191  40.038  1.00  0.00     0.041 C 
ENDBRANCH  15  17
ENDBRANCH  13  15
ENDBRANCH   3  13
TORSDOF 3
ENDMDL
MODEL 7
REMARK VINA RESULT:      -8.3      6.682      9.237
REMARK  3 active torsions:
REMARK  status: ('A' for Active; 'I' for Inactive)
REMARK    1  A    between atoms: C7_13  and  N1_5 
REMARK    2  A    between atoms: C7_13  and  N2_6 
REMARK    3  A    between atoms: C8_14  and  N2_6 
ROOT
HETATM    1  O2  UNK     1      20.801  -7.978  35.022  1.00  0.00    -0.275 OA
HETATM    2  O3  UNK     1      21.635 -10.028  34.445  1.00  0.00    -0.260 OA
HETATM    3  C8  UNK     1      19.821  -4.795  36.517  1.00  0.00     0.036 A 
HETATM    4  C9  UNK     1      21.399  -7.009  37.182  1.00  0.00     0.004 A 
HETATM    5  C10 UNK     1      19.928  -5.839  35.619  1.00  0.00     0.067 A 
HETATM    6  C11 UNK     1      20.719  -6.936  35.966  1.00  0.00     0.092 A 
HETATM    7  C12 UNK     1      20.477  -4.824  37.734  1.00  0.00     0.030 A 
HETATM    8  C13 UNK     1      21.266  -5.931  38.068  1.00  0.00     0.017 A 
HETATM    9  C14 UNK     1      22.209  -8.202  37.465  1.00  0.00    -0.043 A 
HETATM   10  C15 UNK     1      22.269  -9.178  36.548  1.00  0.00     0.090 A 
HETATM   11  C16 UNK     1      22.953  -8.311  38.765  1.00  0.00     0.049 C 
HETATM   12  C17 UNK     1      21.558  -9.115  35.260  1.00  0.00     0.288 A 
ENDROOT
BRANCH   3  13
HETATM   13  N2  UNK     1      19.025  -3.672  36.185  1.00  0.00    -0.333 N 
HETATM   14  H13 UNK     1      18.024  -3.856  36.201  1.00  0.00     0.168 HD
BRANCH  13  15
HETATM   15  C7  UNK     1      19.370  -2.393  35.831  1.00  0.00     0.174 C 
HETATM   16  S1  UNK     1      20.986  -1.981  35.645  1.00  0.00    -0.041 SA
BRANCH  15  17
HETATM   17  N1  UNK     1      18.404  -1.480  35.572  1.00  0.00    -0.353 N 
HETATM   18  C3  UNK     1      17.177  -1.411  36.350  1.00  0.00     0.157 C 
HETATM   19  C1  UNK     1      16.866   0.032  36.747  1.00  0.00     0.136 C 
HETATM   20  O1  UNK     1      16.929   0.899  35.605  1.00  0.00    -0.378 OA
HETATM   21  C5  UNK     1      17.745   0.539  37.890  1.00  0.00     0.041 C 
HETATM   22  C2  UNK     1      18.182   0.859  34.907  1.00  0.00     0.136 C 
HETATM   23  C4  UNK     1      18.487  -0.565  34.444  1.00  0.00     0.157 C 
HETATM   24  C6  UNK     1      18.078   1.807  33.719  1.00  0.00     0.041 C 
ENDBRANCH  15  17
ENDBRANCH  13  15
ENDBRANCH   3  13
TORSDOF 3
ENDMDL
MODEL 8
REMARK VINA RESULT:      -7.9      3.150      8.664
REMARK  3 active torsions:
REMARK  status: ('A' for Active; 'I' for Inactive)
REMARK    1  A    between atoms: C7_13  and  N1_5 
REMARK    2  A    between atoms: C7_13  and  N2_6 
REMARK    3  A    between atoms: C8_14  and  N2_6 
ROOT
HETATM    1  O2  UNK     1      18.582  10.488  33.666  1.00  0.00    -0.275 OA
HETATM    2  O3  UNK     1      18.509  12.764  33.456  1.00  0.00    -0.260 OA
HETATM    3  C8  UNK     1      18.061   6.919  34.230  1.00  0.00     0.036 A 
HETATM    4  C9  UNK     1      16.624   9.304  34.519  1.00  0.00     0.004 A 
HETATM    5  C10 UNK     1      18.662   8.113  33.882  1.00  0.00     0.067 A 
HETATM    6  C11 UNK     1      17.932   9.293  34.032  1.00  0.00     0.092 A 
HETATM    7  C12 UNK     1      16.767   6.881  34.716  1.00  0.00     0.030 A 
HETATM    8  C13 UNK     1      16.047   8.073  34.862  1.00  0.00     0.017 A 
HETATM    9  C14 UNK     1      15.930  10.592  34.644  1.00  0.00    -0.043 A 
HETATM   10  C15 UNK     1      16.573  11.713  34.288  1.00  0.00     0.090 A 
HETATM   11  C16 UNK     1      14.522  10.637  35.164  1.00  0.00     0.049 C 
HETATM   12  C17 UNK     1      17.952  11.718  33.772  1.00  0.00     0.288 A 
ENDROOT
BRANCH   3  13
HETATM   13  N2  UNK     1      18.783   5.709  34.086  1.00  0.00    -0.333 N 
HETATM   14  H13 UNK     1      19.701   5.721  34.527  1.00  0.00     0.168 HD
BRANCH  13  15
HETATM   15  C7  UNK     1      18.467   4.541  33.442  1.00  0.00     0.174 C 
HETATM   16  S1  UNK     1      18.289   3.121  34.318  1.00  0.00    -0.041 SA
BRANCH  15  17
HETATM   17  N1  UNK     1      18.240   4.545  32.107  1.00  0.00    -0.353 N 
HETATM   18  C3  UNK     1      18.149   5.780  31.342  1.00  0.00     0.157 C 
HETATM   19  C1  UNK     1      18.983   5.690  30.064  1.00  0.00     0.136 C 
HETATM   20  O1  UNK     1      18.682   4.486  29.343  1.00  0.00    -0.378 OA
HETATM   21  C5  UNK     1      20.482   5.834  30.321  1.00  0.00     0.041 C 
HETATM   22  C2  UNK     1      18.856   3.285  30.108  1.00  0.00     0.136 C 
HETATM   23  C4  UNK     1      17.983   3.323  31.361  1.00  0.00     0.157 C 
HETATM   24  C6  UNK     1      18.476   2.111  29.215  1.00  0.00     0.041 C 
ENDBRANCH  15  17
ENDBRANCH  13  15
ENDBRANCH   3  13
TORSDOF 3
ENDMDL
MODEL 9
REMARK VINA RESULT:      -7.9     12.677     15.305
REMARK  3 active torsions:
REMARK  status: ('A' for Active; 'I' for Inactive)
REMARK    1  A    between atoms: C7_13  and  N1_5 
REMARK    2  A    between atoms: C7_13  and  N2_6 
REMARK    3  A    between atoms: C8_14  and  N2_6 
ROOT
HETATM    1  O2  UNK     1      27.958  -5.436  39.368  1.00  0.00    -0.275 OA
HETATM    2  O3  UNK     1      29.606  -3.903  39.771  1.00  0.00    -0.260 OA
HETATM    3  C8  UNK     1      25.733  -8.093  38.222  1.00  0.00     0.036 A 
HETATM    4  C9  UNK     1      28.230  -7.030  37.537  1.00  0.00     0.004 A 
HETATM    5  C10 UNK     1      26.236  -7.035  38.952  1.00  0.00     0.067 A 
HETATM    6  C11 UNK     1      27.482  -6.515  38.598  1.00  0.00     0.092 A 
HETATM    7  C12 UNK     1      26.438  -8.636  37.163  1.00  0.00     0.030 A 
HETATM    8  C13 UNK     1      27.687  -8.104  36.819  1.00  0.00     0.017 A 
HETATM    9  C14 UNK     1      29.532  -6.422  37.235  1.00  0.00    -0.043 A 
HETATM   10  C15 UNK     1      29.960  -5.396  37.984  1.00  0.00     0.090 A 
HETATM   11  C16 UNK     1      30.361  -6.952  36.100  1.00  0.00     0.049 C 
HETATM   12  C17 UNK     1      29.184  -4.843  39.106  1.00  0.00     0.288 A 
ENDROOT
BRANCH   3  13
HETATM   13  N2  UNK     1      24.470  -8.636  38.564  1.00  0.00    -0.333 N 
HETATM   14  H13 UNK     1      24.515  -9.579  38.943  1.00  0.00     0.168 HD
BRANCH  13  15
HETATM   15  C7  UNK     1      23.206  -8.117  38.456  1.00  0.00     0.174 C 
HETATM   16  S1  UNK     1      22.582  -7.161  39.685  1.00  0.00    -0.041 SA
BRANCH  15  17
HETATM   17  N1  UNK     1      22.484  -8.327  37.329  1.00  0.00    -0.353 N 
HETATM   18  C3  UNK     1      22.691  -9.493  36.484  1.00  0.00     0.157 C 
HETATM   19  C1  UNK     1      21.355 -10.139  36.114  1.00  0.00     0.136 C 
HETATM   20  O1  UNK     1      20.438  -9.158  35.608  1.00  0.00    -0.378 OA
HETATM   21  C5  UNK     1      20.745 -10.944  37.260  1.00  0.00     0.041 C 
HETATM   22  C2  UNK     1      20.202  -8.060  36.502  1.00  0.00     0.136 C 
HETATM   23  C4  UNK     1      21.516  -7.358  36.838  1.00  0.00     0.157 C 
HETATM   24  C6  UNK     1      19.235  -7.105  35.813  1.00  0.00     0.041 C 
ENDBRANCH  15  17
ENDBRANCH  13  15
ENDBRANCH   3  13
TORSDOF 3
ENDMDL
MODEL 10
REMARK VINA RESULT:      -7.8     23.191     24.624
REMARK  3 active torsions:
REMARK  status: ('A' for Active; 'I' for Inactive)
REMARK    1  A    between atoms: C7_13  and  N1_5 
REMARK    2  A    between atoms: C7_13  and  N2_6 
REMARK    3  A    between atoms: C8_14  and  N2_6 
ROOT
HETATM    1  O2  UNK     1      14.187   5.013   9.440  1.00  0.00    -0.275 OA
HETATM    2  O3  UNK     1      16.000   3.682   9.850  1.00  0.00    -0.260 OA
HETATM    3  C8  UNK     1      11.729   7.652   8.874  1.00  0.00     0.036 A 
HETATM    4  C9  UNK     1      14.454   7.440   9.475  1.00  0.00     0.004 A 
HETATM    5  C10 UNK     1      12.292   6.399   9.010  1.00  0.00     0.067 A 
HETATM    6  C11 UNK     1      13.652   6.310   9.310  1.00  0.00     0.092 A 
HETATM    7  C12 UNK     1      12.483   8.800   9.029  1.00  0.00     0.030 A 
HETATM    8  C13 UNK     1      13.847   8.696   9.330  1.00  0.00     0.017 A 
HETATM    9  C14 UNK     1      15.876   7.254   9.789  1.00  0.00    -0.043 A 
HETATM   10  C15 UNK     1      16.358   6.009   9.907  1.00  0.00     0.090 A 
HETATM   11  C16 UNK     1      16.766   8.450   9.974  1.00  0.00     0.049 C 
HETATM   12  C17 UNK     1      15.525   4.807   9.735  1.00  0.00     0.288 A 
ENDROOT
BRANCH   3  13
HETATM   13  N2  UNK     1      10.350   7.765   8.569  1.00  0.00    -0.333 N 
HETATM   14  H13 UNK     1       9.885   8.539   9.039  1.00  0.00     0.168 HD
BRANCH  13  15
HETATM   15  C7  UNK     1       9.537   7.003   7.770  1.00  0.00     0.174 C 
HETATM   16  S1  UNK     1      10.066   6.518   6.254  1.00  0.00    -0.041 SA
BRANCH  15  17
HETATM   17  N1  UNK     1       8.330   6.593   8.229  1.00  0.00    -0.353 N 
HETATM   18  C3  UNK     1       7.884   5.214   8.104  1.00  0.00     0.157 C 
HETATM   19  C1  UNK     1       7.301   4.710   9.424  1.00  0.00     0.136 C 
HETATM   20  O1  UNK     1       6.331   5.635   9.938  1.00  0.00    -0.378 OA
HETATM   21  C5  UNK     1       8.373   4.381  10.462  1.00  0.00     0.041 C 
HETATM   22  C2  UNK     1       6.830   6.968  10.119  1.00  0.00     0.136 C 
HETATM   23  C4  UNK     1       7.362   7.519   8.797  1.00  0.00     0.157 C 
HETATM   24  C6  UNK     1       5.682   7.822  10.641  1.00  0.00     0.041 C 
ENDBRANCH  15  17
ENDBRANCH  13  15
ENDBRANCH   3  13
TORSDOF 3
ENDMDL
