MODEL 1
REMARK VINA RESULT:      -8.6      0.000      0.000
REMARK  4 active torsions:
REMARK  status: ('A' for Active; 'I' for Inactive)
REMARK    1  A    between atoms: C8_14  and  O2_2 
REMARK    2  A    between atoms: C9_15  and  O3_3 
REMARK    3  A    between atoms: C1_7  and  N1_6 
REMARK       I    between atoms: C7_13  and  N1_6 
REMARK    4  A    between atoms: C3_9  and  C7_13 
ROOT
HETATM    1  O4  UNK     1      17.595   1.598  29.856  1.00  0.00    -0.267 OA
HETATM    2  N1  UNK     1      19.239   2.583  31.217  1.00  0.00    -0.323 N 
HETATM    3  C7  UNK     1      18.625   1.536  30.518  1.00  0.00     0.261 C 
HETATM    4  H2  UNK     1      20.096   2.357  31.718  1.00  0.00     0.169 HD
ENDROOT
BRANCH   2   5
HETATM    5  C1  UNK     1      18.822   3.912  31.315  1.00  0.00     0.035 A 
HETATM    6  C4  UNK     1      18.162   4.351  32.466  1.00  0.00     0.043 A 
HETATM    7  C2  UNK     1      17.743   5.680  32.567  1.00  0.00     0.000 A 
HETATM    8  C11 UNK     1      17.054   6.189  33.740  1.00  0.00     0.020 A 
HETATM    9  C5  UNK     1      17.997   6.546  31.506  1.00  0.00     0.089 A 
HETATM   10  C15 UNK     1      16.673   7.468  33.792  1.00  0.00     0.083 A 
HETATM   11  C16 UNK     1      16.928   8.405  32.682  1.00  0.00     0.288 A 
HETATM   12  O1  UNK     1      17.590   7.895  31.570  1.00  0.00    -0.275 OA
HETATM   13  O5  UNK     1      16.572   9.577  32.745  1.00  0.00    -0.260 OA
HETATM   14  C10 UNK     1      18.654   6.122  30.353  1.00  0.00     0.040 A 
HETATM   15  C6  UNK     1      19.067   4.796  30.261  1.00  0.00     0.032 A 
ENDBRANCH   2   5
BRANCH   3  16
HETATM   16  C3  UNK     1      19.300   0.216  30.627  1.00  0.00     0.098 A 
HETATM   17  C8  UNK     1      19.456  -0.355  31.876  1.00  0.00     0.086 A 
HETATM   18  C12 UNK     1      20.088  -1.594  31.978  1.00  0.00     0.038 A 
HETATM   19  C14 UNK     1      20.551  -2.238  30.831  1.00  0.00     0.005 A 
HETATM   20  C13 UNK     1      20.380  -1.643  29.581  1.00  0.00     0.038 A 
HETATM   21  C9  UNK     1      19.749  -0.403  29.478  1.00  0.00     0.086 A 
BRANCH  17  22
HETATM   22  O2  UNK     1      19.011   0.258  33.010  1.00  0.00    -0.355 OA
HETATM   23  C17 UNK     1      18.257  -0.537  33.922  1.00  0.00     0.210 C 
ENDBRANCH  17  22
BRANCH  21  24
HETATM   24  O3  UNK     1      19.593   0.159  28.247  1.00  0.00    -0.355 OA
HETATM   25  C18 UNK     1      18.721  -0.506  27.336  1.00  0.00     0.210 C 
ENDBRANCH  21  24
ENDBRANCH   3  16
TORSDOF 4
ENDMDL
MODEL 2
REMARK VINA RESULT:      -8.6      0.026      2.554
REMARK  4 active torsions:
REMARK  status: ('A' for Active; 'I' for Inactive)
REMARK    1  A    between atoms: C8_14  and  O2_2 
REMARK    2  A    between atoms: C9_15  and  O3_3 
REMARK    3  A    between atoms: C1_7  and  N1_6 
REMARK       I    between atoms: C7_13  and  N1_6 
REMARK    4  A    between atoms: C3_9  and  C7_13 
ROOT
HETATM    1  O4  UNK     1      17.624   1.602  29.804  1.00  0.00    -0.267 OA
HETATM    2  N1  UNK     1      19.229   2.570  31.222  1.00  0.00    -0.323 N 
HETATM    3  C7  UNK     1      18.633   1.530  30.497  1.00  0.00     0.261 C 
HETATM    4  H2  UNK     1      20.068   2.336  31.749  1.00  0.00     0.169 HD
ENDROOT
BRANCH   2   5
HETATM    5  C1  UNK     1      18.816   3.900  31.316  1.00  0.00     0.035 A 
HETATM    6  C4  UNK     1      18.170   4.348  32.471  1.00  0.00     0.043 A 
HETATM    7  C2  UNK     1      17.755   5.679  32.568  1.00  0.00     0.000 A 
HETATM    8  C11 UNK     1      17.081   6.198  33.745  1.00  0.00     0.020 A 
HETATM    9  C5  UNK     1      17.998   6.538  31.498  1.00  0.00     0.089 A 
HETATM   10  C15 UNK     1      16.703   7.477  33.793  1.00  0.00     0.083 A 
HETATM   11  C16 UNK     1      16.947   8.406  32.674  1.00  0.00     0.288 A 
HETATM   12  O1  UNK     1      17.595   7.887  31.557  1.00  0.00    -0.275 OA
HETATM   13  O5  UNK     1      16.594   9.579  32.732  1.00  0.00    -0.260 OA
HETATM   14  C10 UNK     1      18.640   6.104  30.340  1.00  0.00     0.040 A 
HETATM   15  C6  UNK     1      19.051   4.776  30.253  1.00  0.00     0.032 A 
ENDBRANCH   2   5
BRANCH   3  16
HETATM   16  C3  UNK     1      19.297   0.206  30.619  1.00  0.00     0.098 A 
HETATM   17  C8  UNK     1      19.753  -0.422  29.477  1.00  0.00     0.086 A 
HETATM   18  C12 UNK     1      20.376  -1.665  29.591  1.00  0.00     0.038 A 
HETATM   19  C14 UNK     1      20.533  -2.254  30.846  1.00  0.00     0.005 A 
HETATM   20  C13 UNK     1      20.065  -1.599  31.986  1.00  0.00     0.038 A 
HETATM   21  C9  UNK     1      19.441  -0.357  31.871  1.00  0.00     0.086 A 
BRANCH  17  22
HETATM   22  O2  UNK     1      19.611   0.136  28.241  1.00  0.00    -0.355 OA
HETATM   23  C17 UNK     1      18.739  -0.526  27.328  1.00  0.00     0.210 C 
ENDBRANCH  17  22
BRANCH  21  24
HETATM   24  O3  UNK     1      18.992   0.264  32.998  1.00  0.00    -0.355 OA
HETATM   25  C18 UNK     1      18.228  -0.522  33.911  1.00  0.00     0.210 C 
ENDBRANCH  21  24
ENDBRANCH   3  16
TORSDOF 4
ENDMDL
MODEL 3
REMARK VINA RESULT:      -8.2      6.692      9.602
REMARK  4 active torsions:
REMARK  status: ('A' for Active; 'I' for Inactive)
REMARK    1  A    between atoms: C8_14  and  O2_2 
REMARK    2  A    between atoms: C9_15  and  O3_3 
REMARK    3  A    between atoms: C1_7  and  N1_6 
REMARK       I    between atoms: C7_13  and  N1_6 
REMARK    4  A    between atoms: C3_9  and  C7_13 
ROOT
HETATM    1  O4  UNK     1      21.368  -5.433  36.833  1.00  0.00    -0.267 OA
HETATM    2  N1  UNK     1      19.103  -4.807  36.886  1.00  0.00    -0.323 N 
HETATM    3  C7  UNK     1      20.185  -5.682  37.042  1.00  0.00     0.261 C 
HETATM    4  H2  UNK     1      18.180  -5.178  37.104  1.00  0.00     0.169 HD
ENDROOT
BRANCH   2   5
HETATM    5  C1  UNK     1      19.126  -3.476  36.465  1.00  0.00     0.035 A 
HETATM    6  C4  UNK     1      18.404  -2.509  37.171  1.00  0.00     0.043 A 
HETATM    7  C2  UNK     1      18.426  -1.177  36.751  1.00  0.00     0.000 A 
HETATM    8  C11 UNK     1      17.695  -0.133  37.448  1.00  0.00     0.020 A 
HETATM    9  C5  UNK     1      19.175  -0.838  35.628  1.00  0.00     0.089 A 
HETATM   10  C15 UNK     1      17.745   1.128  37.011  1.00  0.00     0.083 A 
HETATM   11  C16 UNK     1      18.530   1.512  35.823  1.00  0.00     0.288 A 
HETATM   12  O1  UNK     1      19.222   0.496  35.173  1.00  0.00    -0.275 OA
HETATM   13  O5  UNK     1      18.566   2.674  35.434  1.00  0.00    -0.260 OA
HETATM   14  C10 UNK     1      19.899  -1.791  34.914  1.00  0.00     0.040 A 
HETATM   15  C6  UNK     1      19.872  -3.117  35.339  1.00  0.00     0.032 A 
ENDBRANCH   2   5
BRANCH   3  16
HETATM   16  C3  UNK     1      19.834  -7.057  37.483  1.00  0.00     0.098 A 
HETATM   17  C8  UNK     1      19.051  -7.844  36.661  1.00  0.00     0.086 A 
HETATM   18  C12 UNK     1      18.722  -9.135  37.074  1.00  0.00     0.038 A 
HETATM   19  C14 UNK     1      19.183  -9.614  38.301  1.00  0.00     0.005 A 
HETATM   20  C13 UNK     1      19.973  -8.800  39.113  1.00  0.00     0.038 A 
HETATM   21  C9  UNK     1      20.301  -7.509  38.700  1.00  0.00     0.086 A 
BRANCH  17  22
HETATM   22  O2  UNK     1      18.590  -7.397  35.458  1.00  0.00    -0.355 OA
HETATM   23  C17 UNK     1      17.188  -7.493  35.225  1.00  0.00     0.210 C 
ENDBRANCH  17  22
BRANCH  21  24
HETATM   24  O3  UNK     1      21.074  -6.732  39.510  1.00  0.00    -0.355 OA
HETATM   25  C18 UNK     1      22.408  -7.176  39.754  1.00  0.00     0.210 C 
ENDBRANCH  21  24
ENDBRANCH   3  16
TORSDOF 4
ENDMDL
MODEL 4
REMARK VINA RESULT:      -8.2      6.712      9.389
REMARK  4 active torsions:
REMARK  status: ('A' for Active; 'I' for Inactive)
REMARK    1  A    between atoms: C8_14  and  O2_2 
REMARK    2  A    between atoms: C9_15  and  O3_3 
REMARK    3  A    between atoms: C1_7  and  N1_6 
REMARK       I    between atoms: C7_13  and  N1_6 
REMARK    4  A    between atoms: C3_9  and  C7_13 
ROOT
HETATM    1  O4  UNK     1      21.390  -5.461  36.846  1.00  0.00    -0.267 OA
HETATM    2  N1  UNK     1      19.129  -4.821  36.899  1.00  0.00    -0.323 N 
HETATM    3  C7  UNK     1      20.206  -5.703  37.056  1.00  0.00     0.261 C 
HETATM    4  H2  UNK     1      18.204  -5.187  37.118  1.00  0.00     0.169 HD
ENDROOT
BRANCH   2   5
HETATM    5  C1  UNK     1      19.160  -3.492  36.475  1.00  0.00     0.035 A 
HETATM    6  C4  UNK     1      18.453  -2.517  37.185  1.00  0.00     0.043 A 
HETATM    7  C2  UNK     1      18.483  -1.186  36.762  1.00  0.00     0.000 A 
HETATM    8  C11 UNK     1      17.768  -0.134  37.463  1.00  0.00     0.020 A 
HETATM    9  C5  UNK     1      19.224  -0.857  35.630  1.00  0.00     0.089 A 
HETATM   10  C15 UNK     1      17.825   1.125  37.023  1.00  0.00     0.083 A 
HETATM   11  C16 UNK     1      18.602   1.500  35.827  1.00  0.00     0.288 A 
HETATM   12  O1  UNK     1      19.279   0.476  35.172  1.00  0.00    -0.275 OA
HETATM   13  O5  UNK     1      18.645   2.661  35.434  1.00  0.00    -0.260 OA
HETATM   14  C10 UNK     1      19.933  -1.818  34.912  1.00  0.00     0.040 A 
HETATM   15  C6  UNK     1      19.898  -3.142  35.341  1.00  0.00     0.032 A 
ENDBRANCH   2   5
BRANCH   3  16
HETATM   16  C3  UNK     1      19.847  -7.074  37.501  1.00  0.00     0.098 A 
HETATM   17  C8  UNK     1      20.319  -7.530  38.717  1.00  0.00     0.086 A 
HETATM   18  C12 UNK     1      19.981  -8.817  39.134  1.00  0.00     0.038 A 
HETATM   19  C14 UNK     1      19.178  -9.624  38.328  1.00  0.00     0.005 A 
HETATM   20  C13 UNK     1      18.712  -9.142  37.104  1.00  0.00     0.038 A 
HETATM   21  C9  UNK     1      19.050  -7.855  36.686  1.00  0.00     0.086 A 
BRANCH  17  22
HETATM   22  O2  UNK     1      21.104  -6.758  39.520  1.00  0.00    -0.355 OA
HETATM   23  C17 UNK     1      22.435  -7.212  39.754  1.00  0.00     0.210 C 
ENDBRANCH  17  22
BRANCH  21  24
HETATM   24  O3  UNK     1      18.584  -7.405  35.488  1.00  0.00    -0.355 OA
HETATM   25  C18 UNK     1      17.182  -7.517  35.254  1.00  0.00     0.210 C 
ENDBRANCH  21  24
ENDBRANCH   3  16
TORSDOF 4
ENDMDL
MODEL 5
REMARK VINA RESULT:      -8.1      1.296      1.695
REMARK  4 active torsions:
REMARK  status: ('A' for Active; 'I' for Inactive)
REMARK    1  A    between atoms: C8_14  and  O2_2 
REMARK    2  A    between atoms: C9_15  and  O3_3 
REMARK    3  A    between atoms: C1_7  and  N1_6 
REMARK       I    between atoms: C7_13  and  N1_6 
REMARK    4  A    between atoms: C3_9  and  C7_13 
ROOT
HETATM    1  O4  UNK     1      17.415   2.436  30.739  1.00  0.00    -0.267 OA
HETATM    2  N1  UNK     1      18.557   3.285  32.610  1.00  0.00    -0.323 N 
HETATM    3  C7  UNK     1      18.141   2.289  31.717  1.00  0.00     0.261 C 
HETATM    4  H2  UNK     1      19.162   2.989  33.373  1.00  0.00     0.169 HD
ENDROOT
BRANCH   2   5
HETATM    5  C1  UNK     1      18.244   4.645  32.588  1.00  0.00     0.035 A 
HETATM    6  C4  UNK     1      17.695   5.252  33.721  1.00  0.00     0.043 A 
HETATM    7  C2  UNK     1      17.381   6.613  33.702  1.00  0.00     0.000 A 
HETATM    8  C11 UNK     1      16.809   7.293  34.851  1.00  0.00     0.020 A 
HETATM    9  C5  UNK     1      17.625   7.342  32.541  1.00  0.00     0.089 A 
HETATM   10  C15 UNK     1      16.525   8.596  34.787  1.00  0.00     0.083 A 
HETATM   11  C16 UNK     1      16.773   9.391  33.570  1.00  0.00     0.288 A 
HETATM   12  O1  UNK     1      17.321   8.718  32.482  1.00  0.00    -0.275 OA
HETATM   13  O5  UNK     1      16.507  10.587  33.526  1.00  0.00    -0.260 OA
HETATM   14  C10 UNK     1      18.171   6.751  31.404  1.00  0.00     0.040 A 
HETATM   15  C6  UNK     1      18.482   5.393  31.432  1.00  0.00     0.032 A 
ENDBRANCH   2   5
BRANCH   3  16
HETATM   16  C3  UNK     1      18.622   0.917  32.023  1.00  0.00     0.098 A 
HETATM   17  C8  UNK     1      18.282   0.343  33.233  1.00  0.00     0.086 A 
HETATM   18  C12 UNK     1      18.732  -0.945  33.520  1.00  0.00     0.038 A 
HETATM   19  C14 UNK     1      19.514  -1.634  32.593  1.00  0.00     0.005 A 
HETATM   20  C13 UNK     1      19.844  -1.034  31.377  1.00  0.00     0.038 A 
HETATM   21  C9  UNK     1      19.394   0.254  31.090  1.00  0.00     0.086 A 
BRANCH  17  22
HETATM   22  O2  UNK     1      17.519   0.998  34.154  1.00  0.00    -0.355 OA
HETATM   23  C17 UNK     1      18.001   1.024  35.495  1.00  0.00     0.210 C 
ENDBRANCH  17  22
BRANCH  21  24
HETATM   24  O3  UNK     1      19.727   0.821  29.897  1.00  0.00    -0.355 OA
HETATM   25  C18 UNK     1      20.102  -0.063  28.841  1.00  0.00     0.210 C 
ENDBRANCH  21  24
ENDBRANCH   3  16
TORSDOF 4
ENDMDL
MODEL 6
REMARK VINA RESULT:      -8.1      1.914      3.567
REMARK  4 active torsions:
REMARK  status: ('A' for Active; 'I' for Inactive)
REMARK    1  A    between atoms: C8_14  and  O2_2 
REMARK    2  A    between atoms: C9_15  and  O3_3 
REMARK    3  A    between atoms: C1_7  and  N1_6 
REMARK       I    between atoms: C7_13  and  N1_6 
REMARK    4  A    between atoms: C3_9  and  C7_13 
ROOT
HETATM    1  O4  UNK     1      17.467   3.005  31.036  1.00  0.00    -0.267 OA
HETATM    2  N1  UNK     1      18.535   3.687  33.016  1.00  0.00    -0.323 N 
HETATM    3  C7  UNK     1      18.114   2.764  32.050  1.00  0.00     0.261 C 
HETATM    4  H2  UNK     1      19.067   3.316  33.800  1.00  0.00     0.169 HD
ENDROOT
BRANCH   2   5
HETATM    5  C1  UNK     1      18.317   5.065  33.041  1.00  0.00     0.035 A 
HETATM    6  C4  UNK     1      19.221   5.901  33.703  1.00  0.00     0.043 A 
HETATM    7  C2  UNK     1      19.005   7.281  33.730  1.00  0.00     0.000 A 
HETATM    8  C11 UNK     1      19.912   8.195  34.402  1.00  0.00     0.020 A 
HETATM    9  C5  UNK     1      17.881   7.798  33.090  1.00  0.00     0.089 A 
HETATM   10  C15 UNK     1      19.665   9.507  34.402  1.00  0.00     0.083 A 
HETATM   11  C16 UNK     1      18.482  10.080  33.733  1.00  0.00     0.288 A 
HETATM   12  O1  UNK     1      17.628   9.186  33.096  1.00  0.00    -0.275 OA
HETATM   13  O5  UNK     1      18.269  11.287  33.741  1.00  0.00    -0.260 OA
HETATM   14  C10 UNK     1      16.971   6.977  32.427  1.00  0.00     0.040 A 
HETATM   15  C6  UNK     1      17.195   5.603  32.405  1.00  0.00     0.032 A 
ENDBRANCH   2   5
BRANCH   3  16
HETATM   16  C3  UNK     1      18.480   1.349  32.318  1.00  0.00     0.098 A 
HETATM   17  C8  UNK     1      19.195   0.650  31.365  1.00  0.00     0.086 A 
HETATM   18  C12 UNK     1      19.539  -0.678  31.617  1.00  0.00     0.038 A 
HETATM   19  C14 UNK     1      19.163  -1.280  32.817  1.00  0.00     0.005 A 
HETATM   20  C13 UNK     1      18.442  -0.553  33.766  1.00  0.00     0.038 A 
HETATM   21  C9  UNK     1      18.097   0.774  33.513  1.00  0.00     0.086 A 
BRANCH  17  22
HETATM   22  O2  UNK     1      19.573   1.219  30.185  1.00  0.00    -0.355 OA
HETATM   23  C17 UNK     1      19.450   0.420  29.011  1.00  0.00     0.210 C 
ENDBRANCH  17  22
BRANCH  21  24
HETATM   24  O3  UNK     1      17.394   1.465  34.454  1.00  0.00    -0.355 OA
HETATM   25  C18 UNK     1      17.813   1.325  35.810  1.00  0.00     0.210 C 
ENDBRANCH  21  24
ENDBRANCH   3  16
TORSDOF 4
ENDMDL
MODEL 7
REMARK VINA RESULT:      -7.9      5.576     11.019
REMARK  4 active torsions:
REMARK  status: ('A' for Active; 'I' for Inactive)
REMARK    1  A    between atoms: C8_14  and  O2_2 
REMARK    2  A    between atoms: C9_15  and  O3_3 
REMARK    3  A    between atoms: C1_7  and  N1_6 
REMARK       I    between atoms: C7_13  and  N1_6 
REMARK    4  A    between atoms: C3_9  and  C7_13 
ROOT
HETATM    1  O4  UNK     1      17.527  -2.276  36.568  1.00  0.00    -0.267 OA
HETATM    2  N1  UNK     1      19.773  -2.425  35.892  1.00  0.00    -0.323 N 
HETATM    3  C7  UNK     1      18.525  -1.805  36.034  1.00  0.00     0.261 C 
HETATM    4  H2  UNK     1      20.498  -1.889  35.419  1.00  0.00     0.169 HD
ENDROOT
BRANCH   2   5
HETATM    5  C1  UNK     1      20.155  -3.698  36.320  1.00  0.00     0.035 A 
HETATM    6  C4  UNK     1      19.869  -4.813  35.528  1.00  0.00     0.043 A 
HETATM    7  C2  UNK     1      20.248  -6.088  35.954  1.00  0.00     0.000 A 
HETATM    8  C11 UNK     1      19.977  -7.281  35.171  1.00  0.00     0.020 A 
HETATM    9  C5  UNK     1      20.911  -6.220  37.172  1.00  0.00     0.089 A 
HETATM   10  C15 UNK     1      20.359  -8.480  35.618  1.00  0.00     0.083 A 
HETATM   11  C16 UNK     1      21.062  -8.646  36.904  1.00  0.00     0.288 A 
HETATM   12  O1  UNK     1      21.311  -7.490  37.636  1.00  0.00    -0.275 OA
HETATM   13  O5  UNK     1      21.407  -9.753  37.301  1.00  0.00    -0.260 OA
HETATM   14  C10 UNK     1      21.203  -5.117  37.972  1.00  0.00     0.040 A 
HETATM   15  C6  UNK     1      20.820  -3.850  37.539  1.00  0.00     0.032 A 
ENDBRANCH   2   5
BRANCH   3  16
HETATM   16  C3  UNK     1      18.419  -0.445  35.444  1.00  0.00     0.098 A 
HETATM   17  C8  UNK     1      18.394  -0.311  34.069  1.00  0.00     0.086 A 
HETATM   18  C12 UNK     1      18.294   0.965  33.516  1.00  0.00     0.038 A 
HETATM   19  C14 UNK     1      18.220   2.083  34.348  1.00  0.00     0.005 A 
HETATM   20  C13 UNK     1      18.246   1.922  35.733  1.00  0.00     0.038 A 
HETATM   21  C9  UNK     1      18.347   0.646  36.287  1.00  0.00     0.086 A 
BRANCH  17  22
HETATM   22  O2  UNK     1      18.465  -1.389  33.238  1.00  0.00    -0.355 OA
HETATM   23  C17 UNK     1      19.310  -1.273  32.096  1.00  0.00     0.210 C 
ENDBRANCH  17  22
BRANCH  21  24
HETATM   24  O3  UNK     1      18.370   0.513  37.643  1.00  0.00    -0.355 OA
HETATM   25  C18 UNK     1      17.506   1.365  38.393  1.00  0.00     0.210 C 
ENDBRANCH  21  24
ENDBRANCH   3  16
TORSDOF 4
ENDMDL
MODEL 8
REMARK VINA RESULT:      -7.9      5.517     10.645
REMARK  4 active torsions:
REMARK  status: ('A' for Active; 'I' for Inactive)
REMARK    1  A    between atoms: C8_14  and  O2_2 
REMARK    2  A    between atoms: C9_15  and  O3_3 
REMARK    3  A    between atoms: C1_7  and  N1_6 
REMARK       I    between atoms: C7_13  and  N1_6 
REMARK    4  A    between atoms: C3_9  and  C7_13 
ROOT
HETATM    1  O4  UNK     1      17.517  -2.158  36.483  1.00  0.00    -0.267 OA
HETATM    2  N1  UNK     1      19.765  -2.334  35.820  1.00  0.00    -0.323 N 
HETATM    3  C7  UNK     1      18.520  -1.705  35.942  1.00  0.00     0.261 C 
HETATM    4  H2  UNK     1      20.495  -1.814  35.337  1.00  0.00     0.169 HD
ENDROOT
BRANCH   2   5
HETATM    5  C1  UNK     1      20.138  -3.599  36.280  1.00  0.00     0.035 A 
HETATM    6  C4  UNK     1      19.803  -4.736  35.539  1.00  0.00     0.043 A 
HETATM    7  C2  UNK     1      20.174  -6.002  35.997  1.00  0.00     0.000 A 
HETATM    8  C11 UNK     1      19.853  -7.216  35.266  1.00  0.00     0.020 A 
HETATM    9  C5  UNK     1      20.878  -6.104  37.194  1.00  0.00     0.089 A 
HETATM   10  C15 UNK     1      20.229  -8.406  35.742  1.00  0.00     0.083 A 
HETATM   11  C16 UNK     1      20.974  -8.540  37.008  1.00  0.00     0.288 A 
HETATM   12  O1  UNK     1      21.271  -7.364  37.689  1.00  0.00    -0.275 OA
HETATM   13  O5  UNK     1      21.313  -9.640  37.433  1.00  0.00    -0.260 OA
HETATM   14  C10 UNK     1      21.219  -4.979  37.943  1.00  0.00     0.040 A 
HETATM   15  C6  UNK     1      20.844  -3.721  37.479  1.00  0.00     0.032 A 
ENDBRANCH   2   5
BRANCH   3  16
HETATM   16  C3  UNK     1      18.424  -0.359  35.320  1.00  0.00     0.098 A 
HETATM   17  C8  UNK     1      18.389   0.756  36.136  1.00  0.00     0.086 A 
HETATM   18  C12 UNK     1      18.299   2.019  35.552  1.00  0.00     0.038 A 
HETATM   19  C14 UNK     1      18.246   2.144  34.164  1.00  0.00     0.005 A 
HETATM   20  C13 UNK     1      18.284   1.004  33.360  1.00  0.00     0.038 A 
HETATM   21  C9  UNK     1      18.373  -0.260  33.944  1.00  0.00     0.086 A 
BRANCH  17  22
HETATM   22  O2  UNK     1      18.440   0.656  37.495  1.00  0.00    -0.355 OA
HETATM   23  C17 UNK     1      17.440   1.353  38.233  1.00  0.00     0.210 C 
ENDBRANCH  17  22
BRANCH  21  24
HETATM   24  O3  UNK     1      18.408  -1.359  33.139  1.00  0.00    -0.355 OA
HETATM   25  C18 UNK     1      19.369  -1.360  32.085  1.00  0.00     0.210 C 
ENDBRANCH  21  24
ENDBRANCH   3  16
TORSDOF 4
ENDMDL
MODEL 9
REMARK VINA RESULT:      -7.7      2.021      8.382
REMARK  4 active torsions:
REMARK  status: ('A' for Active; 'I' for Inactive)
REMARK    1  A    between atoms: C8_14  and  O2_2 
REMARK    2  A    between atoms: C9_15  and  O3_3 
REMARK    3  A    between atoms: C1_7  and  N1_6 
REMARK       I    between atoms: C7_13  and  N1_6 
REMARK    4  A    between atoms: C3_9  and  C7_13 
ROOT
HETATM    1  O4  UNK     1      19.183   6.660  31.615  1.00  0.00    -0.267 OA
HETATM    2  N1  UNK     1      17.620   5.384  32.821  1.00  0.00    -0.323 N 
HETATM    3  C7  UNK     1      18.205   6.566  32.350  1.00  0.00     0.261 C 
HETATM    4  H2  UNK     1      16.808   5.487  33.427  1.00  0.00     0.169 HD
ENDROOT
BRANCH   2   5
HETATM    5  C1  UNK     1      18.011   4.069  32.565  1.00  0.00     0.035 A 
HETATM    6  C4  UNK     1      18.329   3.679  31.261  1.00  0.00     0.043 A 
HETATM    7  C2  UNK     1      18.720   2.363  31.001  1.00  0.00     0.000 A 
HETATM    8  C11 UNK     1      19.062   1.905  29.666  1.00  0.00     0.020 A 
HETATM    9  C5  UNK     1      18.785   1.460  32.059  1.00  0.00     0.089 A 
HETATM   10  C15 UNK     1      19.431   0.638  29.464  1.00  0.00     0.083 A 
HETATM   11  C16 UNK     1      19.507  -0.338  30.568  1.00  0.00     0.288 A 
HETATM   12  O1  UNK     1      19.176   0.124  31.838  1.00  0.00    -0.275 OA
HETATM   13  O5  UNK     1      19.848  -1.499  30.368  1.00  0.00    -0.260 OA
HETATM   14  C10 UNK     1      18.471   1.835  33.364  1.00  0.00     0.040 A 
HETATM   15  C6  UNK     1      18.082   3.148  33.614  1.00  0.00     0.032 A 
ENDBRANCH   2   5
BRANCH   3  16
HETATM   16  C3  UNK     1      17.573   7.824  32.825  1.00  0.00     0.098 A 
HETATM   17  C8  UNK     1      16.284   8.119  32.423  1.00  0.00     0.086 A 
HETATM   18  C12 UNK     1      15.690   9.299  32.869  1.00  0.00     0.038 A 
HETATM   19  C14 UNK     1      16.395  10.161  33.710  1.00  0.00     0.005 A 
HETATM   20  C13 UNK     1      17.695   9.840  34.104  1.00  0.00     0.038 A 
HETATM   21  C9  UNK     1      18.289   8.661  33.657  1.00  0.00     0.086 A 
BRANCH  17  22
HETATM   22  O2  UNK     1      15.577   7.292  31.602  1.00  0.00    -0.355 OA
HETATM   23  C17 UNK     1      14.198   7.100  31.906  1.00  0.00     0.210 C 
ENDBRANCH  17  22
BRANCH  21  24
HETATM   24  O3  UNK     1      19.559   8.368  34.054  1.00  0.00    -0.355 OA
HETATM   25  C18 UNK     1      20.370   9.458  34.490  1.00  0.00     0.210 C 
ENDBRANCH  21  24
ENDBRANCH   3  16
TORSDOF 4
ENDMDL
MODEL 10
REMARK VINA RESULT:      -7.7      2.041      8.262
REMARK  4 active torsions:
REMARK  status: ('A' for Active; 'I' for Inactive)
REMARK    1  A    between atoms: C8_14  and  O2_2 
REMARK    2  A    between atoms: C9_15  and  O3_3 
REMARK    3  A    between atoms: C1_7  and  N1_6 
REMARK       I    between atoms: C7_13  and  N1_6 
REMARK    4  A    between atoms: C3_9  and  C7_13 
ROOT
HETATM    1  O4  UNK     1      19.043   6.780  31.602  1.00  0.00    -0.267 OA
HETATM    2  N1  UNK     1      17.554   5.497  32.892  1.00  0.00    -0.323 N 
HETATM    3  C7  UNK     1      18.099   6.681  32.380  1.00  0.00     0.261 C 
HETATM    4  H2  UNK     1      16.768   5.595  33.530  1.00  0.00     0.169 HD
ENDROOT
BRANCH   2   5
HETATM    5  C1  UNK     1      17.956   4.185  32.636  1.00  0.00     0.035 A 
HETATM    6  C4  UNK     1      18.246   3.788  31.328  1.00  0.00     0.043 A 
HETATM    7  C2  UNK     1      18.647   2.475  31.069  1.00  0.00     0.000 A 
HETATM    8  C11 UNK     1      18.962   2.010  29.729  1.00  0.00     0.020 A 
HETATM    9  C5  UNK     1      18.751   1.582  32.132  1.00  0.00     0.089 A 
HETATM   10  C15 UNK     1      19.342   0.746  29.529  1.00  0.00     0.083 A 
HETATM   11  C16 UNK     1      19.458  -0.220  30.638  1.00  0.00     0.288 A 
HETATM   12  O1  UNK     1      19.153   0.248  31.912  1.00  0.00    -0.275 OA
HETATM   13  O5  UNK     1      19.809  -1.378  30.439  1.00  0.00    -0.260 OA
HETATM   14  C10 UNK     1      18.464   1.964  33.442  1.00  0.00     0.040 A 
HETATM   15  C6  UNK     1      18.065   3.274  33.690  1.00  0.00     0.032 A 
ENDBRANCH   2   5
BRANCH   3  16
HETATM   16  C3  UNK     1      17.467   7.935  32.865  1.00  0.00     0.098 A 
HETATM   17  C8  UNK     1      18.158   8.733  33.756  1.00  0.00     0.086 A 
HETATM   18  C12 UNK     1      17.565   9.911  34.210  1.00  0.00     0.038 A 
HETATM   19  C14 UNK     1      16.292  10.268  33.765  1.00  0.00     0.005 A 
HETATM   20  C13 UNK     1      15.614   9.446  32.864  1.00  0.00     0.038 A 
HETATM   21  C9  UNK     1      16.206   8.268  32.410  1.00  0.00     0.086 A 
BRANCH  17  22
HETATM   22  O2  UNK     1      19.403   8.404  34.203  1.00  0.00    -0.355 OA
HETATM   23  C17 UNK     1      20.296   9.478  34.487  1.00  0.00     0.210 C 
ENDBRANCH  17  22
BRANCH  21  24
HETATM   24  O3  UNK     1      15.525   7.482  31.531  1.00  0.00    -0.355 OA
HETATM   25  C18 UNK     1      14.231   7.034  31.929  1.00  0.00     0.210 C 
ENDBRANCH  21  24
ENDBRANCH   3  16
TORSDOF 4
ENDMDL
