MODEL 1
REMARK VINA RESULT:      -9.9      0.000      0.000
REMARK  5 active torsions:
REMARK  status: ('A' for Active; 'I' for Inactive)
REMARK    1  A    between atoms: C1_11  and  S1_1 
REMARK    2  A    between atoms: N2_9  and  S1_1 
REMARK       I    between atoms: C11_21  and  N1_8 
REMARK    3  A    between atoms: C2_12  and  N1_8 
REMARK    4  A    between atoms: C16_26  and  N2_9 
REMARK    5  A    between atoms: C11_21  and  C8_18 
ROOT
HETATM    1  C1  UNK     1      21.040  -9.420  38.316  1.00  0.00     0.075 A 
HETATM    2  C2  UNK     1      23.506  -8.165  38.395  1.00  0.00     0.035 A 
HETATM    3  C3  UNK     1      21.864  -9.429  37.191  1.00  0.00     0.027 A 
HETATM    4  C4  UNK     1      21.458  -8.778  39.482  1.00  0.00     0.027 A 
HETATM    5  C6  UNK     1      23.106  -8.797  37.231  1.00  0.00     0.031 A 
HETATM    6  C7  UNK     1      22.701  -8.145  39.521  1.00  0.00     0.031 A 
ENDROOT
BRANCH   2   7
HETATM    7  N1  UNK     1      24.768  -7.523  38.436  1.00  0.00    -0.323 N 
HETATM    8  C11 UNK     1      25.956  -8.023  38.952  1.00  0.00     0.262 C 
HETATM    9  O4  UNK     1      26.154  -9.117  39.476  1.00  0.00    -0.267 OA
HETATM   10  H5  UNK     1      24.775  -6.598  38.012  1.00  0.00     0.169 HD
BRANCH   8  11
HETATM   11  C8  UNK     1      27.063  -7.068  38.817  1.00  0.00     0.108 A 
HETATM   12  C10 UNK     1      28.287  -7.596  38.694  1.00  0.00     0.037 A 
HETATM   13  C5  UNK     1      29.448  -6.730  38.555  1.00  0.00    -0.001 A 
HETATM   14  C13 UNK     1      30.743  -7.238  38.423  1.00  0.00     0.014 A 
HETATM   15  C9  UNK     1      29.263  -5.352  38.551  1.00  0.00     0.089 A 
HETATM   16  C15 UNK     1      31.826  -6.364  38.293  1.00  0.00     0.001 A 
HETATM   17  C17 UNK     1      31.621  -4.982  38.292  1.00  0.00     0.003 A 
HETATM   18  C14 UNK     1      30.333  -4.468  38.422  1.00  0.00     0.038 A 
HETATM   19  O1  UNK     1      27.973  -4.802  38.681  1.00  0.00    -0.274 OA
HETATM   20  C12 UNK     1      26.842  -5.605  38.816  1.00  0.00     0.304 A 
HETATM   21  O5  UNK     1      25.723  -5.117  38.929  1.00  0.00    -0.259 OA
ENDBRANCH   8  11
ENDBRANCH   2   7
BRANCH   1  22
HETATM   22  S1  UNK     1      19.484 -10.210  38.266  1.00  0.00     0.247 S 
HETATM   23  O2  UNK     1      19.414 -11.020  37.057  1.00  0.00    -0.205 OA
HETATM   24  O3  UNK     1      19.263 -10.837  39.564  1.00  0.00    -0.205 OA
BRANCH  22  25
HETATM   25  N2  UNK     1      18.432  -8.860  38.088  1.00  0.00    -0.159 NA
HETATM   26  H7  UNK     1      18.109  -8.419  38.960  1.00  0.00     0.148 HD
BRANCH  25  27
HETATM   27  C16 UNK     1      18.840  -7.851  37.086  1.00  0.00     0.158 A 
HETATM   28  S2  UNK     1      19.459  -6.336  37.564  1.00  0.00    -0.068 SA
HETATM   29  C18 UNK     1      19.618  -5.927  35.906  1.00  0.00     0.072 A 
HETATM   30  C19 UNK     1      19.185  -6.979  35.126  1.00  0.00     0.126 A 
HETATM   31  N3  UNK     1      18.734  -8.091  35.809  1.00  0.00    -0.240 NA
ENDBRANCH  25  27
ENDBRANCH  22  25
ENDBRANCH   1  22
TORSDOF 5
ENDMDL
MODEL 2
REMARK VINA RESULT:      -9.7     14.256     17.361
REMARK  5 active torsions:
REMARK  status: ('A' for Active; 'I' for Inactive)
REMARK    1  A    between atoms: C1_11  and  S1_1 
REMARK    2  A    between atoms: N2_9  and  S1_1 
REMARK       I    between atoms: C11_21  and  N1_8 
REMARK    3  A    between atoms: C2_12  and  N1_8 
REMARK    4  A    between atoms: C16_26  and  N2_9 
REMARK    5  A    between atoms: C11_21  and  C8_18 
ROOT
HETATM    1  C1  UNK     1      17.118   8.237  33.232  1.00  0.00     0.075 A 
HETATM    2  C2  UNK     1      17.876   5.824  32.107  1.00  0.00     0.035 A 
HETATM    3  C3  UNK     1      16.174   7.444  32.580  1.00  0.00     0.027 A 
HETATM    4  C4  UNK     1      18.444   7.814  33.318  1.00  0.00     0.027 A 
HETATM    5  C6  UNK     1      16.556   6.228  32.013  1.00  0.00     0.031 A 
HETATM    6  C7  UNK     1      18.826   6.598  32.750  1.00  0.00     0.031 A 
ENDROOT
BRANCH   2   7
HETATM    7  N1  UNK     1      18.265   4.589  31.531  1.00  0.00    -0.323 N 
HETATM    8  C11 UNK     1      18.155   3.323  32.090  1.00  0.00     0.262 C 
HETATM    9  O4  UNK     1      17.703   3.016  33.191  1.00  0.00    -0.267 OA
HETATM   10  H5  UNK     1      18.645   4.673  30.591  1.00  0.00     0.169 HD
BRANCH   8  11
HETATM   11  C8  UNK     1      18.663   2.278  31.194  1.00  0.00     0.108 A 
HETATM   12  C10 UNK     1      19.031   1.129  31.775  1.00  0.00     0.037 A 
HETATM   13  C5  UNK     1      19.547   0.033  30.970  1.00  0.00    -0.001 A 
HETATM   14  C13 UNK     1      19.943  -1.183  31.534  1.00  0.00     0.014 A 
HETATM   15  C9  UNK     1      19.652   0.199  29.593  1.00  0.00     0.089 A 
HETATM   16  C15 UNK     1      20.433  -2.206  30.717  1.00  0.00     0.001 A 
HETATM   17  C17 UNK     1      20.530  -2.020  29.336  1.00  0.00     0.003 A 
HETATM   18  C14 UNK     1      20.139  -0.811  28.766  1.00  0.00     0.038 A 
HETATM   19  O1  UNK     1      19.263   1.410  28.987  1.00  0.00    -0.274 OA
HETATM   20  C12 UNK     1      18.765   2.477  29.731  1.00  0.00     0.304 A 
HETATM   21  O5  UNK     1      18.430   3.528  29.195  1.00  0.00    -0.259 OA
ENDBRANCH   8  11
ENDBRANCH   2   7
BRANCH   1  22
HETATM   22  S1  UNK     1      16.640   9.759  33.941  1.00  0.00     0.247 S 
HETATM   23  O2  UNK     1      15.741  10.439  33.017  1.00  0.00    -0.205 OA
HETATM   24  O3  UNK     1      16.200   9.494  35.306  1.00  0.00    -0.205 OA
BRANCH  22  25
HETATM   25  N2  UNK     1      18.141  10.598  33.968  1.00  0.00    -0.159 NA
HETATM   26  H7  UNK     1      18.863  10.257  33.318  1.00  0.00     0.148 HD
BRANCH  25  27
HETATM   27  C16 UNK     1      18.057  12.075  33.960  1.00  0.00     0.158 A 
HETATM   28  S2  UNK     1      17.148  12.912  35.134  1.00  0.00    -0.068 SA
HETATM   29  C18 UNK     1      17.608  14.382  34.381  1.00  0.00     0.072 A 
HETATM   30  C19 UNK     1      18.415  14.113  33.295  1.00  0.00     0.126 A 
HETATM   31  N3  UNK     1      18.674  12.778  33.052  1.00  0.00    -0.240 NA
ENDBRANCH  25  27
ENDBRANCH  22  25
ENDBRANCH   1  22
TORSDOF 5
ENDMDL
MODEL 3
REMARK VINA RESULT:      -9.6     14.216     17.358
REMARK  5 active torsions:
REMARK  status: ('A' for Active; 'I' for Inactive)
REMARK    1  A    between atoms: C1_11  and  S1_1 
REMARK    2  A    between atoms: N2_9  and  S1_1 
REMARK       I    between atoms: C11_21  and  N1_8 
REMARK    3  A    between atoms: C2_12  and  N1_8 
REMARK    4  A    between atoms: C16_26  and  N2_9 
REMARK    5  A    between atoms: C11_21  and  C8_18 
ROOT
HETATM    1  C1  UNK     1      16.880   8.357  33.596  1.00  0.00     0.075 A 
HETATM    2  C2  UNK     1      17.606   5.756  32.985  1.00  0.00     0.035 A 
HETATM    3  C3  UNK     1      18.100   7.849  34.044  1.00  0.00     0.027 A 
HETATM    4  C4  UNK     1      16.026   7.553  32.841  1.00  0.00     0.027 A 
HETATM    5  C6  UNK     1      18.466   6.539  33.736  1.00  0.00     0.031 A 
HETATM    6  C7  UNK     1      16.392   6.243  32.533  1.00  0.00     0.031 A 
ENDROOT
BRANCH   2   7
HETATM    7  N1  UNK     1      17.977   4.425  32.673  1.00  0.00    -0.323 N 
HETATM    8  C11 UNK     1      18.372   3.924  31.439  1.00  0.00     0.262 C 
HETATM    9  O4  UNK     1      18.478   4.528  30.374  1.00  0.00    -0.267 OA
HETATM   10  H5  UNK     1      17.961   3.793  33.469  1.00  0.00     0.169 HD
BRANCH   8  11
HETATM   11  C8  UNK     1      18.682   2.490  31.499  1.00  0.00     0.108 A 
HETATM   12  C10 UNK     1      19.263   1.966  30.412  1.00  0.00     0.037 A 
HETATM   13  C5  UNK     1      19.609   0.554  30.376  1.00  0.00    -0.001 A 
HETATM   14  C13 UNK     1      20.216  -0.035  29.263  1.00  0.00     0.014 A 
HETATM   15  C9  UNK     1      19.326  -0.238  31.484  1.00  0.00     0.089 A 
HETATM   16  C15 UNK     1      20.528  -1.398  29.277  1.00  0.00     0.001 A 
HETATM   17  C17 UNK     1      20.236  -2.176  30.400  1.00  0.00     0.003 A 
HETATM   18  C14 UNK     1      19.632  -1.597  31.512  1.00  0.00     0.038 A 
HETATM   19  O1  UNK     1      18.715   0.319  32.624  1.00  0.00    -0.274 OA
HETATM   20  C12 UNK     1      18.373   1.668  32.689  1.00  0.00     0.304 A 
HETATM   21  O5  UNK     1      17.840   2.144  33.686  1.00  0.00    -0.259 OA
ENDBRANCH   8  11
ENDBRANCH   2   7
BRANCH   1  22
HETATM   22  S1  UNK     1      16.422   9.996  33.982  1.00  0.00     0.247 S 
HETATM   23  O2  UNK     1      15.612  10.520  32.889  1.00  0.00    -0.205 OA
HETATM   24  O3  UNK     1      15.885   9.998  35.338  1.00  0.00    -0.205 OA
BRANCH  22  25
HETATM   25  N2  UNK     1      17.951  10.782  33.963  1.00  0.00    -0.159 NA
HETATM   26  H7  UNK     1      18.644  10.409  33.300  1.00  0.00     0.148 HD
BRANCH  25  27
HETATM   27  C16 UNK     1      17.918  12.261  33.941  1.00  0.00     0.158 A 
HETATM   28  S2  UNK     1      16.973  13.138  35.056  1.00  0.00    -0.068 SA
HETATM   29  C18 UNK     1      17.525  14.585  34.320  1.00  0.00     0.072 A 
HETATM   30  C19 UNK     1      18.383  14.280  33.284  1.00  0.00     0.126 A 
HETATM   31  N3  UNK     1      18.609  12.935  33.065  1.00  0.00    -0.240 NA
ENDBRANCH  25  27
ENDBRANCH  22  25
ENDBRANCH   1  22
TORSDOF 5
ENDMDL
MODEL 4
REMARK VINA RESULT:      -9.5     14.198     17.385
REMARK  5 active torsions:
REMARK  status: ('A' for Active; 'I' for Inactive)
REMARK    1  A    between atoms: C1_11  and  S1_1 
REMARK    2  A    between atoms: N2_9  and  S1_1 
REMARK       I    between atoms: C11_21  and  N1_8 
REMARK    3  A    between atoms: C2_12  and  N1_8 
REMARK    4  A    between atoms: C16_26  and  N2_9 
REMARK    5  A    between atoms: C11_21  and  C8_18 
ROOT
HETATM    1  C1  UNK     1      16.604   8.421  33.566  1.00  0.00     0.075 A 
HETATM    2  C2  UNK     1      17.398   5.831  32.993  1.00  0.00     0.035 A 
HETATM    3  C3  UNK     1      17.700   7.865  34.225  1.00  0.00     0.027 A 
HETATM    4  C4  UNK     1      15.907   7.671  32.618  1.00  0.00     0.027 A 
HETATM    5  C6  UNK     1      18.101   6.561  33.936  1.00  0.00     0.031 A 
HETATM    6  C7  UNK     1      16.308   6.366  32.329  1.00  0.00     0.031 A 
ENDROOT
BRANCH   2   7
HETATM    7  N1  UNK     1      17.805   4.506  32.700  1.00  0.00    -0.323 N 
HETATM    8  C11 UNK     1      18.327   4.025  31.507  1.00  0.00     0.262 C 
HETATM    9  O4  UNK     1      18.540   4.646  30.467  1.00  0.00    -0.267 OA
HETATM   10  H5  UNK     1      17.709   3.862  33.481  1.00  0.00     0.169 HD
BRANCH   8  11
HETATM   11  C8  UNK     1      18.634   2.591  31.576  1.00  0.00     0.108 A 
HETATM   12  C10 UNK     1      19.191   2.054  30.484  1.00  0.00     0.037 A 
HETATM   13  C5  UNK     1      19.532   0.640  30.456  1.00  0.00    -0.001 A 
HETATM   14  C13 UNK     1      20.115   0.037  29.338  1.00  0.00     0.014 A 
HETATM   15  C9  UNK     1      19.271  -0.139  31.579  1.00  0.00     0.089 A 
HETATM   16  C15 UNK     1      20.424  -1.326  29.361  1.00  0.00     0.001 A 
HETATM   17  C17 UNK     1      20.154  -2.091  30.498  1.00  0.00     0.003 A 
HETATM   18  C14 UNK     1      19.573  -1.498  31.616  1.00  0.00     0.038 A 
HETATM   19  O1  UNK     1      18.685   0.433  32.725  1.00  0.00    -0.274 OA
HETATM   20  C12 UNK     1      18.347   1.783  32.782  1.00  0.00     0.304 A 
HETATM   21  O5  UNK     1      17.837   2.272  33.784  1.00  0.00    -0.259 OA
ENDBRANCH   8  11
ENDBRANCH   2   7
BRANCH   1  22
HETATM   22  S1  UNK     1      16.102  10.053  33.927  1.00  0.00     0.247 S 
HETATM   23  O2  UNK     1      15.436  10.056  35.224  1.00  0.00    -0.205 OA
HETATM   24  O3  UNK     1      17.247  10.928  33.706  1.00  0.00    -0.205 OA
BRANCH  22  25
HETATM   25  N2  UNK     1      14.924  10.317  32.702  1.00  0.00    -0.159 NA
HETATM   26  H7  UNK     1      14.491   9.474  32.301  1.00  0.00     0.148 HD
BRANCH  25  27
HETATM   27  C16 UNK     1      13.917  11.362  32.987  1.00  0.00     0.158 A 
HETATM   28  S2  UNK     1      14.379  12.982  33.249  1.00  0.00    -0.068 SA
HETATM   29  C18 UNK     1      12.725  13.373  33.471  1.00  0.00     0.072 A 
HETATM   30  C19 UNK     1      11.957  12.236  33.328  1.00  0.00     0.126 A 
HETATM   31  N3  UNK     1      12.648  11.073  33.049  1.00  0.00    -0.240 NA
ENDBRANCH  25  27
ENDBRANCH  22  25
ENDBRANCH   1  22
TORSDOF 5
ENDMDL
MODEL 5
REMARK VINA RESULT:      -9.3     14.061     17.227
REMARK  5 active torsions:
REMARK  status: ('A' for Active; 'I' for Inactive)
REMARK    1  A    between atoms: C1_11  and  S1_1 
REMARK    2  A    between atoms: N2_9  and  S1_1 
REMARK       I    between atoms: C11_21  and  N1_8 
REMARK    3  A    between atoms: C2_12  and  N1_8 
REMARK    4  A    between atoms: C16_26  and  N2_9 
REMARK    5  A    between atoms: C11_21  and  C8_18 
ROOT
HETATM    1  C1  UNK     1      17.431   8.186  33.206  1.00  0.00     0.075 A 
HETATM    2  C2  UNK     1      18.099   5.756  32.060  1.00  0.00     0.035 A 
HETATM    3  C3  UNK     1      18.732   7.696  33.317  1.00  0.00     0.027 A 
HETATM    4  C4  UNK     1      16.466   7.451  32.517  1.00  0.00     0.027 A 
HETATM    5  C6  UNK     1      19.069   6.472  32.740  1.00  0.00     0.031 A 
HETATM    6  C7  UNK     1      16.803   6.226  31.940  1.00  0.00     0.031 A 
ENDROOT
BRANCH   2   7
HETATM    7  N1  UNK     1      18.441   4.512  31.474  1.00  0.00    -0.323 N 
HETATM    8  C11 UNK     1      18.185   3.242  31.974  1.00  0.00     0.262 C 
HETATM    9  O4  UNK     1      17.616   2.939  33.020  1.00  0.00    -0.267 OA
HETATM   10  H5  UNK     1      18.908   4.593  30.574  1.00  0.00     0.169 HD
BRANCH   8  11
HETATM   11  C8  UNK     1      18.688   2.187  31.086  1.00  0.00     0.108 A 
HETATM   12  C10 UNK     1      19.092   1.058  31.680  1.00  0.00     0.037 A 
HETATM   13  C5  UNK     1      19.607  -0.046  30.885  1.00  0.00    -0.001 A 
HETATM   14  C13 UNK     1      20.040  -1.242  31.463  1.00  0.00     0.014 A 
HETATM   15  C9  UNK     1      19.671   0.093  29.502  1.00  0.00     0.089 A 
HETATM   16  C15 UNK     1      20.527  -2.273  30.655  1.00  0.00     0.001 A 
HETATM   17  C17 UNK     1      20.584  -2.115  29.268  1.00  0.00     0.003 A 
HETATM   18  C14 UNK     1      20.155  -0.926  28.684  1.00  0.00     0.038 A 
HETATM   19  O1  UNK     1      19.244   1.284  28.883  1.00  0.00    -0.274 OA
HETATM   20  C12 UNK     1      18.747   2.357  29.617  1.00  0.00     0.304 A 
HETATM   21  O5  UNK     1      18.378   3.390  29.068  1.00  0.00    -0.259 OA
ENDBRANCH   8  11
ENDBRANCH   2   7
BRANCH   1  22
HETATM   22  S1  UNK     1      17.009   9.717  33.930  1.00  0.00     0.247 S 
HETATM   23  O2  UNK     1      16.478   9.468  35.264  1.00  0.00    -0.205 OA
HETATM   24  O3  UNK     1      18.148  10.613  33.766  1.00  0.00    -0.205 OA
BRANCH  22  25
HETATM   25  N2  UNK     1      15.721  10.223  32.908  1.00  0.00    -0.159 NA
HETATM   26  H7  UNK     1      15.214   9.476  32.415  1.00  0.00     0.148 HD
BRANCH  25  27
HETATM   27  C16 UNK     1      14.794  11.222  33.484  1.00  0.00     0.158 A 
HETATM   28  S2  UNK     1      13.112  11.113  33.227  1.00  0.00    -0.068 SA
HETATM   29  C18 UNK     1      12.920  12.534  34.168  1.00  0.00     0.072 A 
HETATM   30  C19 UNK     1      14.155  12.975  34.598  1.00  0.00     0.126 A 
HETATM   31  N3  UNK     1      15.238  12.215  34.202  1.00  0.00    -0.240 NA
ENDBRANCH  25  27
ENDBRANCH  22  25
ENDBRANCH   1  22
TORSDOF 5
ENDMDL
MODEL 6
REMARK VINA RESULT:      -9.2      6.789     10.249
REMARK  5 active torsions:
REMARK  status: ('A' for Active; 'I' for Inactive)
REMARK    1  A    between atoms: C1_11  and  S1_1 
REMARK    2  A    between atoms: N2_9  and  S1_1 
REMARK       I    between atoms: C11_21  and  N1_8 
REMARK    3  A    between atoms: C2_12  and  N1_8 
REMARK    4  A    between atoms: C16_26  and  N2_9 
REMARK    5  A    between atoms: C11_21  and  C8_18 
ROOT
HETATM    1  C1  UNK     1      18.771  -0.057  35.913  1.00  0.00     0.075 A 
HETATM    2  C2  UNK     1      19.162  -2.785  36.167  1.00  0.00     0.035 A 
HETATM    3  C3  UNK     1      19.450  -0.760  34.918  1.00  0.00     0.027 A 
HETATM    4  C4  UNK     1      18.289  -0.729  37.036  1.00  0.00     0.027 A 
HETATM    5  C6  UNK     1      19.647  -2.134  35.046  1.00  0.00     0.031 A 
HETATM    6  C7  UNK     1      18.487  -2.104  37.164  1.00  0.00     0.031 A 
ENDROOT
BRANCH   2   7
HETATM    7  N1  UNK     1      19.363  -4.182  36.297  1.00  0.00    -0.323 N 
HETATM    8  C11 UNK     1      20.455  -4.831  36.858  1.00  0.00     0.262 C 
HETATM    9  O4  UNK     1      21.464  -4.331  37.350  1.00  0.00    -0.267 OA
HETATM   10  H5  UNK     1      18.591  -4.745  35.949  1.00  0.00     0.169 HD
BRANCH   8  11
HETATM   11  C8  UNK     1      20.310  -6.291  36.818  1.00  0.00     0.108 A 
HETATM   12  C10 UNK     1      20.091  -6.895  37.992  1.00  0.00     0.037 A 
HETATM   13  C5  UNK     1      19.934  -8.340  38.055  1.00  0.00    -0.001 A 
HETATM   14  C13 UNK     1      19.703  -9.012  39.258  1.00  0.00     0.014 A 
HETATM   15  C9  UNK     1      20.015  -9.078  36.879  1.00  0.00     0.089 A 
HETATM   16  C15 UNK     1      19.560 -10.402  39.266  1.00  0.00     0.001 A 
HETATM   17  C17 UNK     1      19.644 -11.126  38.075  1.00  0.00     0.003 A 
HETATM   18  C14 UNK     1      19.874 -10.464  36.871  1.00  0.00     0.038 A 
HETATM   19  O1  UNK     1      20.245  -8.437  35.646  1.00  0.00    -0.274 OA
HETATM   20  C12 UNK     1      20.400  -7.056  35.554  1.00  0.00     0.304 A 
HETATM   21  O5  UNK     1      20.601  -6.507  34.477  1.00  0.00    -0.259 OA
ENDBRANCH   8  11
ENDBRANCH   2   7
BRANCH   1  22
HETATM   22  S1  UNK     1      18.525   1.664  35.754  1.00  0.00     0.247 S 
HETATM   23  O2  UNK     1      17.355   2.040  36.539  1.00  0.00    -0.205 OA
HETATM   24  O3  UNK     1      19.801   2.320  36.009  1.00  0.00    -0.205 OA
BRANCH  22  25
HETATM   25  N2  UNK     1      18.132   1.790  34.084  1.00  0.00    -0.159 NA
HETATM   26  H7  UNK     1      17.269   1.315  33.784  1.00  0.00     0.148 HD
BRANCH  25  27
HETATM   27  C16 UNK     1      18.241   3.143  33.494  1.00  0.00     0.158 A 
HETATM   28  S2  UNK     1      18.177   3.376  31.807  1.00  0.00    -0.068 SA
HETATM   29  C18 UNK     1      18.366   5.059  32.076  1.00  0.00     0.072 A 
HETATM   30  C19 UNK     1      18.463   5.304  33.430  1.00  0.00     0.126 A 
HETATM   31  N3  UNK     1      18.391   4.195  34.250  1.00  0.00    -0.240 NA
ENDBRANCH  25  27
ENDBRANCH  22  25
ENDBRANCH   1  22
TORSDOF 5
ENDMDL
MODEL 7
REMARK VINA RESULT:      -9.2     22.858     25.061
REMARK  5 active torsions:
REMARK  status: ('A' for Active; 'I' for Inactive)
REMARK    1  A    between atoms: C1_11  and  S1_1 
REMARK    2  A    between atoms: N2_9  and  S1_1 
REMARK       I    between atoms: C11_21  and  N1_8 
REMARK    3  A    between atoms: C2_12  and  N1_8 
REMARK    4  A    between atoms: C16_26  and  N2_9 
REMARK    5  A    between atoms: C11_21  and  C8_18 
ROOT
HETATM    1  C1  UNK     1      20.753  -6.721  13.056  1.00  0.00     0.075 A 
HETATM    2  C2  UNK     1      20.254  -4.267  14.236  1.00  0.00     0.035 A 
HETATM    3  C3  UNK     1      20.907  -6.564  14.433  1.00  0.00     0.027 A 
HETATM    4  C4  UNK     1      20.348  -5.640  12.272  1.00  0.00     0.027 A 
HETATM    5  C6  UNK     1      20.655  -5.328  15.028  1.00  0.00     0.031 A 
HETATM    6  C7  UNK     1      20.097  -4.403  12.867  1.00  0.00     0.031 A 
ENDROOT
BRANCH   2   7
HETATM    7  N1  UNK     1      19.999  -3.011  14.839  1.00  0.00    -0.323 N 
HETATM    8  C11 UNK     1      18.852  -2.613  15.514  1.00  0.00     0.262 C 
HETATM    9  O4  UNK     1      17.831  -3.264  15.722  1.00  0.00    -0.267 OA
HETATM   10  H5  UNK     1      20.773  -2.354  14.771  1.00  0.00     0.169 HD
BRANCH   8  11
HETATM   11  C8  UNK     1      18.950  -1.234  16.006  1.00  0.00     0.108 A 
HETATM   12  C10 UNK     1      18.762  -1.061  17.320  1.00  0.00     0.037 A 
HETATM   13  C5  UNK     1      18.839   0.270  17.903  1.00  0.00    -0.001 A 
HETATM   14  C13 UNK     1      18.649   0.496  19.269  1.00  0.00     0.014 A 
HETATM   15  C9  UNK     1      19.112   1.353  17.075  1.00  0.00     0.089 A 
HETATM   16  C15 UNK     1      18.734   1.794  19.780  1.00  0.00     0.001 A 
HETATM   17  C17 UNK     1      19.008   2.869  18.932  1.00  0.00     0.003 A 
HETATM   18  C14 UNK     1      19.199   2.652  17.570  1.00  0.00     0.038 A 
HETATM   19  O1  UNK     1      19.310   1.165  15.693  1.00  0.00    -0.274 OA
HETATM   20  C12 UNK     1      19.242  -0.097  15.106  1.00  0.00     0.304 A 
HETATM   21  O5  UNK     1      19.415  -0.250  13.902  1.00  0.00    -0.259 OA
ENDBRANCH   8  11
ENDBRANCH   2   7
BRANCH   1  22
HETATM   22  S1  UNK     1      21.069  -8.267  12.311  1.00  0.00     0.247 S 
HETATM   23  O2  UNK     1      19.887  -9.106  12.464  1.00  0.00    -0.205 OA
HETATM   24  O3  UNK     1      21.603  -8.016  10.977  1.00  0.00    -0.205 OA
BRANCH  22  25
HETATM   25  N2  UNK     1      22.315  -8.877  13.329  1.00  0.00    -0.159 NA
HETATM   26  H7  UNK     1      22.074  -8.986  14.323  1.00  0.00     0.148 HD
BRANCH  25  27
HETATM   27  C16 UNK     1      23.051 -10.053  12.815  1.00  0.00     0.158 A 
HETATM   28  S2  UNK     1      24.607  -9.890  12.136  1.00  0.00    -0.068 SA
HETATM   29  C18 UNK     1      24.620 -11.584  11.869  1.00  0.00     0.072 A 
HETATM   30  C19 UNK     1      23.437 -12.133  12.319  1.00  0.00     0.126 A 
HETATM   31  N3  UNK     1      22.530 -11.247  12.865  1.00  0.00    -0.240 NA
ENDBRANCH  25  27
ENDBRANCH  22  25
ENDBRANCH   1  22
TORSDOF 5
ENDMDL
MODEL 8
REMARK VINA RESULT:      -9.1      6.515      9.352
REMARK  5 active torsions:
REMARK  status: ('A' for Active; 'I' for Inactive)
REMARK    1  A    between atoms: C1_11  and  S1_1 
REMARK    2  A    between atoms: N2_9  and  S1_1 
REMARK       I    between atoms: C11_21  and  N1_8 
REMARK    3  A    between atoms: C2_12  and  N1_8 
REMARK    4  A    between atoms: C16_26  and  N2_9 
REMARK    5  A    between atoms: C11_21  and  C8_18 
ROOT
HETATM    1  C1  UNK     1      18.079  -0.470  35.731  1.00  0.00     0.075 A 
HETATM    2  C2  UNK     1      19.411  -2.868  36.102  1.00  0.00     0.035 A 
HETATM    3  C3  UNK     1      18.907  -0.970  34.727  1.00  0.00     0.027 A 
HETATM    4  C4  UNK     1      17.922  -1.178  36.923  1.00  0.00     0.027 A 
HETATM    5  C6  UNK     1      19.578  -2.178  34.913  1.00  0.00     0.031 A 
HETATM    6  C7  UNK     1      18.594  -2.386  37.109  1.00  0.00     0.031 A 
ENDROOT
BRANCH   2   7
HETATM    7  N1  UNK     1      20.094  -4.095  36.292  1.00  0.00    -0.323 N 
HETATM    8  C11 UNK     1      19.536  -5.352  36.485  1.00  0.00     0.262 C 
HETATM    9  O4  UNK     1      18.346  -5.655  36.533  1.00  0.00    -0.267 OA
HETATM   10  H5  UNK     1      21.107  -4.014  36.257  1.00  0.00     0.169 HD
BRANCH   8  11
HETATM   11  C8  UNK     1      20.560  -6.391  36.645  1.00  0.00     0.108 A 
HETATM   12  C10 UNK     1      20.455  -7.454  35.837  1.00  0.00     0.037 A 
HETATM   13  C5  UNK     1      21.422  -8.537  35.921  1.00  0.00    -0.001 A 
HETATM   14  C13 UNK     1      21.351  -9.663  35.097  1.00  0.00     0.014 A 
HETATM   15  C9  UNK     1      22.453  -8.449  36.850  1.00  0.00     0.089 A 
HETATM   16  C15 UNK     1      22.305 -10.678  35.217  1.00  0.00     0.001 A 
HETATM   17  C17 UNK     1      23.333 -10.572  36.156  1.00  0.00     0.003 A 
HETATM   18  C14 UNK     1      23.411  -9.452  36.981  1.00  0.00     0.038 A 
HETATM   19  O1  UNK     1      22.559  -7.329  37.697  1.00  0.00    -0.274 OA
HETATM   20  C12 UNK     1      21.648  -6.276  37.641  1.00  0.00     0.304 A 
HETATM   21  O5  UNK     1      21.748  -5.306  38.384  1.00  0.00    -0.259 OA
ENDBRANCH   8  11
ENDBRANCH   2   7
BRANCH   1  22
HETATM   22  S1  UNK     1      17.239   1.043  35.498  1.00  0.00     0.247 S 
HETATM   23  O2  UNK     1      16.303   0.888  34.392  1.00  0.00    -0.205 OA
HETATM   24  O3  UNK     1      16.748   1.482  36.799  1.00  0.00    -0.205 OA
BRANCH  22  25
HETATM   25  N2  UNK     1      18.528   2.063  34.991  1.00  0.00    -0.159 NA
HETATM   26  H7  UNK     1      19.476   1.671  35.074  1.00  0.00     0.148 HD
BRANCH  25  27
HETATM   27  C16 UNK     1      18.336   2.752  33.696  1.00  0.00     0.158 A 
HETATM   28  S2  UNK     1      18.297   4.454  33.601  1.00  0.00    -0.068 SA
HETATM   29  C18 UNK     1      18.061   4.311  31.909  1.00  0.00     0.072 A 
HETATM   30  C19 UNK     1      18.030   2.977  31.557  1.00  0.00     0.126 A 
HETATM   31  N3  UNK     1      18.189   2.076  32.591  1.00  0.00    -0.240 NA
ENDBRANCH  25  27
ENDBRANCH  22  25
ENDBRANCH   1  22
TORSDOF 5
ENDMDL
MODEL 9
REMARK VINA RESULT:      -9.1      7.416     10.970
REMARK  5 active torsions:
REMARK  status: ('A' for Active; 'I' for Inactive)
REMARK    1  A    between atoms: C1_11  and  S1_1 
REMARK    2  A    between atoms: N2_9  and  S1_1 
REMARK       I    between atoms: C11_21  and  N1_8 
REMARK    3  A    between atoms: C2_12  and  N1_8 
REMARK    4  A    between atoms: C16_26  and  N2_9 
REMARK    5  A    between atoms: C11_21  and  C8_18 
ROOT
HETATM    1  C1  UNK     1      20.030  -4.302  36.383  1.00  0.00     0.075 A 
HETATM    2  C2  UNK     1      19.526  -1.773  35.378  1.00  0.00     0.035 A 
HETATM    3  C3  UNK     1      20.392  -3.987  35.073  1.00  0.00     0.027 A 
HETATM    4  C4  UNK     1      19.414  -3.343  37.186  1.00  0.00     0.027 A 
HETATM    5  C6  UNK     1      20.139  -2.712  34.567  1.00  0.00     0.031 A 
HETATM    6  C7  UNK     1      19.160  -2.068  36.680  1.00  0.00     0.031 A 
ENDROOT
BRANCH   2   7
HETATM    7  N1  UNK     1      19.268  -0.478  34.864  1.00  0.00    -0.323 N 
HETATM    8  C11 UNK     1      18.201  -0.080  34.069  1.00  0.00     0.262 C 
HETATM    9  O4  UNK     1      17.271  -0.766  33.649  1.00  0.00    -0.267 OA
HETATM   10  H5  UNK     1      19.950   0.223  35.145  1.00  0.00     0.169 HD
BRANCH   8  11
HETATM   11  C8  UNK     1      18.267   1.346  33.730  1.00  0.00     0.108 A 
HETATM   12  C10 UNK     1      18.427   1.639  32.433  1.00  0.00     0.037 A 
HETATM   13  C5  UNK     1      18.503   3.025  31.998  1.00  0.00    -0.001 A 
HETATM   14  C13 UNK     1      18.670   3.375  30.656  1.00  0.00     0.014 A 
HETATM   15  C9  UNK     1      18.406   4.035  32.949  1.00  0.00     0.089 A 
HETATM   16  C15 UNK     1      18.737   4.722  30.289  1.00  0.00     0.001 A 
HETATM   17  C17 UNK     1      18.638   5.723  31.258  1.00  0.00     0.003 A 
HETATM   18  C14 UNK     1      18.472   5.382  32.598  1.00  0.00     0.038 A 
HETATM   19  O1  UNK     1      18.237   3.721  34.311  1.00  0.00    -0.274 OA
HETATM   20  C12 UNK     1      18.161   2.405  34.758  1.00  0.00     0.304 A 
HETATM   21  O5  UNK     1      18.015   2.141  35.947  1.00  0.00    -0.259 OA
ENDBRANCH   8  11
ENDBRANCH   2   7
BRANCH   1  22
HETATM   22  S1  UNK     1      20.346  -5.898  37.016  1.00  0.00     0.247 S 
HETATM   23  O2  UNK     1      21.779  -6.028  37.249  1.00  0.00    -0.205 OA
HETATM   24  O3  UNK     1      19.416  -6.131  38.114  1.00  0.00    -0.205 OA
BRANCH  22  25
HETATM   25  N2  UNK     1      19.915  -6.880  35.672  1.00  0.00    -0.159 NA
HETATM   26  H7  UNK     1      19.943  -6.424  34.750  1.00  0.00     0.148 HD
BRANCH  25  27
HETATM   27  C16 UNK     1      20.526  -8.227  35.632  1.00  0.00     0.158 A 
HETATM   28  S2  UNK     1      20.230  -9.365  36.865  1.00  0.00    -0.068 SA
HETATM   29  C18 UNK     1      21.246 -10.468  36.032  1.00  0.00     0.072 A 
HETATM   30  C19 UNK     1      21.727  -9.876  34.883  1.00  0.00     0.126 A 
HETATM   31  N3  UNK     1      21.311  -8.579  34.652  1.00  0.00    -0.240 NA
ENDBRANCH  25  27
ENDBRANCH  22  25
ENDBRANCH   1  22
TORSDOF 5
ENDMDL
MODEL 10
REMARK VINA RESULT:      -9.0     12.472     16.163
REMARK  5 active torsions:
REMARK  status: ('A' for Active; 'I' for Inactive)
REMARK    1  A    between atoms: C1_11  and  S1_1 
REMARK    2  A    between atoms: N2_9  and  S1_1 
REMARK       I    between atoms: C11_21  and  N1_8 
REMARK    3  A    between atoms: C2_12  and  N1_8 
REMARK    4  A    between atoms: C16_26  and  N2_9 
REMARK    5  A    between atoms: C11_21  and  C8_18 
ROOT
HETATM    1  C1  UNK     1      19.170   1.148  31.174  1.00  0.00     0.075 A 
HETATM    2  C2  UNK     1      18.040   3.630  31.644  1.00  0.00     0.035 A 
HETATM    3  C3  UNK     1      19.032   2.061  30.129  1.00  0.00     0.027 A 
HETATM    4  C4  UNK     1      18.738   1.485  32.457  1.00  0.00     0.027 A 
HETATM    5  C6  UNK     1      18.463   3.312  30.366  1.00  0.00     0.031 A 
HETATM    6  C7  UNK     1      18.168   2.737  32.693  1.00  0.00     0.031 A 
ENDROOT
BRANCH   2   7
HETATM    7  N1  UNK     1      17.461   4.901  31.885  1.00  0.00    -0.323 N 
HETATM    8  C11 UNK     1      17.909   5.883  32.759  1.00  0.00     0.262 C 
HETATM    9  O4  UNK     1      18.891   5.851  33.497  1.00  0.00    -0.267 OA
HETATM   10  H5  UNK     1      16.635   5.093  31.323  1.00  0.00     0.169 HD
BRANCH   8  11
HETATM   11  C8  UNK     1      17.050   7.073  32.740  1.00  0.00     0.108 A 
HETATM   12  C10 UNK     1      16.635   7.521  33.932  1.00  0.00     0.037 A 
HETATM   13  C5  UNK     1      15.780   8.695  34.016  1.00  0.00    -0.001 A 
HETATM   14  C13 UNK     1      15.324   9.197  35.238  1.00  0.00     0.014 A 
HETATM   15  C9  UNK     1      15.403   9.340  32.842  1.00  0.00     0.089 A 
HETATM   16  C15 UNK     1      14.503  10.328  35.266  1.00  0.00     0.001 A 
HETATM   17  C17 UNK     1      14.135  10.962  34.076  1.00  0.00     0.003 A 
HETATM   18  C14 UNK     1      14.585  10.468  32.855  1.00  0.00     0.038 A 
HETATM   19  O1  UNK     1      15.843   8.863  31.592  1.00  0.00    -0.274 OA
HETATM   20  C12 UNK     1      16.662   7.743  31.479  1.00  0.00     0.304 A 
HETATM   21  O5  UNK     1      17.038   7.335  30.386  1.00  0.00    -0.259 OA
ENDBRANCH   8  11
ENDBRANCH   2   7
BRANCH   1  22
HETATM   22  S1  UNK     1      19.882  -0.418  30.877  1.00  0.00     0.247 S 
HETATM   23  O2  UNK     1      19.713  -0.744  29.467  1.00  0.00    -0.205 OA
HETATM   24  O3  UNK     1      21.219  -0.415  31.458  1.00  0.00    -0.205 OA
BRANCH  22  25
HETATM   25  N2  UNK     1      18.849  -1.433  31.805  1.00  0.00    -0.159 NA
HETATM   26  H7  UNK     1      18.577  -2.324  31.368  1.00  0.00     0.148 HD
BRANCH  25  27
HETATM   27  C16 UNK     1      19.226  -1.616  33.224  1.00  0.00     0.158 A 
HETATM   28  S2  UNK     1      18.301  -0.925  34.478  1.00  0.00    -0.068 SA
HETATM   29  C18 UNK     1      19.398  -1.609  35.605  1.00  0.00     0.072 A 
HETATM   30  C19 UNK     1      20.379  -2.306  34.932  1.00  0.00     0.126 A 
HETATM   31  N3  UNK     1      20.280  -2.310  33.555  1.00  0.00    -0.240 NA
ENDBRANCH  25  27
ENDBRANCH  22  25
ENDBRANCH   1  22
TORSDOF 5
ENDMDL
