MODEL 1
REMARK VINA RESULT:     -10.3      0.000      0.000
REMARK  3 active torsions:
REMARK  status: ('A' for Active; 'I' for Inactive)
REMARK       I    between atoms: C16_21  and  N1_5 
REMARK    1  A    between atoms: C6_11  and  N1_5 
REMARK    2  A    between atoms: C1_6  and  C2_7 
REMARK    3  A    between atoms: C16_21  and  C17_22 
ROOT
HETATM    1  C2  UNK     1      18.637   3.783  30.927  1.00  0.00    -0.020 A 
HETATM    2  C6  UNK     1      18.108   6.325  31.944  1.00  0.00     0.035 A 
HETATM    3  C7  UNK     1      19.114   4.912  30.262  1.00  0.00     0.014 A 
HETATM    4  C8  UNK     1      17.897   3.923  32.100  1.00  0.00     0.014 A 
HETATM    5  C10 UNK     1      18.849   6.183  30.771  1.00  0.00     0.030 A 
HETATM    6  C11 UNK     1      17.633   5.195  32.609  1.00  0.00     0.030 A 
ENDROOT
BRANCH   1   7
HETATM    7  C1  UNK     1      18.917   2.438  30.390  1.00  0.00     0.051 A 
HETATM    8  C4  UNK     1      19.502   1.528  31.183  1.00  0.00     0.032 A 
HETATM    9  C3  UNK     1      19.812   0.196  30.695  1.00  0.00    -0.001 A 
HETATM   10  C12 UNK     1      20.413  -0.774  31.501  1.00  0.00     0.014 A 
HETATM   11  C5  UNK     1      19.503  -0.125  29.379  1.00  0.00     0.089 A 
HETATM   12  C14 UNK     1      20.694  -2.042  30.982  1.00  0.00     0.001 A 
HETATM   13  C15 UNK     1      20.375  -2.345  29.656  1.00  0.00     0.003 A 
HETATM   14  C13 UNK     1      19.776  -1.383  28.846  1.00  0.00     0.038 A 
HETATM   15  O1  UNK     1      18.895   0.825  28.537  1.00  0.00    -0.274 OA
HETATM   16  C9  UNK     1      18.573   2.106  28.980  1.00  0.00     0.299 A 
HETATM   17  O2  UNK     1      18.023   2.911  28.235  1.00  0.00    -0.259 OA
ENDBRANCH   1   7
BRANCH   2  18
HETATM   18  N1  UNK     1      17.843   7.598  32.452  1.00  0.00    -0.323 N 
HETATM   19  C16 UNK     1      18.503   8.266  33.492  1.00  0.00     0.256 C 
HETATM   20  O3  UNK     1      19.447   7.847  34.154  1.00  0.00    -0.267 OA
HETATM   21  H8  UNK     1      17.101   8.087  31.960  1.00  0.00     0.169 HD
BRANCH  19  22
HETATM   22  C17 UNK     1      17.966   9.611  33.827  1.00  0.00     0.032 A 
HETATM   23  C18 UNK     1      16.610   9.754  34.030  1.00  0.00     0.018 A 
HETATM   24  C20 UNK     1      16.106  11.015  34.345  1.00  0.00     0.025 A 
HETATM   25  C22 UNK     1      16.970  12.106  34.451  1.00  0.00     0.034 A 
HETATM   26  C21 UNK     1      18.339  11.933  34.241  1.00  0.00     0.025 A 
HETATM   27 Cl1  UNK     1      16.349  13.663  34.839  1.00  0.00    -0.084 Cl
HETATM   28  C19 UNK     1      18.842  10.672  33.925  1.00  0.00     0.018 A 
ENDBRANCH  19  22
ENDBRANCH   2  18
TORSDOF 3
ENDMDL
MODEL 2
REMARK VINA RESULT:     -10.0      3.947     10.319
REMARK  3 active torsions:
REMARK  status: ('A' for Active; 'I' for Inactive)
REMARK       I    between atoms: C16_21  and  N1_5 
REMARK    1  A    between atoms: C6_11  and  N1_5 
REMARK    2  A    between atoms: C1_6  and  C2_7 
REMARK    3  A    between atoms: C16_21  and  C17_22 
ROOT
HETATM    1  C2  UNK     1      17.752   6.747  32.579  1.00  0.00    -0.020 A 
HETATM    2  C6  UNK     1      18.623   4.211  31.810  1.00  0.00     0.035 A 
HETATM    3  C7  UNK     1      18.217   6.534  31.282  1.00  0.00     0.014 A 
HETATM    4  C8  UNK     1      17.721   5.694  33.492  1.00  0.00     0.014 A 
HETATM    5  C10 UNK     1      18.653   5.266  30.898  1.00  0.00     0.030 A 
HETATM    6  C11 UNK     1      18.156   4.426  33.108  1.00  0.00     0.030 A 
ENDROOT
BRANCH   1   7
HETATM    7  C1  UNK     1      17.291   8.088  32.986  1.00  0.00     0.051 A 
HETATM    8  C4  UNK     1      18.189   8.974  33.443  1.00  0.00     0.032 A 
HETATM    9  C3  UNK     1      17.782  10.302  33.869  1.00  0.00    -0.001 A 
HETATM   10  C12 UNK     1      18.696  11.247  34.342  1.00  0.00     0.014 A 
HETATM   11  C5  UNK     1      16.436  10.643  33.809  1.00  0.00     0.089 A 
HETATM   12  C14 UNK     1      18.252  12.511  34.743  1.00  0.00     0.001 A 
HETATM   13  C15 UNK     1      16.895  12.835  34.674  1.00  0.00     0.003 A 
HETATM   14  C13 UNK     1      15.978  11.897  34.205  1.00  0.00     0.038 A 
HETATM   15  O1  UNK     1      15.487   9.717  33.337  1.00  0.00    -0.274 OA
HETATM   16  C9  UNK     1      15.847   8.442  32.907  1.00  0.00     0.299 A 
HETATM   17  O2  UNK     1      15.006   7.659  32.479  1.00  0.00    -0.259 OA
ENDBRANCH   1   7
BRANCH   2  18
HETATM   18  N1  UNK     1      19.059   2.943  31.426  1.00  0.00    -0.323 N 
HETATM   19  C16 UNK     1      18.487   2.085  30.478  1.00  0.00     0.256 C 
HETATM   20  O3  UNK     1      17.483   2.296  29.806  1.00  0.00    -0.267 OA
HETATM   21  H8  UNK     1      19.921   2.654  31.878  1.00  0.00     0.169 HD
BRANCH  19  22
HETATM   22  C17 UNK     1      19.171   0.776  30.308  1.00  0.00     0.032 A 
HETATM   23  C18 UNK     1      19.354  -0.026  31.414  1.00  0.00     0.018 A 
HETATM   24  C20 UNK     1      19.995  -1.255  31.255  1.00  0.00     0.025 A 
HETATM   25  C22 UNK     1      20.437  -1.654  29.993  1.00  0.00     0.034 A 
HETATM   26  C21 UNK     1      20.239  -0.822  28.890  1.00  0.00     0.025 A 
HETATM   27 Cl1  UNK     1      21.229  -3.169  29.796  1.00  0.00    -0.084 Cl
HETATM   28  C19 UNK     1      19.598   0.407  29.050  1.00  0.00     0.018 A 
ENDBRANCH  19  22
ENDBRANCH   2  18
TORSDOF 3
ENDMDL
MODEL 3
REMARK VINA RESULT:      -9.8      3.858     10.395
REMARK  3 active torsions:
REMARK  status: ('A' for Active; 'I' for Inactive)
REMARK       I    between atoms: C16_21  and  N1_5 
REMARK    1  A    between atoms: C6_11  and  N1_5 
REMARK    2  A    between atoms: C1_6  and  C2_7 
REMARK    3  A    between atoms: C16_21  and  C17_22 
ROOT
HETATM    1  C2  UNK     1      17.679   6.820  32.632  1.00  0.00    -0.020 A 
HETATM    2  C6  UNK     1      18.551   4.291  31.841  1.00  0.00     0.035 A 
HETATM    3  C7  UNK     1      18.183   6.627  31.346  1.00  0.00     0.014 A 
HETATM    4  C8  UNK     1      17.611   5.750  33.522  1.00  0.00     0.014 A 
HETATM    5  C10 UNK     1      18.619   5.363  30.951  1.00  0.00     0.030 A 
HETATM    6  C11 UNK     1      18.047   4.485  33.127  1.00  0.00     0.030 A 
ENDROOT
BRANCH   1   7
HETATM    7  C1  UNK     1      17.218   8.157  33.050  1.00  0.00     0.051 A 
HETATM    8  C4  UNK     1      15.928   8.484  32.878  1.00  0.00     0.032 A 
HETATM    9  C3  UNK     1      15.429   9.793  33.260  1.00  0.00    -0.001 A 
HETATM   10  C12 UNK     1      14.090  10.158  33.099  1.00  0.00     0.014 A 
HETATM   11  C5  UNK     1      16.315  10.718  33.799  1.00  0.00     0.089 A 
HETATM   12  C14 UNK     1      13.660  11.433  33.479  1.00  0.00     0.001 A 
HETATM   13  C15 UNK     1      14.566  12.349  34.021  1.00  0.00     0.003 A 
HETATM   14  C13 UNK     1      15.903  11.992  34.183  1.00  0.00     0.038 A 
HETATM   15  O1  UNK     1      17.671  10.386  33.977  1.00  0.00    -0.274 OA
HETATM   16  C9  UNK     1      18.177   9.134  33.635  1.00  0.00     0.299 A 
HETATM   17  O2  UNK     1      19.358   8.859  33.819  1.00  0.00    -0.259 OA
ENDBRANCH   1   7
BRANCH   2  18
HETATM   18  N1  UNK     1      18.989   3.027  31.446  1.00  0.00    -0.323 N 
HETATM   19  C16 UNK     1      18.416   2.175  30.492  1.00  0.00     0.256 C 
HETATM   20  O3  UNK     1      17.411   2.391  29.823  1.00  0.00    -0.267 OA
HETATM   21  H8  UNK     1      19.852   2.734  31.895  1.00  0.00     0.169 HD
BRANCH  19  22
HETATM   22  C17 UNK     1      19.101   0.869  30.311  1.00  0.00     0.032 A 
HETATM   23  C18 UNK     1      19.501   0.499  29.045  1.00  0.00     0.018 A 
HETATM   24  C20 UNK     1      20.145  -0.727  28.874  1.00  0.00     0.025 A 
HETATM   25  C22 UNK     1      20.377  -1.553  29.974  1.00  0.00     0.034 A 
HETATM   26  C21 UNK     1      19.961  -1.154  31.245  1.00  0.00     0.025 A 
HETATM   27 Cl1  UNK     1      21.171  -3.065  29.764  1.00  0.00    -0.084 Cl
HETATM   28  C19 UNK     1      19.316   0.070  31.415  1.00  0.00     0.018 A 
ENDBRANCH  19  22
ENDBRANCH   2  18
TORSDOF 3
ENDMDL
MODEL 4
REMARK VINA RESULT:      -9.6      7.130      9.595
REMARK  3 active torsions:
REMARK  status: ('A' for Active; 'I' for Inactive)
REMARK       I    between atoms: C16_21  and  N1_5 
REMARK    1  A    between atoms: C6_11  and  N1_5 
REMARK    2  A    between atoms: C1_6  and  C2_7 
REMARK    3  A    between atoms: C16_21  and  C17_22 
ROOT
HETATM    1  C2  UNK     1      19.586  -3.604  36.536  1.00  0.00    -0.020 A 
HETATM    2  C6  UNK     1      19.273  -1.122  35.303  1.00  0.00     0.035 A 
HETATM    3  C7  UNK     1      18.899  -2.583  37.191  1.00  0.00     0.014 A 
HETATM    4  C8  UNK     1      20.117  -3.386  35.266  1.00  0.00     0.014 A 
HETATM    5  C10 UNK     1      18.743  -1.341  36.574  1.00  0.00     0.030 A 
HETATM    6  C11 UNK     1      19.960  -2.145  34.648  1.00  0.00     0.030 A 
ENDROOT
BRANCH   1   7
HETATM    7  C1  UNK     1      19.752  -4.917  37.188  1.00  0.00     0.051 A 
HETATM    8  C4  UNK     1      20.885  -5.172  37.859  1.00  0.00     0.032 A 
HETATM    9  C3  UNK     1      21.101  -6.456  38.505  1.00  0.00    -0.001 A 
HETATM   10  C12 UNK     1      22.268  -6.746  39.216  1.00  0.00     0.014 A 
HETATM   11  C5  UNK     1      20.115  -7.429  38.409  1.00  0.00     0.089 A 
HETATM   12  C14 UNK     1      22.428  -7.999  39.817  1.00  0.00     0.001 A 
HETATM   13  C15 UNK     1      21.424  -8.965  39.710  1.00  0.00     0.003 A 
HETATM   14  C13 UNK     1      20.259  -8.682  39.002  1.00  0.00     0.038 A 
HETATM   15  O1  UNK     1      18.925  -7.172  37.702  1.00  0.00    -0.274 OA
HETATM   16  C9  UNK     1      18.682  -5.948  37.085  1.00  0.00     0.299 A 
HETATM   17  O2  UNK     1      17.629  -5.737  36.493  1.00  0.00    -0.259 OA
ENDBRANCH   1   7
BRANCH   2  18
HETATM   18  N1  UNK     1      19.117   0.120  34.686  1.00  0.00    -0.323 N 
HETATM   19  C16 UNK     1      17.941   0.692  34.185  1.00  0.00     0.256 C 
HETATM   20  O3  UNK     1      16.819   0.197  34.198  1.00  0.00    -0.267 OA
HETATM   21  H8  UNK     1      19.973   0.666  34.647  1.00  0.00     0.169 HD
BRANCH  19  22
HETATM   22  C17 UNK     1      18.101   2.028  33.553  1.00  0.00     0.032 A 
HETATM   23  C18 UNK     1      18.152   2.111  32.178  1.00  0.00     0.018 A 
HETATM   24  C20 UNK     1      18.302   3.364  31.584  1.00  0.00     0.025 A 
HETATM   25  C22 UNK     1      18.395   4.507  32.380  1.00  0.00     0.034 A 
HETATM   26  C21 UNK     1      18.340   4.394  33.770  1.00  0.00     0.025 A 
HETATM   27 Cl1  UNK     1      18.580   6.053  31.648  1.00  0.00    -0.084 Cl
HETATM   28  C19 UNK     1      18.192   3.141  34.363  1.00  0.00     0.018 A 
ENDBRANCH  19  22
ENDBRANCH   2  18
TORSDOF 3
ENDMDL
MODEL 5
REMARK VINA RESULT:      -9.5     22.194     24.010
REMARK  3 active torsions:
REMARK  status: ('A' for Active; 'I' for Inactive)
REMARK       I    between atoms: C16_21  and  N1_5 
REMARK    1  A    between atoms: C6_11  and  N1_5 
REMARK    2  A    between atoms: C1_6  and  C2_7 
REMARK    3  A    between atoms: C16_21  and  C17_22 
ROOT
HETATM    1  C2  UNK     1      14.572   8.822   8.987  1.00  0.00    -0.020 A 
HETATM    2  C6  UNK     1      17.121   9.870   9.420  1.00  0.00     0.035 A 
HETATM    3  C7  UNK     1      14.931  10.042   8.414  1.00  0.00     0.014 A 
HETATM    4  C8  UNK     1      15.487   8.126   9.776  1.00  0.00     0.014 A 
HETATM    5  C10 UNK     1      16.205  10.566   8.631  1.00  0.00     0.030 A 
HETATM    6  C11 UNK     1      16.761   8.650   9.992  1.00  0.00     0.030 A 
ENDROOT
BRANCH   1   7
HETATM    7  C1  UNK     1      13.225   8.268   8.758  1.00  0.00     0.051 A 
HETATM    8  C4  UNK     1      12.944   7.711   7.570  1.00  0.00     0.032 A 
HETATM    9  C3  UNK     1      11.626   7.165   7.292  1.00  0.00    -0.001 A 
HETATM   10  C12 UNK     1      11.308   6.572   6.067  1.00  0.00     0.014 A 
HETATM   11  C5  UNK     1      10.648   7.238   8.275  1.00  0.00     0.089 A 
HETATM   12  C14 UNK     1      10.023   6.065   5.848  1.00  0.00     0.001 A 
HETATM   13  C15 UNK     1       9.053   6.147   6.850  1.00  0.00     0.003 A 
HETATM   14  C13 UNK     1       9.364   6.737   8.073  1.00  0.00     0.038 A 
HETATM   15  O1  UNK     1      10.932   7.827   9.522  1.00  0.00    -0.274 OA
HETATM   16  C9  UNK     1      12.189   8.346   9.825  1.00  0.00     0.299 A 
HETATM   17  O2  UNK     1      12.421   8.835  10.925  1.00  0.00    -0.259 OA
ENDBRANCH   1   7
BRANCH   2  18
HETATM   18  N1  UNK     1      18.395  10.395   9.637  1.00  0.00    -0.323 N 
HETATM   19  C16 UNK     1      18.741  11.560  10.335  1.00  0.00     0.256 C 
HETATM   20  O3  UNK     1      17.974  12.340  10.889  1.00  0.00    -0.267 OA
HETATM   21  H8  UNK     1      19.143   9.818   9.264  1.00  0.00     0.169 HD
BRANCH  19  22
HETATM   22  C17 UNK     1      20.193  11.875  10.370  1.00  0.00     0.032 A 
HETATM   23  C18 UNK     1      20.818  11.990  11.593  1.00  0.00     0.018 A 
HETATM   24  C20 UNK     1      22.182  12.284  11.626  1.00  0.00     0.025 A 
HETATM   25  C22 UNK     1      22.889  12.455  10.436  1.00  0.00     0.034 A 
HETATM   26  C21 UNK     1      22.231  12.333   9.211  1.00  0.00     0.025 A 
HETATM   27 Cl1  UNK     1      24.570  12.818  10.476  1.00  0.00    -0.084 Cl
HETATM   28  C19 UNK     1      20.868  12.040   9.178  1.00  0.00     0.018 A 
ENDBRANCH  19  22
ENDBRANCH   2  18
TORSDOF 3
ENDMDL
MODEL 6
REMARK VINA RESULT:      -9.4      8.087     12.637
REMARK  3 active torsions:
REMARK  status: ('A' for Active; 'I' for Inactive)
REMARK       I    between atoms: C16_21  and  N1_5 
REMARK    1  A    between atoms: C6_11  and  N1_5 
REMARK    2  A    between atoms: C1_6  and  C2_7 
REMARK    3  A    between atoms: C16_21  and  C17_22 
ROOT
HETATM    1  C2  UNK     1      18.621  -0.611  35.437  1.00  0.00    -0.020 A 
HETATM    2  C6  UNK     1      18.833  -3.224  36.390  1.00  0.00     0.035 A 
HETATM    3  C7  UNK     1      19.675  -1.422  35.018  1.00  0.00     0.014 A 
HETATM    4  C8  UNK     1      17.673  -1.105  36.332  1.00  0.00     0.014 A 
HETATM    5  C10 UNK     1      19.781  -2.728  35.494  1.00  0.00     0.030 A 
HETATM    6  C11 UNK     1      17.779  -2.412  36.808  1.00  0.00     0.030 A 
ENDROOT
BRANCH   1   7
HETATM    7  C1  UNK     1      18.509   0.771  34.934  1.00  0.00     0.051 A 
HETATM    8  C4  UNK     1      18.416   0.976  33.611  1.00  0.00     0.032 A 
HETATM    9  C3  UNK     1      18.319   2.319  33.066  1.00  0.00    -0.001 A 
HETATM   10  C12 UNK     1      18.214   2.562  31.694  1.00  0.00     0.014 A 
HETATM   11  C5  UNK     1      18.336   3.400  33.938  1.00  0.00     0.089 A 
HETATM   12  C14 UNK     1      18.126   3.875  31.220  1.00  0.00     0.001 A 
HETATM   13  C15 UNK     1      18.144   4.949  32.113  1.00  0.00     0.003 A 
HETATM   14  C13 UNK     1      18.250   4.714  33.482  1.00  0.00     0.038 A 
HETATM   15  O1  UNK     1      18.440   3.195  35.327  1.00  0.00    -0.274 OA
HETATM   16  C9  UNK     1      18.520   1.920  35.881  1.00  0.00     0.299 A 
HETATM   17  O2  UNK     1      18.588   1.763  37.096  1.00  0.00    -0.259 OA
ENDBRANCH   1   7
BRANCH   2  18
HETATM   18  N1  UNK     1      18.940  -4.531  36.866  1.00  0.00    -0.323 N 
HETATM   19  C16 UNK     1      20.093  -5.201  37.294  1.00  0.00     0.256 C 
HETATM   20  O3  UNK     1      21.235  -4.754  37.326  1.00  0.00    -0.267 OA
HETATM   21  H8  UNK     1      18.049  -5.014  36.936  1.00  0.00     0.169 HD
BRANCH  19  22
HETATM   22  C17 UNK     1      19.889  -6.609  37.723  1.00  0.00     0.032 A 
HETATM   23  C18 UNK     1      20.178  -6.956  39.026  1.00  0.00     0.018 A 
HETATM   24  C20 UNK     1      19.986  -8.277  39.429  1.00  0.00     0.025 A 
HETATM   25  C22 UNK     1      19.508  -9.222  38.521  1.00  0.00     0.034 A 
HETATM   26  C21 UNK     1      19.224  -8.845  37.208  1.00  0.00     0.025 A 
HETATM   27 Cl1  UNK     1      19.271 -10.852  39.018  1.00  0.00    -0.084 Cl
HETATM   28  C19 UNK     1      19.417  -7.524  36.805  1.00  0.00     0.018 A 
ENDBRANCH  19  22
ENDBRANCH   2  18
TORSDOF 3
ENDMDL
MODEL 7
REMARK VINA RESULT:      -9.3      6.636     11.158
REMARK  3 active torsions:
REMARK  status: ('A' for Active; 'I' for Inactive)
REMARK       I    between atoms: C16_21  and  N1_5 
REMARK    1  A    between atoms: C6_11  and  N1_5 
REMARK    2  A    between atoms: C1_6  and  C2_7 
REMARK    3  A    between atoms: C16_21  and  C17_22 
ROOT
HETATM    1  C2  UNK     1      18.453   1.249  33.954  1.00  0.00    -0.020 A 
HETATM    2  C6  UNK     1      18.739  -1.218  35.224  1.00  0.00     0.035 A 
HETATM    3  C7  UNK     1      18.455   1.178  35.347  1.00  0.00     0.014 A 
HETATM    4  C8  UNK     1      18.594   0.088  33.196  1.00  0.00     0.014 A 
HETATM    5  C10 UNK     1      18.597  -0.056  35.981  1.00  0.00     0.030 A 
HETATM    6  C11 UNK     1      18.737  -1.146  33.831  1.00  0.00     0.030 A 
ENDROOT
BRANCH   1   7
HETATM    7  C1  UNK     1      18.303   2.553  33.282  1.00  0.00     0.051 A 
HETATM    8  C4  UNK     1      18.186   3.661  34.030  1.00  0.00     0.032 A 
HETATM    9  C3  UNK     1      18.020   4.967  33.416  1.00  0.00    -0.001 A 
HETATM   10  C12 UNK     1      17.904   6.137  34.170  1.00  0.00     0.014 A 
HETATM   11  C5  UNK     1      17.972   5.055  32.030  1.00  0.00     0.089 A 
HETATM   12  C14 UNK     1      17.742   7.370  33.529  1.00  0.00     0.001 A 
HETATM   13  C15 UNK     1      17.697   7.438  32.135  1.00  0.00     0.003 A 
HETATM   14  C13 UNK     1      17.812   6.275  31.377  1.00  0.00     0.038 A 
HETATM   15  O1  UNK     1      18.087   3.897  31.238  1.00  0.00    -0.274 OA
HETATM   16  C9  UNK     1      18.261   2.633  31.796  1.00  0.00     0.299 A 
HETATM   17  O2  UNK     1      18.382   1.641  31.086  1.00  0.00    -0.259 OA
ENDBRANCH   1   7
BRANCH   2  18
HETATM   18  N1  UNK     1      18.880  -2.452  35.859  1.00  0.00    -0.323 N 
HETATM   19  C16 UNK     1      20.064  -3.151  36.133  1.00  0.00     0.256 C 
HETATM   20  O3  UNK     1      21.206  -2.798  35.859  1.00  0.00    -0.267 OA
HETATM   21  H8  UNK     1      18.003  -2.846  36.185  1.00  0.00     0.169 HD
BRANCH  19  22
HETATM   22  C17 UNK     1      19.887  -4.466  36.802  1.00  0.00     0.032 A 
HETATM   23  C18 UNK     1      18.827  -5.264  36.429  1.00  0.00     0.018 A 
HETATM   24  C20 UNK     1      18.661  -6.499  37.056  1.00  0.00     0.025 A 
HETATM   25  C22 UNK     1      19.561  -6.908  38.041  1.00  0.00     0.034 A 
HETATM   26  C21 UNK     1      20.626  -6.081  38.399  1.00  0.00     0.025 A 
HETATM   27 Cl1  UNK     1      19.357  -8.431  38.815  1.00  0.00    -0.084 Cl
HETATM   28  C19 UNK     1      20.791  -4.846  37.772  1.00  0.00     0.018 A 
ENDBRANCH  19  22
ENDBRANCH   2  18
TORSDOF 3
ENDMDL
MODEL 8
REMARK VINA RESULT:      -9.2      7.189      9.824
REMARK  3 active torsions:
REMARK  status: ('A' for Active; 'I' for Inactive)
REMARK       I    between atoms: C16_21  and  N1_5 
REMARK    1  A    between atoms: C6_11  and  N1_5 
REMARK    2  A    between atoms: C1_6  and  C2_7 
REMARK    3  A    between atoms: C16_21  and  C17_22 
ROOT
HETATM    1  C2  UNK     1      20.019  -4.042  36.434  1.00  0.00    -0.020 A 
HETATM    2  C6  UNK     1      19.507  -1.490  35.429  1.00  0.00     0.035 A 
HETATM    3  C7  UNK     1      20.397  -3.717  35.131  1.00  0.00     0.014 A 
HETATM    4  C8  UNK     1      19.386  -3.092  37.234  1.00  0.00     0.014 A 
HETATM    5  C10 UNK     1      20.140  -2.441  34.629  1.00  0.00     0.030 A 
HETATM    6  C11 UNK     1      19.130  -1.816  36.733  1.00  0.00     0.030 A 
ENDROOT
BRANCH   1   7
HETATM    7  C1  UNK     1      20.290  -5.391  36.965  1.00  0.00     0.051 A 
HETATM    8  C4  UNK     1      19.394  -6.366  36.753  1.00  0.00     0.032 A 
HETATM    9  C3  UNK     1      19.609  -7.707  37.268  1.00  0.00    -0.001 A 
HETATM   10  C12 UNK     1      18.696  -8.743  37.056  1.00  0.00     0.014 A 
HETATM   11  C5  UNK     1      20.760  -7.967  38.002  1.00  0.00     0.089 A 
HETATM   12  C14 UNK     1      18.949 -10.016  37.577  1.00  0.00     0.001 A 
HETATM   13  C15 UNK     1      20.112 -10.259  38.312  1.00  0.00     0.003 A 
HETATM   14  C13 UNK     1      21.026  -9.229  38.528  1.00  0.00     0.038 A 
HETATM   15  O1  UNK     1      21.702  -6.948  38.235  1.00  0.00    -0.274 OA
HETATM   16  C9  UNK     1      21.532  -5.657  37.742  1.00  0.00     0.299 A 
HETATM   17  O2  UNK     1      22.377  -4.790  37.938  1.00  0.00    -0.259 OA
ENDBRANCH   1   7
BRANCH   2  18
HETATM   18  N1  UNK     1      19.250  -0.214  34.926  1.00  0.00    -0.323 N 
HETATM   19  C16 UNK     1      18.242   0.174  34.034  1.00  0.00     0.256 C 
HETATM   20  O3  UNK     1      17.390  -0.548  33.527  1.00  0.00    -0.267 OA
HETATM   21  H8  UNK     1      19.862   0.504  35.303  1.00  0.00     0.169 HD
BRANCH  19  22
HETATM   22  C17 UNK     1      18.242   1.612  33.660  1.00  0.00     0.032 A 
HETATM   23  C18 UNK     1      18.210   1.951  32.323  1.00  0.00     0.018 A 
HETATM   24  C20 UNK     1      18.209   3.300  31.971  1.00  0.00     0.025 A 
HETATM   25  C22 UNK     1      18.239   4.281  32.963  1.00  0.00     0.034 A 
HETATM   26  C21 UNK     1      18.272   3.911  34.308  1.00  0.00     0.025 A 
HETATM   27 Cl1  UNK     1      18.239   5.946  32.529  1.00  0.00    -0.084 Cl
HETATM   28  C19 UNK     1      18.273   2.561  34.660  1.00  0.00     0.018 A 
ENDBRANCH  19  22
ENDBRANCH   2  18
TORSDOF 3
ENDMDL
MODEL 9
REMARK VINA RESULT:      -9.0      1.699      2.281
REMARK  3 active torsions:
REMARK  status: ('A' for Active; 'I' for Inactive)
REMARK       I    between atoms: C16_21  and  N1_5 
REMARK    1  A    between atoms: C6_11  and  N1_5 
REMARK    2  A    between atoms: C1_6  and  C2_7 
REMARK    3  A    between atoms: C16_21  and  C17_22 
ROOT
HETATM    1  C2  UNK     1      18.366   3.941  32.335  1.00  0.00    -0.020 A 
HETATM    2  C6  UNK     1      17.777   6.620  32.841  1.00  0.00     0.035 A 
HETATM    3  C7  UNK     1      18.257   4.843  31.276  1.00  0.00     0.014 A 
HETATM    4  C8  UNK     1      18.182   4.378  33.645  1.00  0.00     0.014 A 
HETATM    5  C10 UNK     1      17.962   6.182  31.529  1.00  0.00     0.030 A 
HETATM    6  C11 UNK     1      17.887   5.718  33.899  1.00  0.00     0.030 A 
ENDROOT
BRANCH   1   7
HETATM    7  C1  UNK     1      18.678   2.525  32.068  1.00  0.00     0.051 A 
HETATM    8  C4  UNK     1      19.157   2.180  30.863  1.00  0.00     0.032 A 
HETATM    9  C3  UNK     1      19.465   0.795  30.547  1.00  0.00    -0.001 A 
HETATM   10  C12 UNK     1      19.971   0.409  29.303  1.00  0.00     0.014 A 
HETATM   11  C5  UNK     1      19.244  -0.178  31.512  1.00  0.00     0.089 A 
HETATM   12  C14 UNK     1      20.248  -0.938  29.048  1.00  0.00     0.001 A 
HETATM   13  C15 UNK     1      20.020  -1.903  30.032  1.00  0.00     0.003 A 
HETATM   14  C13 UNK     1      19.514  -1.524  31.274  1.00  0.00     0.038 A 
HETATM   15  O1  UNK     1      18.735   0.174  32.777  1.00  0.00    -0.274 OA
HETATM   16  C9  UNK     1      18.444   1.493  33.116  1.00  0.00     0.299 A 
HETATM   17  O2  UNK     1      18.023   1.780  34.231  1.00  0.00    -0.259 OA
ENDBRANCH   1   7
BRANCH   2  18
HETATM   18  N1  UNK     1      17.482   7.960  33.093  1.00  0.00    -0.323 N 
HETATM   19  C16 UNK     1      18.268   8.905  33.767  1.00  0.00     0.256 C 
HETATM   20  O3  UNK     1      19.374   8.721  34.264  1.00  0.00    -0.267 OA
HETATM   21  H8  UNK     1      16.600   8.266  32.692  1.00  0.00     0.169 HD
BRANCH  19  22
HETATM   22  C17 UNK     1      17.663  10.255  33.903  1.00  0.00     0.032 A 
HETATM   23  C18 UNK     1      18.496  11.351  33.989  1.00  0.00     0.018 A 
HETATM   24  C20 UNK     1      17.930  12.619  34.116  1.00  0.00     0.025 A 
HETATM   25  C22 UNK     1      16.542  12.763  34.152  1.00  0.00     0.034 A 
HETATM   26  C21 UNK     1      15.722  11.638  34.063  1.00  0.00     0.025 A 
HETATM   27 Cl1  UNK     1      15.843  14.327  34.309  1.00  0.00    -0.084 Cl
HETATM   28  C19 UNK     1      16.289  10.370  33.937  1.00  0.00     0.018 A 
ENDBRANCH  19  22
ENDBRANCH   2  18
TORSDOF 3
ENDMDL
MODEL 10
REMARK VINA RESULT:      -9.0      3.781     10.704
REMARK  3 active torsions:
REMARK  status: ('A' for Active; 'I' for Inactive)
REMARK       I    between atoms: C16_21  and  N1_5 
REMARK    1  A    between atoms: C6_11  and  N1_5 
REMARK    2  A    between atoms: C1_6  and  C2_7 
REMARK    3  A    between atoms: C16_21  and  C17_22 
ROOT
HETATM    1  C2  UNK     1      17.048   8.659  33.477  1.00  0.00    -0.020 A 
HETATM    2  C6  UNK     1      17.680   6.266  32.191  1.00  0.00     0.035 A 
HETATM    3  C7  UNK     1      18.057   7.841  33.984  1.00  0.00     0.014 A 
HETATM    4  C8  UNK     1      16.355   8.283  32.328  1.00  0.00     0.014 A 
HETATM    5  C10 UNK     1      18.372   6.644  33.342  1.00  0.00     0.030 A 
HETATM    6  C11 UNK     1      16.671   7.086  31.684  1.00  0.00     0.030 A 
ENDROOT
BRANCH   1   7
HETATM    7  C1  UNK     1      16.714   9.925  34.157  1.00  0.00     0.051 A 
HETATM    8  C4  UNK     1      15.551  10.022  34.817  1.00  0.00     0.032 A 
HETATM    9  C3  UNK     1      15.171  11.252  35.490  1.00  0.00    -0.001 A 
HETATM   10  C12 UNK     1      13.969  11.379  36.192  1.00  0.00     0.014 A 
HETATM   11  C5  UNK     1      16.030  12.343  35.430  1.00  0.00     0.089 A 
HETATM   12  C14 UNK     1      13.648  12.587  36.819  1.00  0.00     0.001 A 
HETATM   13  C15 UNK     1      14.526  13.672  36.748  1.00  0.00     0.003 A 
HETATM   14  C13 UNK     1      15.725  13.553  36.049  1.00  0.00     0.038 A 
HETATM   15  O1  UNK     1      17.249  12.252  34.733  1.00  0.00    -0.274 OA
HETATM   16  C9  UNK     1      17.649  11.083  34.091  1.00  0.00     0.299 A 
HETATM   17  O2  UNK     1      18.726  11.019  33.508  1.00  0.00    -0.259 OA
ENDBRANCH   1   7
BRANCH   2  18
HETATM   18  N1  UNK     1      17.995   5.068  31.549  1.00  0.00    -0.323 N 
HETATM   19  C16 UNK     1      18.092   3.788  32.110  1.00  0.00     0.256 C 
HETATM   20  O3  UNK     1      17.913   3.485  33.285  1.00  0.00    -0.267 OA
HETATM   21  H8  UNK     1      18.127   5.165  30.547  1.00  0.00     0.169 HD
BRANCH  19  22
HETATM   22  C17 UNK     1      18.477   2.707  31.167  1.00  0.00     0.032 A 
HETATM   23  C18 UNK     1      19.032   1.550  31.673  1.00  0.00     0.018 A 
HETATM   24  C20 UNK     1      19.393   0.534  30.788  1.00  0.00     0.025 A 
HETATM   25  C22 UNK     1      19.190   0.697  29.417  1.00  0.00     0.034 A 
HETATM   26  C21 UNK     1      18.627   1.878  28.932  1.00  0.00     0.025 A 
HETATM   27 Cl1  UNK     1      19.636  -0.556  28.325  1.00  0.00    -0.084 Cl
HETATM   28  C19 UNK     1      18.267   2.894  29.817  1.00  0.00     0.018 A 
ENDBRANCH  19  22
ENDBRANCH   2  18
TORSDOF 3
ENDMDL
