MODEL 1
REMARK VINA RESULT:      -8.5      0.000      0.000
REMARK  1 active torsions:
REMARK  status: ('A' for Active; 'I' for Inactive)
REMARK       I    between atoms: C6_11  and  N1_5 
REMARK    1  A    between atoms: C6_11  and  C9_14 
ROOT
HETATM    1 Br1  UNK     1      20.519  -1.586  29.948  1.00  0.00    -0.051 Br
HETATM    2  O2  UNK     1      18.586  -1.423  35.696  1.00  0.00    -0.274 OA
HETATM    3  O3  UNK     1      18.625  -2.247  37.826  1.00  0.00    -0.259 OA
HETATM    4  C9  UNK     1      20.029  -3.318  36.248  1.00  0.00     0.108 A 
HETATM    5  C12 UNK     1      20.475  -3.380  34.988  1.00  0.00     0.037 A 
HETATM    6  C13 UNK     1      19.986  -2.441  33.990  1.00  0.00     0.000 A 
HETATM    7  C14 UNK     1      19.035  -2.307  36.673  1.00  0.00     0.304 A 
HETATM    8  C15 UNK     1      19.052  -1.482  34.369  1.00  0.00     0.089 A 
HETATM    9  C16 UNK     1      20.424  -2.469  32.663  1.00  0.00     0.033 A 
HETATM   10  C17 UNK     1      18.543  -0.554  33.461  1.00  0.00     0.039 A 
HETATM   11  C18 UNK     1      19.923  -1.544  31.742  1.00  0.00     0.011 A 
HETATM   12  C19 UNK     1      18.985  -0.590  32.140  1.00  0.00     0.022 A 
ENDROOT
BRANCH   4  13
HETATM   13  C6  UNK     1      20.586  -4.313  37.188  1.00  0.00     0.264 C 
HETATM   14  O1  UNK     1      21.443  -3.921  37.978  1.00  0.00    -0.267 OA
HETATM   15  N1  UNK     1      20.103  -5.610  37.079  1.00  0.00    -0.308 N 
HETATM   16  C1  UNK     1      19.066  -6.129  36.135  1.00  0.00     0.093 C 
HETATM   17  C4  UNK     1      20.528  -6.695  37.884  1.00  0.00     0.044 A 
HETATM   18  C2  UNK     1      19.192  -7.667  36.159  1.00  0.00     0.066 C 
HETATM   19  C5  UNK     1      17.661  -5.699  36.573  1.00  0.00     0.033 C 
HETATM   20  C3  UNK     1      19.982  -7.890  37.408  1.00  0.00    -0.029 A 
HETATM   21  C7  UNK     1      20.249  -9.105  38.022  1.00  0.00     0.009 A 
HETATM   22  C10 UNK     1      21.074  -9.112  39.145  1.00  0.00     0.001 A 
HETATM   23  C11 UNK     1      21.626  -7.917  39.627  1.00  0.00     0.002 A 
HETATM   24  C8  UNK     1      21.360  -6.698  38.996  1.00  0.00     0.030 A 
ENDBRANCH   4  13
TORSDOF 1
ENDMDL
MODEL 2
REMARK VINA RESULT:      -8.3      8.615     13.192
REMARK  1 active torsions:
REMARK  status: ('A' for Active; 'I' for Inactive)
REMARK       I    between atoms: C6_11  and  N1_5 
REMARK    1  A    between atoms: C6_11  and  C9_14 
ROOT
HETATM    1 Br1  UNK     1      18.300   0.170  35.579  1.00  0.00    -0.051 Br
HETATM    2  O2  UNK     1      18.380   4.368  31.201  1.00  0.00    -0.274 OA
HETATM    3  O3  UNK     1      18.320   6.557  30.550  1.00  0.00    -0.259 OA
HETATM    4  C9  UNK     1      18.193   6.138  32.878  1.00  0.00     0.108 A 
HETATM    5  C12 UNK     1      18.172   5.236  33.867  1.00  0.00     0.037 A 
HETATM    6  C13 UNK     1      18.257   3.816  33.564  1.00  0.00     0.000 A 
HETATM    7  C14 UNK     1      18.301   5.734  31.457  1.00  0.00     0.304 A 
HETATM    8  C15 UNK     1      18.359   3.414  32.236  1.00  0.00     0.089 A 
HETATM    9  C16 UNK     1      18.239   2.839  34.565  1.00  0.00     0.033 A 
HETATM   10  C17 UNK     1      18.444   2.069  31.880  1.00  0.00     0.039 A 
HETATM   11  C18 UNK     1      18.323   1.486  34.222  1.00  0.00     0.011 A 
HETATM   12  C19 UNK     1      18.425   1.103  32.884  1.00  0.00     0.022 A 
ENDROOT
BRANCH   4  13
HETATM   13  C6  UNK     1      18.103   7.556  33.285  1.00  0.00     0.264 C 
HETATM   14  O1  UNK     1      19.160   8.174  33.401  1.00  0.00    -0.267 OA
HETATM   15  N1  UNK     1      16.830   8.056  33.519  1.00  0.00    -0.308 N 
HETATM   16  C1  UNK     1      15.522   7.342  33.391  1.00  0.00     0.093 C 
HETATM   17  C4  UNK     1      16.552   9.384  33.927  1.00  0.00     0.044 A 
HETATM   18  C2  UNK     1      14.483   8.207  34.135  1.00  0.00     0.066 C 
HETATM   19  C5  UNK     1      15.129   7.176  31.919  1.00  0.00     0.033 C 
HETATM   20  C3  UNK     1      15.197   9.516  34.244  1.00  0.00    -0.029 A 
HETATM   21  C7  UNK     1      14.668  10.723  34.677  1.00  0.00     0.009 A 
HETATM   22  C10 UNK     1      15.520  11.820  34.780  1.00  0.00     0.001 A 
HETATM   23  C11 UNK     1      16.881  11.694  34.465  1.00  0.00     0.002 A 
HETATM   24  C8  UNK     1      17.408  10.471  34.040  1.00  0.00     0.030 A 
ENDBRANCH   4  13
TORSDOF 1
ENDMDL
MODEL 3
REMARK VINA RESULT:      -8.0     12.159     14.877
REMARK  1 active torsions:
REMARK  status: ('A' for Active; 'I' for Inactive)
REMARK       I    between atoms: C6_11  and  N1_5 
REMARK    1  A    between atoms: C6_11  and  C9_14 
ROOT
HETATM    1 Br1  UNK     1      15.796  15.381  35.752  1.00  0.00    -0.051 Br
HETATM    2  O2  UNK     1      14.107   9.590  35.106  1.00  0.00    -0.274 OA
HETATM    3  O3  UNK     1      14.317   7.566  34.068  1.00  0.00    -0.259 OA
HETATM    4  C9  UNK     1      15.747   9.298  33.317  1.00  0.00     0.108 A 
HETATM    5  C12 UNK     1      16.142  10.572  33.434  1.00  0.00     0.037 A 
HETATM    6  C13 UNK     1      15.523  11.443  34.421  1.00  0.00     0.000 A 
HETATM    7  C14 UNK     1      14.680   8.732  34.173  1.00  0.00     0.304 A 
HETATM    8  C15 UNK     1      14.518  10.930  35.236  1.00  0.00     0.089 A 
HETATM    9  C16 UNK     1      15.903  12.779  34.578  1.00  0.00     0.033 A 
HETATM   10  C17 UNK     1      13.885  11.713  36.200  1.00  0.00     0.039 A 
HETATM   11  C18 UNK     1      15.276  13.575  35.542  1.00  0.00     0.011 A 
HETATM   12  C19 UNK     1      14.270  13.043  36.350  1.00  0.00     0.022 A 
ENDROOT
BRANCH   4  13
HETATM   13  C6  UNK     1      16.437   8.493  32.287  1.00  0.00     0.264 C 
HETATM   14  O1  UNK     1      15.915   8.439  31.174  1.00  0.00    -0.267 OA
HETATM   15  N1  UNK     1      17.604   7.853  32.677  1.00  0.00    -0.308 N 
HETATM   16  C1  UNK     1      18.272   7.891  34.015  1.00  0.00     0.093 C 
HETATM   17  C4  UNK     1      18.391   7.032  31.832  1.00  0.00     0.044 A 
HETATM   18  C2  UNK     1      19.280   6.723  34.028  1.00  0.00     0.066 C 
HETATM   19  C5  UNK     1      18.994   9.226  34.231  1.00  0.00     0.033 C 
HETATM   20  C3  UNK     1      19.396   6.402  32.572  1.00  0.00    -0.029 A 
HETATM   21  C7  UNK     1      20.301   5.537  31.977  1.00  0.00     0.009 A 
HETATM   22  C10 UNK     1      20.198   5.313  30.605  1.00  0.00     0.001 A 
HETATM   23  C11 UNK     1      19.192   5.940  29.857  1.00  0.00     0.002 A 
HETATM   24  C8  UNK     1      18.276   6.802  30.468  1.00  0.00     0.030 A 
ENDBRANCH   4  13
TORSDOF 1
ENDMDL
MODEL 4
REMARK VINA RESULT:      -7.8     11.792     13.377
REMARK  1 active torsions:
REMARK  status: ('A' for Active; 'I' for Inactive)
REMARK       I    between atoms: C6_11  and  N1_5 
REMARK    1  A    between atoms: C6_11  and  C9_14 
ROOT
HETATM    1 Br1  UNK     1      34.809  -7.104  29.852  1.00  0.00    -0.051 Br
HETATM    2  O2  UNK     1      35.172  -7.058  35.907  1.00  0.00    -0.274 OA
HETATM    3  O3  UNK     1      34.161  -6.983  37.955  1.00  0.00    -0.259 OA
HETATM    4  C9  UNK     1      32.736  -6.926  36.064  1.00  0.00     0.108 A 
HETATM    5  C12 UNK     1      32.622  -6.934  34.730  1.00  0.00     0.037 A 
HETATM    6  C13 UNK     1      33.810  -7.007  33.895  1.00  0.00     0.000 A 
HETATM    7  C14 UNK     1      34.054  -6.990  36.734  1.00  0.00     0.304 A 
HETATM    8  C15 UNK     1      35.060  -7.068  34.504  1.00  0.00     0.089 A 
HETATM    9  C16 UNK     1      33.739  -7.018  32.498  1.00  0.00     0.033 A 
HETATM   10  C17 UNK     1      36.236  -7.138  33.760  1.00  0.00     0.039 A 
HETATM   11  C18 UNK     1      34.911  -7.088  31.739  1.00  0.00     0.011 A 
HETATM   12  C19 UNK     1      36.156  -7.149  32.369  1.00  0.00     0.022 A 
ENDROOT
BRANCH   4  13
HETATM   13  C6  UNK     1      31.472  -6.852  36.827  1.00  0.00     0.264 C 
HETATM   14  O1  UNK     1      30.966  -5.739  36.969  1.00  0.00    -0.267 OA
HETATM   15  N1  UNK     1      30.979  -8.046  37.332  1.00  0.00    -0.308 N 
HETATM   16  C1  UNK     1      31.559  -9.417  37.184  1.00  0.00     0.093 C 
HETATM   17  C4  UNK     1      29.791  -8.167  38.095  1.00  0.00     0.044 A 
HETATM   18  C2  UNK     1      30.862 -10.297  38.243  1.00  0.00     0.066 C 
HETATM   19  C5  UNK     1      31.310  -9.970  35.777  1.00  0.00     0.033 C 
HETATM   20  C3  UNK     1      29.670  -9.466  38.596  1.00  0.00    -0.029 A 
HETATM   21  C7  UNK     1      28.592  -9.842  39.382  1.00  0.00     0.009 A 
HETATM   22  C10 UNK     1      27.611  -8.892  39.658  1.00  0.00     0.001 A 
HETATM   23  C11 UNK     1      27.726  -7.587  39.161  1.00  0.00     0.002 A 
HETATM   24  C8  UNK     1      28.823  -7.213  38.377  1.00  0.00     0.030 A 
ENDBRANCH   4  13
TORSDOF 1
ENDMDL
MODEL 5
REMARK VINA RESULT:      -7.6     10.506     12.639
REMARK  1 active torsions:
REMARK  status: ('A' for Active; 'I' for Inactive)
REMARK       I    between atoms: C6_11  and  N1_5 
REMARK    1  A    between atoms: C6_11  and  C9_14 
ROOT
HETATM    1 Br1  UNK     1      26.956  -9.951  39.827  1.00  0.00    -0.051 Br
HETATM    2  O2  UNK     1      30.144  -5.438  37.323  1.00  0.00    -0.274 OA
HETATM    3  O3  UNK     1      31.510  -4.655  35.667  1.00  0.00    -0.259 OA
HETATM    4  C9  UNK     1      30.850  -6.925  35.514  1.00  0.00     0.108 A 
HETATM    5  C12 UNK     1      30.157  -7.940  36.042  1.00  0.00     0.037 A 
HETATM    6  C13 UNK     1      29.401  -7.751  37.270  1.00  0.00     0.000 A 
HETATM    7  C14 UNK     1      30.876  -5.587  36.148  1.00  0.00     0.304 A 
HETATM    8  C15 UNK     1      29.412  -6.502  37.882  1.00  0.00     0.089 A 
HETATM    9  C16 UNK     1      28.663  -8.784  37.857  1.00  0.00     0.033 A 
HETATM   10  C17 UNK     1      28.709  -6.256  39.061  1.00  0.00     0.039 A 
HETATM   11  C18 UNK     1      27.953  -8.552  39.039  1.00  0.00     0.011 A 
HETATM   12  C19 UNK     1      27.977  -7.291  39.639  1.00  0.00     0.022 A 
ENDROOT
BRANCH   4  13
HETATM   13  C6  UNK     1      31.585  -7.214  34.264  1.00  0.00     0.264 C 
HETATM   14  O1  UNK     1      32.675  -7.774  34.371  1.00  0.00    -0.267 OA
HETATM   15  N1  UNK     1      30.983  -6.809  33.081  1.00  0.00    -0.308 N 
HETATM   16  C1  UNK     1      29.663  -6.128  32.906  1.00  0.00     0.093 C 
HETATM   17  C4  UNK     1      31.542  -6.991  31.793  1.00  0.00     0.044 A 
HETATM   18  C2  UNK     1      29.659  -5.557  31.473  1.00  0.00     0.066 C 
HETATM   19  C5  UNK     1      28.506  -7.115  33.095  1.00  0.00     0.033 C 
HETATM   20  C3  UNK     1      30.776  -6.320  30.836  1.00  0.00    -0.029 A 
HETATM   21  C7  UNK     1      31.116  -6.338  29.492  1.00  0.00     0.009 A 
HETATM   22  C10 UNK     1      32.245  -7.057  29.104  1.00  0.00     0.001 A 
HETATM   23  C11 UNK     1      33.019  -7.731  30.058  1.00  0.00     0.002 A 
HETATM   24  C8  UNK     1      32.675  -7.698  31.413  1.00  0.00     0.030 A 
ENDBRANCH   4  13
TORSDOF 1
ENDMDL
MODEL 6
REMARK VINA RESULT:      -7.6     11.774     13.540
REMARK  1 active torsions:
REMARK  status: ('A' for Active; 'I' for Inactive)
REMARK       I    between atoms: C6_11  and  N1_5 
REMARK    1  A    between atoms: C6_11  and  C9_14 
ROOT
HETATM    1 Br1  UNK     1      26.923  -9.582  39.801  1.00  0.00    -0.051 Br
HETATM    2  O2  UNK     1      29.825  -4.730  37.602  1.00  0.00    -0.274 OA
HETATM    3  O3  UNK     1      31.695  -3.776  36.699  1.00  0.00    -0.259 OA
HETATM    4  C9  UNK     1      31.819  -6.087  37.204  1.00  0.00     0.108 A 
HETATM    5  C12 UNK     1      31.206  -7.176  37.683  1.00  0.00     0.037 A 
HETATM    6  C13 UNK     1      29.834  -7.095  38.159  1.00  0.00     0.000 A 
HETATM    7  C14 UNK     1      31.136  -4.775  37.138  1.00  0.00     0.304 A 
HETATM    8  C15 UNK     1      29.175  -5.871  38.107  1.00  0.00     0.089 A 
HETATM    9  C16 UNK     1      29.156  -8.206  38.669  1.00  0.00     0.033 A 
HETATM   10  C17 UNK     1      27.860  -5.727  38.548  1.00  0.00     0.039 A 
HETATM   11  C18 UNK     1      27.837  -8.076  39.115  1.00  0.00     0.011 A 
HETATM   12  C19 UNK     1      27.191  -6.839  39.054  1.00  0.00     0.022 A 
ENDROOT
BRANCH   4  13
HETATM   13  C6  UNK     1      33.211  -6.271  36.742  1.00  0.00     0.264 C 
HETATM   14  O1  UNK     1      34.105  -6.068  37.563  1.00  0.00    -0.267 OA
HETATM   15  N1  UNK     1      33.384  -6.637  35.416  1.00  0.00    -0.308 N 
HETATM   16  C1  UNK     1      32.328  -6.893  34.387  1.00  0.00     0.093 C 
HETATM   17  C4  UNK     1      34.641  -6.846  34.797  1.00  0.00     0.044 A 
HETATM   18  C2  UNK     1      33.044  -6.872  33.019  1.00  0.00     0.066 C 
HETATM   19  C5  UNK     1      31.652  -8.249  34.618  1.00  0.00     0.033 C 
HETATM   20  C3  UNK     1      34.476  -7.031  33.421  1.00  0.00    -0.029 A 
HETATM   21  C7  UNK     1      35.559  -7.250  32.584  1.00  0.00     0.009 A 
HETATM   22  C10 UNK     1      36.833  -7.295  33.147  1.00  0.00     0.001 A 
HETATM   23  C11 UNK     1      37.006  -7.108  34.525  1.00  0.00     0.002 A 
HETATM   24  C8  UNK     1      35.909  -6.877  35.361  1.00  0.00     0.030 A 
ENDBRANCH   4  13
TORSDOF 1
ENDMDL
MODEL 7
REMARK VINA RESULT:      -7.6     28.623     30.549
REMARK  1 active torsions:
REMARK  status: ('A' for Active; 'I' for Inactive)
REMARK       I    between atoms: C6_11  and  N1_5 
REMARK    1  A    between atoms: C6_11  and  C9_14 
ROOT
HETATM    1 Br1  UNK     1       4.232   5.539  15.659  1.00  0.00    -0.051 Br
HETATM    2  O2  UNK     1       5.517   3.576  10.065  1.00  0.00    -0.274 OA
HETATM    3  O3  UNK     1       7.000   3.313   8.346  1.00  0.00    -0.259 OA
HETATM    4  C9  UNK     1       7.812   4.391  10.293  1.00  0.00     0.108 A 
HETATM    5  C12 UNK     1       7.560   4.835  11.530  1.00  0.00     0.037 A 
HETATM    6  C13 UNK     1       6.238   4.667  12.113  1.00  0.00     0.000 A 
HETATM    7  C14 UNK     1       6.772   3.721   9.479  1.00  0.00     0.304 A 
HETATM    8  C15 UNK     1       5.246   4.041  11.366  1.00  0.00     0.089 A 
HETATM    9  C16 UNK     1       5.930   5.116  13.401  1.00  0.00     0.033 A 
HETATM   10  C17 UNK     1       3.959   3.850  11.867  1.00  0.00     0.039 A 
HETATM   11  C18 UNK     1       4.643   4.932  13.917  1.00  0.00     0.011 A 
HETATM   12  C19 UNK     1       3.661   4.300  13.151  1.00  0.00     0.022 A 
ENDROOT
BRANCH   4  13
HETATM   13  C6  UNK     1       9.184   4.606   9.789  1.00  0.00     0.264 C 
HETATM   14  O1  UNK     1       9.946   3.639   9.805  1.00  0.00    -0.267 OA
HETATM   15  N1  UNK     1       9.496   5.888   9.360  1.00  0.00    -0.308 N 
HETATM   16  C1  UNK     1       8.604   7.088   9.323  1.00  0.00     0.093 C 
HETATM   17  C4  UNK     1      10.760   6.282   8.858  1.00  0.00     0.044 A 
HETATM   18  C2  UNK     1       9.531   8.310   9.148  1.00  0.00     0.066 C 
HETATM   19  C5  UNK     1       7.608   6.998   8.161  1.00  0.00     0.033 C 
HETATM   20  C3  UNK     1      10.798   7.668   8.680  1.00  0.00    -0.029 A 
HETATM   21  C7  UNK     1      11.931   8.307   8.201  1.00  0.00     0.009 A 
HETATM   22  C10 UNK     1      13.044   7.532   7.885  1.00  0.00     0.001 A 
HETATM   23  C11 UNK     1      13.015   6.142   8.062  1.00  0.00     0.002 A 
HETATM   24  C8  UNK     1      11.871   5.506   8.555  1.00  0.00     0.030 A 
ENDBRANCH   4  13
TORSDOF 1
ENDMDL
MODEL 8
REMARK VINA RESULT:      -7.5     11.531     13.134
REMARK  1 active torsions:
REMARK  status: ('A' for Active; 'I' for Inactive)
REMARK       I    between atoms: C6_11  and  N1_5 
REMARK    1  A    between atoms: C6_11  and  C9_14 
ROOT
HETATM    1 Br1  UNK     1      34.293  -7.435  29.826  1.00  0.00    -0.051 Br
HETATM    2  O2  UNK     1      34.836  -6.995  35.852  1.00  0.00    -0.274 OA
HETATM    3  O3  UNK     1      34.039  -7.414  37.952  1.00  0.00    -0.259 OA
HETATM    4  C9  UNK     1      32.731  -8.205  36.143  1.00  0.00     0.108 A 
HETATM    5  C12 UNK     1      32.582  -8.319  34.817  1.00  0.00     0.037 A 
HETATM    6  C13 UNK     1      33.580  -7.761  33.918  1.00  0.00     0.000 A 
HETATM    7  C14 UNK     1      33.900  -7.519  36.739  1.00  0.00     0.304 A 
HETATM    8  C15 UNK     1      34.686  -7.112  34.457  1.00  0.00     0.089 A 
HETATM    9  C16 UNK     1      33.465  -7.856  32.528  1.00  0.00     0.033 A 
HETATM   10  C17 UNK     1      35.677  -6.556  33.650  1.00  0.00     0.039 A 
HETATM   11  C18 UNK     1      34.452  -7.303  31.705  1.00  0.00     0.011 A 
HETATM   12  C19 UNK     1      35.554  -6.655  32.266  1.00  0.00     0.022 A 
ENDROOT
BRANCH   4  13
HETATM   13  C6  UNK     1      31.666  -8.805  36.973  1.00  0.00     0.264 C 
HETATM   14  O1  UNK     1      31.801  -9.986  37.293  1.00  0.00    -0.267 OA
HETATM   15  N1  UNK     1      30.597  -7.984  37.302  1.00  0.00    -0.308 N 
HETATM   16  C1  UNK     1      30.393  -6.548  36.936  1.00  0.00     0.093 C 
HETATM   17  C4  UNK     1      29.483  -8.388  38.078  1.00  0.00     0.044 A 
HETATM   18  C2  UNK     1      28.903  -6.243  37.200  1.00  0.00     0.066 C 
HETATM   19  C5  UNK     1      31.287  -5.633  37.780  1.00  0.00     0.033 C 
HETATM   20  C3  UNK     1      28.507  -7.387  38.078  1.00  0.00    -0.029 A 
HETATM   21  C7  UNK     1      27.312  -7.539  38.763  1.00  0.00     0.009 A 
HETATM   22  C10 UNK     1      27.101  -8.720  39.472  1.00  0.00     0.001 A 
HETATM   23  C11 UNK     1      28.074  -9.729  39.475  1.00  0.00     0.002 A 
HETATM   24  C8  UNK     1      29.273  -9.572  38.772  1.00  0.00     0.030 A 
ENDBRANCH   4  13
TORSDOF 1
ENDMDL
MODEL 9
REMARK VINA RESULT:      -7.5     10.691     12.454
REMARK  1 active torsions:
REMARK  status: ('A' for Active; 'I' for Inactive)
REMARK       I    between atoms: C6_11  and  N1_5 
REMARK    1  A    between atoms: C6_11  and  C9_14 
ROOT
HETATM    1 Br1  UNK     1      28.849  -9.985  28.355  1.00  0.00    -0.051 Br
HETATM    2  O2  UNK     1      31.337 -11.236  33.745  1.00  0.00    -0.274 OA
HETATM    3  O3  UNK     1      31.538 -10.819  35.982  1.00  0.00    -0.259 OA
HETATM    4  C9  UNK     1      30.022  -9.453  34.779  1.00  0.00     0.108 A 
HETATM    5  C12 UNK     1      29.455  -9.153  33.605  1.00  0.00     0.037 A 
HETATM    6  C13 UNK     1      29.810  -9.899  32.408  1.00  0.00     0.000 A 
HETATM    7  C14 UNK     1      31.018 -10.541  34.908  1.00  0.00     0.304 A 
HETATM    8  C15 UNK     1      30.744 -10.926  32.506  1.00  0.00     0.089 A 
HETATM    9  C16 UNK     1      29.244  -9.619  31.161  1.00  0.00     0.033 A 
HETATM   10  C17 UNK     1      31.127 -11.678  31.397  1.00  0.00     0.039 A 
HETATM   11  C18 UNK     1      29.619 -10.366  30.039  1.00  0.00     0.011 A 
HETATM   12  C19 UNK     1      30.558 -11.392  30.158  1.00  0.00     0.022 A 
ENDROOT
BRANCH   4  13
HETATM   13  C6  UNK     1      29.595  -8.640  35.937  1.00  0.00     0.264 C 
HETATM   14  O1  UNK     1      28.726  -9.115  36.667  1.00  0.00    -0.267 OA
HETATM   15  N1  UNK     1      30.203  -7.402  36.086  1.00  0.00    -0.308 N 
HETATM   16  C1  UNK     1      31.261  -6.787  35.224  1.00  0.00     0.093 C 
HETATM   17  C4  UNK     1      29.914  -6.484  37.125  1.00  0.00     0.044 A 
HETATM   18  C2  UNK     1      31.291  -5.286  35.583  1.00  0.00     0.066 C 
HETATM   19  C5  UNK     1      32.627  -7.430  35.489  1.00  0.00     0.033 C 
HETATM   20  C3  UNK     1      30.564  -5.269  36.890  1.00  0.00    -0.029 A 
HETATM   21  C7  UNK     1      30.439  -4.199  37.762  1.00  0.00     0.009 A 
HETATM   22  C10 UNK     1      29.651  -4.361  38.900  1.00  0.00     0.001 A 
HETATM   23  C11 UNK     1      28.995  -5.576  39.142  1.00  0.00     0.002 A 
HETATM   24  C8  UNK     1      29.119  -6.647  38.251  1.00  0.00     0.030 A 
ENDBRANCH   4  13
TORSDOF 1
ENDMDL
MODEL 10
REMARK VINA RESULT:      -7.5     13.451     14.745
REMARK  1 active torsions:
REMARK  status: ('A' for Active; 'I' for Inactive)
REMARK       I    between atoms: C6_11  and  N1_5 
REMARK    1  A    between atoms: C6_11  and  C9_14 
ROOT
HETATM    1 Br1  UNK     1      28.402  -6.519  39.242  1.00  0.00    -0.051 Br
HETATM    2  O2  UNK     1      32.701  -3.839  35.905  1.00  0.00    -0.274 OA
HETATM    3  O3  UNK     1      34.584  -3.971  34.619  1.00  0.00    -0.259 OA
HETATM    4  C9  UNK     1      33.742  -6.010  35.481  1.00  0.00     0.108 A 
HETATM    5  C12 UNK     1      32.808  -6.631  36.212  1.00  0.00     0.037 A 
HETATM    6  C13 UNK     1      31.744  -5.867  36.843  1.00  0.00     0.000 A 
HETATM    7  C14 UNK     1      33.731  -4.542  35.288  1.00  0.00     0.304 A 
HETATM    8  C15 UNK     1      31.715  -4.486  36.674  1.00  0.00     0.089 A 
HETATM    9  C16 UNK     1      30.749  -6.474  37.615  1.00  0.00     0.033 A 
HETATM   10  C17 UNK     1      30.722  -3.697  37.253  1.00  0.00     0.039 A 
HETATM   11  C18 UNK     1      29.747  -5.694  38.201  1.00  0.00     0.011 A 
HETATM   12  C19 UNK     1      29.734  -4.310  38.020  1.00  0.00     0.022 A 
ENDROOT
BRANCH   4  13
HETATM   13  C6  UNK     1      34.781  -6.872  34.879  1.00  0.00     0.264 C 
HETATM   14  O1  UNK     1      35.792  -7.084  35.548  1.00  0.00    -0.267 OA
HETATM   15  N1  UNK     1      34.529  -7.350  33.601  1.00  0.00    -0.308 N 
HETATM   16  C1  UNK     1      33.318  -7.117  32.754  1.00  0.00     0.093 C 
HETATM   17  C4  UNK     1      35.412  -8.177  32.864  1.00  0.00     0.044 A 
HETATM   18  C2  UNK     1      33.712  -7.523  31.318  1.00  0.00     0.066 C 
HETATM   19  C5  UNK     1      32.135  -7.959  33.244  1.00  0.00     0.033 C 
HETATM   20  C3  UNK     1      34.945  -8.335  31.556  1.00  0.00    -0.029 A 
HETATM   21  C7  UNK     1      35.634  -9.099  30.627  1.00  0.00     0.009 A 
HETATM   22  C10 UNK     1      36.812  -9.725  31.029  1.00  0.00     0.001 A 
HETATM   23  C11 UNK     1      37.288  -9.570  32.338  1.00  0.00     0.002 A 
HETATM   24  C8  UNK     1      36.591  -8.788  33.266  1.00  0.00     0.030 A 
ENDBRANCH   4  13
TORSDOF 1
ENDMDL
