MODEL 1
REMARK VINA RESULT:      -9.2      0.000      0.000
REMARK  3 active torsions:
REMARK  status: ('A' for Active; 'I' for Inactive)
REMARK    1  A    between atoms: C4_8  and  O1_2 
REMARK    2  A    between atoms: C8_12  and  O1_2 
REMARK    3  A    between atoms: C8_12  and  C9_13 
ROOT
HETATM    1  O2  UNK     1      16.505   6.855  33.218  1.00  0.00    -0.275 OA
HETATM    2  O3  UNK     1      15.279   8.254  34.547  1.00  0.00    -0.260 OA
HETATM    3  C1  UNK     1      18.929   7.136  33.103  1.00  0.00     0.004 A 
HETATM    4  C2  UNK     1      17.765   6.468  32.719  1.00  0.00     0.092 A 
HETATM    5  C3  UNK     1      18.819   8.258  34.045  1.00  0.00    -0.043 A 
HETATM    6  C4  UNK     1      18.996   4.965  31.304  1.00  0.00     0.071 A 
HETATM    7  C5  UNK     1      17.782   5.392  31.830  1.00  0.00     0.075 A 
HETATM    8  C6  UNK     1      20.143   6.690  32.563  1.00  0.00     0.017 A 
HETATM    9  C7  UNK     1      20.175   5.612  31.670  1.00  0.00     0.038 A 
HETATM   10  C10 UNK     1      17.607   8.604  34.503  1.00  0.00     0.090 A 
HETATM   11  C11 UNK     1      20.051   8.997  34.476  1.00  0.00     0.049 C 
HETATM   12  C12 UNK     1      16.370   7.910  34.107  1.00  0.00     0.288 A 
ENDROOT
BRANCH   6  13
HETATM   13  O1  UNK     1      19.035   3.918  30.436  1.00  0.00    -0.346 OA
BRANCH  13  14
HETATM   14  C8  UNK     1      18.266   2.765  30.775  1.00  0.00     0.217 C 
BRANCH  14  15
HETATM   15  C9  UNK     1      18.862   1.563  30.103  1.00  0.00     0.004 A 
HETATM   16  C13 UNK     1      18.437   1.200  28.830  1.00  0.00     0.124 A 
HETATM   17  F1  UNK     1      17.495   1.912  28.193  1.00  0.00    -0.205 F 
HETATM   18  C15 UNK     1      18.993   0.083  28.208  1.00  0.00     0.043 A 
HETATM   19  C17 UNK     1      19.972  -0.665  28.864  1.00  0.00     0.003 A 
HETATM   20  C16 UNK     1      20.393  -0.295  30.140  1.00  0.00     0.001 A 
HETATM   21  C14 UNK     1      19.836   0.822  30.762  1.00  0.00     0.012 A 
ENDBRANCH  14  15
ENDBRANCH  13  14
ENDBRANCH   6  13
TORSDOF 3
ENDMDL
MODEL 2
REMARK VINA RESULT:      -8.8      2.650      7.781
REMARK  3 active torsions:
REMARK  status: ('A' for Active; 'I' for Inactive)
REMARK    1  A    between atoms: C4_8  and  O1_2 
REMARK    2  A    between atoms: C8_12  and  O1_2 
REMARK    3  A    between atoms: C8_12  and  C9_13 
ROOT
HETATM    1  O2  UNK     1      19.224  -0.310  32.853  1.00  0.00    -0.275 OA
HETATM    2  O3  UNK     1      19.999  -2.405  33.337  1.00  0.00    -0.260 OA
HETATM    3  C1  UNK     1      19.441   0.549  30.576  1.00  0.00     0.004 A 
HETATM    4  C2  UNK     1      19.030   0.711  31.900  1.00  0.00     0.092 A 
HETATM    5  C3  UNK     1      20.082  -0.714  30.188  1.00  0.00    -0.043 A 
HETATM    6  C4  UNK     1      18.195   2.921  31.458  1.00  0.00     0.071 A 
HETATM    7  C5  UNK     1      18.413   1.879  32.352  1.00  0.00     0.075 A 
HETATM    8  C6  UNK     1      19.212   1.610  29.690  1.00  0.00     0.017 A 
HETATM    9  C7  UNK     1      18.594   2.787  30.129  1.00  0.00     0.038 A 
HETATM   10  C10 UNK     1      20.253  -1.668  31.115  1.00  0.00     0.090 A 
HETATM   11  C11 UNK     1      20.535  -0.919  28.772  1.00  0.00     0.049 C 
HETATM   12  C12 UNK     1      19.827  -1.512  32.516  1.00  0.00     0.288 A 
ENDROOT
BRANCH   6  13
HETATM   13  O1  UNK     1      17.595   4.067  31.877  1.00  0.00    -0.346 OA
BRANCH  13  14
HETATM   14  C8  UNK     1      18.182   5.299  31.459  1.00  0.00     0.217 C 
BRANCH  14  15
HETATM   15  C9  UNK     1      18.335   6.198  32.651  1.00  0.00     0.004 A 
HETATM   16  C13 UNK     1      19.573   6.765  32.935  1.00  0.00     0.124 A 
HETATM   17  F1  UNK     1      20.635   6.516  32.156  1.00  0.00    -0.205 F 
HETATM   18  C15 UNK     1      19.712   7.600  34.042  1.00  0.00     0.043 A 
HETATM   19  C17 UNK     1      18.612   7.863  34.860  1.00  0.00     0.003 A 
HETATM   20  C16 UNK     1      17.375   7.291  34.569  1.00  0.00     0.001 A 
HETATM   21  C14 UNK     1      17.236   6.455  33.461  1.00  0.00     0.012 A 
ENDBRANCH  14  15
ENDBRANCH  13  14
ENDBRANCH   6  13
TORSDOF 3
ENDMDL
MODEL 3
REMARK VINA RESULT:      -8.6      1.552      2.276
REMARK  3 active torsions:
REMARK  status: ('A' for Active; 'I' for Inactive)
REMARK    1  A    between atoms: C4_8  and  O1_2 
REMARK    2  A    between atoms: C8_12  and  O1_2 
REMARK    3  A    between atoms: C8_12  and  C9_13 
ROOT
HETATM    1  O2  UNK     1      20.399   7.712  33.405  1.00  0.00    -0.275 OA
HETATM    2  O3  UNK     1      21.044   9.552  34.598  1.00  0.00    -0.260 OA
HETATM    3  C1  UNK     1      18.025   7.156  33.257  1.00  0.00     0.004 A 
HETATM    4  C2  UNK     1      19.357   6.884  32.941  1.00  0.00     0.092 A 
HETATM    5  C3  UNK     1      17.724   8.330  34.087  1.00  0.00    -0.043 A 
HETATM    6  C4  UNK     1      18.745   4.937  31.672  1.00  0.00     0.071 A 
HETATM    7  C5  UNK     1      19.729   5.790  32.159  1.00  0.00     0.075 A 
HETATM    8  C6  UNK     1      17.047   6.285  32.757  1.00  0.00     0.017 A 
HETATM    9  C7  UNK     1      17.406   5.184  31.970  1.00  0.00     0.038 A 
HETATM   10  C10 UNK     1      18.735   9.100  34.514  1.00  0.00     0.090 A 
HETATM   11  C11 UNK     1      16.301   8.649  34.444  1.00  0.00     0.049 C 
HETATM   12  C12 UNK     1      20.145   8.826  34.190  1.00  0.00     0.288 A 
ENDROOT
BRANCH   6  13
HETATM   13  O1  UNK     1      19.086   3.865  30.906  1.00  0.00    -0.346 OA
BRANCH  13  14
HETATM   14  C8  UNK     1      18.165   2.776  30.866  1.00  0.00     0.217 C 
BRANCH  14  15
HETATM   15  C9  UNK     1      18.822   1.603  30.199  1.00  0.00     0.004 A 
HETATM   16  C13 UNK     1      18.461   1.254  28.903  1.00  0.00     0.124 A 
HETATM   17  F1  UNK     1      17.529   1.953  28.239  1.00  0.00    -0.205 F 
HETATM   18  C15 UNK     1      19.073   0.164  28.286  1.00  0.00     0.043 A 
HETATM   19  C17 UNK     1      20.043  -0.571  28.969  1.00  0.00     0.003 A 
HETATM   20  C16 UNK     1      20.399  -0.215  30.269  1.00  0.00     0.001 A 
HETATM   21  C14 UNK     1      19.786   0.876  30.887  1.00  0.00     0.012 A 
ENDBRANCH  14  15
ENDBRANCH  13  14
ENDBRANCH   6  13
TORSDOF 3
ENDMDL
MODEL 4
REMARK VINA RESULT:      -8.6      2.493      7.844
REMARK  3 active torsions:
REMARK  status: ('A' for Active; 'I' for Inactive)
REMARK    1  A    between atoms: C4_8  and  O1_2 
REMARK    2  A    between atoms: C8_12  and  O1_2 
REMARK    3  A    between atoms: C8_12  and  C9_13 
ROOT
HETATM    1  O2  UNK     1      19.608   1.020  29.397  1.00  0.00    -0.275 OA
HETATM    2  O3  UNK     1      20.524  -0.680  28.174  1.00  0.00    -0.260 OA
HETATM    3  C1  UNK     1      19.048   0.637  31.744  1.00  0.00     0.004 A 
HETATM    4  C2  UNK     1      19.098   1.476  30.629  1.00  0.00     0.092 A 
HETATM    5  C3  UNK     1      19.540  -0.740  31.611  1.00  0.00    -0.043 A 
HETATM    6  C4  UNK     1      18.138   3.305  31.859  1.00  0.00     0.071 A 
HETATM    7  C5  UNK     1      18.651   2.798  30.670  1.00  0.00     0.075 A 
HETATM    8  C6  UNK     1      18.527   1.166  32.933  1.00  0.00     0.017 A 
HETATM    9  C7  UNK     1      18.076   2.490  32.989  1.00  0.00     0.038 A 
HETATM   10  C10 UNK     1      20.020  -1.147  30.426  1.00  0.00     0.090 A 
HETATM   11  C11 UNK     1      19.499  -1.667  32.790  1.00  0.00     0.049 C 
HETATM   12  C12 UNK     1      20.079  -0.274  29.241  1.00  0.00     0.288 A 
ENDROOT
BRANCH   6  13
HETATM   13  O1  UNK     1      17.698   4.590  31.921  1.00  0.00    -0.346 OA
BRANCH  13  14
HETATM   14  C8  UNK     1      18.561   5.598  31.396  1.00  0.00     0.217 C 
BRANCH  14  15
HETATM   15  C9  UNK     1      18.601   6.755  32.350  1.00  0.00     0.004 A 
HETATM   16  C13 UNK     1      19.717   6.948  33.158  1.00  0.00     0.124 A 
HETATM   17  F1  UNK     1      20.761   6.109  33.095  1.00  0.00    -0.205 F 
HETATM   18  C15 UNK     1      19.751   8.024  34.043  1.00  0.00     0.043 A 
HETATM   19  C17 UNK     1      18.669   8.903  34.116  1.00  0.00     0.003 A 
HETATM   20  C16 UNK     1      17.554   8.703  33.303  1.00  0.00     0.001 A 
HETATM   21  C14 UNK     1      17.519   7.626  32.418  1.00  0.00     0.012 A 
ENDBRANCH  14  15
ENDBRANCH  13  14
ENDBRANCH   6  13
TORSDOF 3
ENDMDL
MODEL 5
REMARK VINA RESULT:      -8.4      4.866      6.902
REMARK  3 active torsions:
REMARK  status: ('A' for Active; 'I' for Inactive)
REMARK    1  A    between atoms: C4_8  and  O1_2 
REMARK    2  A    between atoms: C8_12  and  O1_2 
REMARK    3  A    between atoms: C8_12  and  C9_13 
ROOT
HETATM    1  O2  UNK     1      17.151  -0.291  34.394  1.00  0.00    -0.275 OA
HETATM    2  O3  UNK     1      15.739   0.363  36.068  1.00  0.00    -0.260 OA
HETATM    3  C1  UNK     1      19.055  -1.726  34.928  1.00  0.00     0.004 A 
HETATM    4  C2  UNK     1      18.296  -1.013  33.998  1.00  0.00     0.092 A 
HETATM    5  C3  UNK     1      18.637  -1.713  36.336  1.00  0.00    -0.043 A 
HETATM    6  C4  UNK     1      19.742  -1.665  32.192  1.00  0.00     0.071 A 
HETATM    7  C5  UNK     1      18.623  -0.972  32.642  1.00  0.00     0.075 A 
HETATM    8  C6  UNK     1      20.179  -2.417  34.455  1.00  0.00     0.017 A 
HETATM    9  C7  UNK     1      20.518  -2.387  33.097  1.00  0.00     0.038 A 
HETATM   10  C10 UNK     1      17.544  -1.019  36.683  1.00  0.00     0.090 A 
HETATM   11  C11 UNK     1      19.433  -2.470  37.359  1.00  0.00     0.049 C 
HETATM   12  C12 UNK     1      16.733  -0.261  35.715  1.00  0.00     0.288 A 
ENDROOT
BRANCH   6  13
HETATM   13  O1  UNK     1      20.077  -1.640  30.874  1.00  0.00    -0.346 OA
BRANCH  13  14
HETATM   14  C8  UNK     1      20.738  -0.469  30.395  1.00  0.00     0.217 C 
BRANCH  14  15
HETATM   15  C9  UNK     1      19.713   0.488  29.860  1.00  0.00     0.004 A 
HETATM   16  C13 UNK     1      19.093   0.228  28.643  1.00  0.00     0.124 A 
HETATM   17  F1  UNK     1      19.401  -0.869  27.937  1.00  0.00    -0.205 F 
HETATM   18  C15 UNK     1      18.141   1.119  28.149  1.00  0.00     0.043 A 
HETATM   19  C17 UNK     1      17.814   2.265  28.876  1.00  0.00     0.003 A 
HETATM   20  C16 UNK     1      18.440   2.518  30.096  1.00  0.00     0.001 A 
HETATM   21  C14 UNK     1      19.393   1.627  30.589  1.00  0.00     0.012 A 
ENDBRANCH  14  15
ENDBRANCH  13  14
ENDBRANCH   6  13
TORSDOF 3
ENDMDL
MODEL 6
REMARK VINA RESULT:      -8.3      8.218      9.884
REMARK  3 active torsions:
REMARK  status: ('A' for Active; 'I' for Inactive)
REMARK    1  A    between atoms: C4_8  and  O1_2 
REMARK    2  A    between atoms: C8_12  and  O1_2 
REMARK    3  A    between atoms: C8_12  and  C9_13 
ROOT
HETATM    1  O2  UNK     1      19.022  -0.399  33.963  1.00  0.00    -0.275 OA
HETATM    2  O3  UNK     1      18.279   1.416  32.788  1.00  0.00    -0.260 OA
HETATM    3  C1  UNK     1      18.394  -0.639  36.312  1.00  0.00     0.004 A 
HETATM    4  C2  UNK     1      19.062  -1.110  35.180  1.00  0.00     0.092 A 
HETATM    5  C3  UNK     1      17.643   0.619  36.215  1.00  0.00    -0.043 A 
HETATM    6  C4  UNK     1      19.874  -3.041  36.359  1.00  0.00     0.071 A 
HETATM    7  C5  UNK     1      19.798  -2.295  35.187  1.00  0.00     0.075 A 
HETATM    8  C6  UNK     1      18.483  -1.404  37.483  1.00  0.00     0.017 A 
HETATM    9  C7  UNK     1      19.217  -2.596  37.505  1.00  0.00     0.038 A 
HETATM   10  C10 UNK     1      17.622   1.274  35.045  1.00  0.00     0.090 A 
HETATM   11  C11 UNK     1      16.915   1.151  37.415  1.00  0.00     0.049 C 
HETATM   12  C12 UNK     1      18.321   0.791  33.841  1.00  0.00     0.288 A 
ENDROOT
BRANCH   6  13
HETATM   13  O1  UNK     1      20.586  -4.200  36.387  1.00  0.00    -0.346 OA
BRANCH  13  14
HETATM   14  C8  UNK     1      19.899  -5.392  36.009  1.00  0.00     0.217 C 
BRANCH  14  15
HETATM   15  C9  UNK     1      19.862  -6.329  37.181  1.00  0.00     0.004 A 
HETATM   16  C13 UNK     1      19.084  -7.479  37.122  1.00  0.00     0.124 A 
HETATM   17  F1  UNK     1      18.362  -7.763  36.028  1.00  0.00    -0.205 F 
HETATM   18  C15 UNK     1      19.051  -8.348  38.212  1.00  0.00     0.043 A 
HETATM   19  C17 UNK     1      19.798  -8.060  39.356  1.00  0.00     0.003 A 
HETATM   20  C16 UNK     1      20.576  -6.904  39.407  1.00  0.00     0.001 A 
HETATM   21  C14 UNK     1      20.608  -6.036  38.316  1.00  0.00     0.012 A 
ENDBRANCH  14  15
ENDBRANCH  13  14
ENDBRANCH   6  13
TORSDOF 3
ENDMDL
MODEL 7
REMARK VINA RESULT:      -8.3     21.932     24.070
REMARK  3 active torsions:
REMARK  status: ('A' for Active; 'I' for Inactive)
REMARK    1  A    between atoms: C4_8  and  O1_2 
REMARK    2  A    between atoms: C8_12  and  O1_2 
REMARK    3  A    between atoms: C8_12  and  C9_13 
ROOT
HETATM    1  O2  UNK     1      10.396   5.332   9.849  1.00  0.00    -0.275 OA
HETATM    2  O3  UNK     1       8.165   5.258  10.338  1.00  0.00    -0.260 OA
HETATM    3  C1  UNK     1      11.106   5.981   7.603  1.00  0.00     0.004 A 
HETATM    4  C2  UNK     1      11.413   5.582   8.905  1.00  0.00     0.092 A 
HETATM    5  C3  UNK     1       9.695   6.139   7.229  1.00  0.00    -0.043 A 
HETATM    6  C4  UNK     1      13.774   5.640   8.455  1.00  0.00     0.071 A 
HETATM    7  C5  UNK     1      12.727   5.408   9.341  1.00  0.00     0.075 A 
HETATM    8  C6  UNK     1      12.174   6.210   6.725  1.00  0.00     0.017 A 
HETATM    9  C7  UNK     1      13.498   6.041   7.149  1.00  0.00     0.038 A 
HETATM   10  C10 UNK     1       8.748   5.895   8.148  1.00  0.00     0.090 A 
HETATM   11  C11 UNK     1       9.332   6.567   5.837  1.00  0.00     0.049 C 
HETATM   12  C12 UNK     1       9.056   5.472   9.525  1.00  0.00     0.288 A 
ENDROOT
BRANCH   6  13
HETATM   13  O1  UNK     1      15.062   5.478   8.860  1.00  0.00    -0.346 OA
BRANCH  13  14
HETATM   14  C8  UNK     1      15.354   5.765  10.227  1.00  0.00     0.217 C 
BRANCH  14  15
HETATM   15  C9  UNK     1      15.709   7.217  10.359  1.00  0.00     0.004 A 
HETATM   16  C13 UNK     1      16.958   7.664   9.943  1.00  0.00     0.124 A 
HETATM   17  F1  UNK     1      17.853   6.810   9.424  1.00  0.00    -0.205 F 
HETATM   18  C15 UNK     1      17.285   9.013  10.066  1.00  0.00     0.043 A 
HETATM   19  C17 UNK     1      16.360   9.909  10.606  1.00  0.00     0.003 A 
HETATM   20  C16 UNK     1      15.110   9.453  11.021  1.00  0.00     0.001 A 
HETATM   21  C14 UNK     1      14.783   8.102  10.898  1.00  0.00     0.012 A 
ENDBRANCH  14  15
ENDBRANCH  13  14
ENDBRANCH   6  13
TORSDOF 3
ENDMDL
MODEL 8
REMARK VINA RESULT:      -8.1      2.915      6.889
REMARK  3 active torsions:
REMARK  status: ('A' for Active; 'I' for Inactive)
REMARK    1  A    between atoms: C4_8  and  O1_2 
REMARK    2  A    between atoms: C8_12  and  O1_2 
REMARK    3  A    between atoms: C8_12  and  C9_13 
ROOT
HETATM    1  O2  UNK     1      17.872   1.834  34.008  1.00  0.00    -0.275 OA
HETATM    2  O3  UNK     1      17.512   0.533  35.852  1.00  0.00    -0.260 OA
HETATM    3  C1  UNK     1      18.812   0.819  31.994  1.00  0.00     0.004 A 
HETATM    4  C2  UNK     1      18.321   1.934  32.675  1.00  0.00     0.092 A 
HETATM    5  C3  UNK     1      18.854  -0.471  32.694  1.00  0.00    -0.043 A 
HETATM    6  C4  UNK     1      18.675   3.358  30.771  1.00  0.00     0.071 A 
HETATM    7  C5  UNK     1      18.247   3.197  32.084  1.00  0.00     0.075 A 
HETATM    8  C6  UNK     1      19.238   1.002  30.671  1.00  0.00     0.017 A 
HETATM    9  C7  UNK     1      19.169   2.262  30.065  1.00  0.00     0.038 A 
HETATM   10  C10 UNK     1      18.421  -0.537  33.961  1.00  0.00     0.090 A 
HETATM   11  C11 UNK     1      19.377  -1.688  31.989  1.00  0.00     0.049 C 
HETATM   12  C12 UNK     1      17.900   0.630  34.694  1.00  0.00     0.288 A 
ENDROOT
BRANCH   6  13
HETATM   13  O1  UNK     1      18.610   4.579  30.175  1.00  0.00    -0.346 OA
BRANCH  13  14
HETATM   14  C8  UNK     1      19.661   5.499  30.465  1.00  0.00     0.217 C 
BRANCH  14  15
HETATM   15  C9  UNK     1      19.240   6.381  31.604  1.00  0.00     0.004 A 
HETATM   16  C13 UNK     1      20.129   6.644  32.640  1.00  0.00     0.124 A 
HETATM   17  F1  UNK     1      21.362   6.116  32.636  1.00  0.00    -0.205 F 
HETATM   18  C15 UNK     1      19.735   7.464  33.697  1.00  0.00     0.043 A 
HETATM   19  C17 UNK     1      18.454   8.016  33.711  1.00  0.00     0.003 A 
HETATM   20  C16 UNK     1      17.568   7.748  32.668  1.00  0.00     0.001 A 
HETATM   21  C14 UNK     1      17.962   6.927  31.611  1.00  0.00     0.012 A 
ENDBRANCH  14  15
ENDBRANCH  13  14
ENDBRANCH   6  13
TORSDOF 3
ENDMDL
MODEL 9
REMARK VINA RESULT:      -7.9      9.917     13.161
REMARK  3 active torsions:
REMARK  status: ('A' for Active; 'I' for Inactive)
REMARK    1  A    between atoms: C4_8  and  O1_2 
REMARK    2  A    between atoms: C8_12  and  O1_2 
REMARK    3  A    between atoms: C8_12  and  C9_13 
ROOT
HETATM    1  O2  UNK     1      19.259  -8.464  36.841  1.00  0.00    -0.275 OA
HETATM    2  O3  UNK     1      19.010 -10.697  37.262  1.00  0.00    -0.260 OA
HETATM    3  C1  UNK     1      20.865  -7.172  38.153  1.00  0.00     0.004 A 
HETATM    4  C2  UNK     1      19.900  -7.246  37.148  1.00  0.00     0.092 A 
HETATM    5  C3  UNK     1      21.207  -8.394  38.892  1.00  0.00    -0.043 A 
HETATM    6  C4  UNK     1      20.114  -4.903  36.655  1.00  0.00     0.071 A 
HETATM    7  C5  UNK     1      19.517  -6.132  36.398  1.00  0.00     0.075 A 
HETATM    8  C6  UNK     1      21.456  -5.924  38.397  1.00  0.00     0.017 A 
HETATM    9  C7  UNK     1      21.083  -4.799  37.652  1.00  0.00     0.038 A 
HETATM   10  C10 UNK     1      20.582  -9.539  38.579  1.00  0.00     0.090 A 
HETATM   11  C11 UNK     1      22.241  -8.347  39.979  1.00  0.00     0.049 C 
HETATM   12  C12 UNK     1      19.561  -9.633  37.522  1.00  0.00     0.288 A 
ENDROOT
BRANCH   6  13
HETATM   13  O1  UNK     1      19.757  -3.805  35.935  1.00  0.00    -0.346 OA
BRANCH  13  14
HETATM   14  C8  UNK     1      20.099  -2.532  36.480  1.00  0.00     0.217 C 
BRANCH  14  15
HETATM   15  C9  UNK     1      18.940  -1.595  36.301  1.00  0.00     0.004 A 
HETATM   16  C13 UNK     1      18.225  -1.159  37.411  1.00  0.00     0.124 A 
HETATM   17  F1  UNK     1      18.558  -1.568  38.644  1.00  0.00    -0.205 F 
HETATM   18  C15 UNK     1      17.150  -0.288  37.241  1.00  0.00     0.043 A 
HETATM   19  C17 UNK     1      16.795   0.142  35.961  1.00  0.00     0.003 A 
HETATM   20  C16 UNK     1      17.517  -0.300  34.853  1.00  0.00     0.001 A 
HETATM   21  C14 UNK     1      18.593  -1.171  35.023  1.00  0.00     0.012 A 
ENDBRANCH  14  15
ENDBRANCH  13  14
ENDBRANCH   6  13
TORSDOF 3
ENDMDL
MODEL 10
REMARK VINA RESULT:      -7.9     10.021     13.904
REMARK  3 active torsions:
REMARK  status: ('A' for Active; 'I' for Inactive)
REMARK    1  A    between atoms: C4_8  and  O1_2 
REMARK    2  A    between atoms: C8_12  and  O1_2 
REMARK    3  A    between atoms: C8_12  and  C9_13 
ROOT
HETATM    1  O2  UNK     1      21.485  -8.985  35.197  1.00  0.00    -0.275 OA
HETATM    2  O3  UNK     1      22.429 -11.030  34.809  1.00  0.00    -0.260 OA
HETATM    3  C1  UNK     1      19.914  -8.725  37.050  1.00  0.00     0.004 A 
HETATM    4  C2  UNK     1      20.616  -8.187  35.970  1.00  0.00     0.092 A 
HETATM    5  C3  UNK     1      20.096 -10.147  37.371  1.00  0.00    -0.043 A 
HETATM    6  C4  UNK     1      19.659  -6.011  36.324  1.00  0.00     0.071 A 
HETATM    7  C5  UNK     1      20.501  -6.847  35.598  1.00  0.00     0.075 A 
HETATM    8  C6  UNK     1      19.071  -7.867  37.769  1.00  0.00     0.017 A 
HETATM    9  C7  UNK     1      18.946  -6.520  37.408  1.00  0.00     0.038 A 
HETATM   10  C10 UNK     1      20.928 -10.881  36.618  1.00  0.00     0.090 A 
HETATM   11  C11 UNK     1      19.354 -10.755  38.525  1.00  0.00     0.049 C 
HETATM   12  C12 UNK     1      21.676 -10.329  35.475  1.00  0.00     0.288 A 
ENDROOT
BRANCH   6  13
HETATM   13  O1  UNK     1      19.533  -4.701  35.979  1.00  0.00    -0.346 OA
BRANCH  13  14
HETATM   14  C8  UNK     1      20.082  -3.738  36.877  1.00  0.00     0.217 C 
BRANCH  14  15
HETATM   15  C9  UNK     1      19.348  -2.439  36.711  1.00  0.00     0.004 A 
HETATM   16  C13 UNK     1      19.462  -1.728  35.522  1.00  0.00     0.124 A 
HETATM   17  F1  UNK     1      20.222  -2.188  34.518  1.00  0.00    -0.205 F 
HETATM   18  C15 UNK     1      18.779  -0.522  35.371  1.00  0.00     0.043 A 
HETATM   19  C17 UNK     1      17.986  -0.034  36.411  1.00  0.00     0.003 A 
HETATM   20  C16 UNK     1      17.877  -0.753  37.601  1.00  0.00     0.001 A 
HETATM   21  C14 UNK     1      18.561  -1.960  37.752  1.00  0.00     0.012 A 
ENDBRANCH  14  15
ENDBRANCH  13  14
ENDBRANCH   6  13
TORSDOF 3
ENDMDL
