MODEL 1
REMARK VINA RESULT:      -9.7      0.000      0.000
REMARK  3 active torsions:
REMARK  status: ('A' for Active; 'I' for Inactive)
REMARK    1  A    between atoms: C5_9  and  N1_3 
REMARK    2  A    between atoms: C6_10  and  N2_4 
REMARK    3  A    between atoms: C5_9  and  C7_11 
ROOT
HETATM    1  N1  UNK     1      20.007  -3.896  36.759  1.00  0.00     0.095 N 
HETATM    2  N2  UNK     1      20.074  -6.738  37.039  1.00  0.00    -0.377 N 
HETATM    3  C1  UNK     1      20.947  -4.529  37.691  1.00  0.00     0.292 C 
HETATM    4  C2  UNK     1      19.803  -4.763  35.591  1.00  0.00     0.292 C 
HETATM    5  C3  UNK     1      20.416  -5.880  38.177  1.00  0.00     0.153 C 
HETATM    6  C4  UNK     1      19.231  -6.120  36.007  1.00  0.00     0.153 C 
ENDROOT
BRANCH   1   7
HETATM    7  C5  UNK     1      20.500  -2.583  36.344  1.00  0.00     0.312 C 
BRANCH   7   8
HETATM    8  C7  UNK     1      19.591  -1.945  35.331  1.00  0.00    -0.011 A 
HETATM    9  C11 UNK     1      19.896  -2.090  34.034  1.00  0.00     0.092 A 
HETATM   10  C20 UNK     1      19.081  -1.516  32.948  1.00  0.00     0.288 A 
HETATM   11  O2  UNK     1      19.391  -1.669  31.773  1.00  0.00    -0.260 OA
HETATM   12  O1  UNK     1      17.955  -0.801  33.327  1.00  0.00    -0.275 OA
HETATM   13  C13 UNK     1      17.609  -0.633  34.682  1.00  0.00     0.091 A 
HETATM   14  C9  UNK     1      18.392  -1.182  35.700  1.00  0.00     0.012 A 
HETATM   15  C18 UNK     1      16.455   0.106  34.946  1.00  0.00     0.045 A 
HETATM   16  C14 UNK     1      17.981  -0.968  37.023  1.00  0.00    -0.048 A 
HETATM   17  C19 UNK     1      16.825  -0.230  37.302  1.00  0.00     0.014 A 
HETATM   18  C23 UNK     1      18.698  -1.481  38.230  1.00  0.00     0.049 C 
HETATM   19  C21 UNK     1      16.063   0.307  36.266  1.00  0.00    -0.059 A 
HETATM   20  C24 UNK     1      14.835   1.094  36.570  1.00  0.00     0.048 C 
ENDBRANCH   7   8
ENDBRANCH   1   7
BRANCH   2  21
HETATM   21  C6  UNK     1      19.986  -8.123  37.217  1.00  0.00     0.036 A 
HETATM   22  C10 UNK     1      19.193  -8.627  38.247  1.00  0.00     0.030 A 
HETATM   23  C16 UNK     1      19.093 -10.005  38.440  1.00  0.00     0.003 A 
HETATM   24  C17 UNK     1      19.787 -10.879  37.603  1.00  0.00     0.007 A 
HETATM   25  C12 UNK     1      20.580 -10.375  36.572  1.00  0.00    -0.054 A 
HETATM   26  C8  UNK     1      20.679  -8.997  36.379  1.00  0.00    -0.029 A 
HETATM   27  C22 UNK     1      21.311 -11.332  35.690  1.00  0.00     0.049 C 
HETATM   28  C15 UNK     1      21.531  -8.459  35.272  1.00  0.00     0.051 C 
ENDBRANCH   2  21
TORSDOF 3
ENDMDL
MODEL 2
REMARK VINA RESULT:      -9.7      8.380     11.142
REMARK  3 active torsions:
REMARK  status: ('A' for Active; 'I' for Inactive)
REMARK    1  A    between atoms: C5_9  and  N1_3 
REMARK    2  A    between atoms: C6_10  and  N2_4 
REMARK    3  A    between atoms: C5_9  and  C7_11 
ROOT
HETATM    1  N1  UNK     1      18.122   4.994  32.224  1.00  0.00     0.095 N 
HETATM    2  N2  UNK     1      19.032   2.547  31.064  1.00  0.00    -0.377 N 
HETATM    3  C1  UNK     1      18.271   3.791  33.050  1.00  0.00     0.292 C 
HETATM    4  C2  UNK     1      19.146   5.007  31.171  1.00  0.00     0.292 C 
HETATM    5  C3  UNK     1      18.115   2.522  32.208  1.00  0.00     0.153 C 
HETATM    6  C4  UNK     1      19.017   3.779  30.266  1.00  0.00     0.153 C 
ENDROOT
BRANCH   1   7
HETATM    7  C5  UNK     1      18.220   6.199  33.048  1.00  0.00     0.312 C 
BRANCH   7   8
HETATM    8  C7  UNK     1      17.003   7.069  32.903  1.00  0.00    -0.011 A 
HETATM    9  C11 UNK     1      15.904   6.528  32.359  1.00  0.00     0.092 A 
HETATM   10  C20 UNK     1      14.649   7.277  32.169  1.00  0.00     0.288 A 
HETATM   11  O2  UNK     1      13.664   6.749  31.667  1.00  0.00    -0.260 OA
HETATM   12  O1  UNK     1      14.645   8.599  32.584  1.00  0.00    -0.275 OA
HETATM   13  C13 UNK     1      15.785   9.196  33.160  1.00  0.00     0.091 A 
HETATM   14  C9  UNK     1      16.967   8.473  33.333  1.00  0.00     0.012 A 
HETATM   15  C18 UNK     1      15.665  10.534  33.540  1.00  0.00     0.045 A 
HETATM   16  C14 UNK     1      18.056   9.139  33.912  1.00  0.00    -0.048 A 
HETATM   17  C19 UNK     1      17.951  10.480  34.299  1.00  0.00     0.014 A 
HETATM   18  C23 UNK     1      19.392   8.521  34.169  1.00  0.00     0.049 C 
HETATM   19  C21 UNK     1      16.758  11.177  34.113  1.00  0.00    -0.059 A 
HETATM   20  C24 UNK     1      16.653  12.605  34.525  1.00  0.00     0.048 C 
ENDBRANCH   7   8
ENDBRANCH   1   7
BRANCH   2  21
HETATM   21  C6  UNK     1      19.374   1.352  30.423  1.00  0.00     0.036 A 
HETATM   22  C10 UNK     1      20.285   0.490  31.032  1.00  0.00     0.030 A 
HETATM   23  C16 UNK     1      20.639  -0.706  30.408  1.00  0.00     0.003 A 
HETATM   24  C17 UNK     1      20.081  -1.040  29.174  1.00  0.00     0.007 A 
HETATM   25  C12 UNK     1      19.170  -0.178  28.564  1.00  0.00    -0.054 A 
HETATM   26  C8  UNK     1      18.815   1.017  29.189  1.00  0.00    -0.029 A 
HETATM   27  C22 UNK     1      18.587  -0.560  27.244  1.00  0.00     0.049 C 
HETATM   28  C15 UNK     1      17.837   1.940  28.532  1.00  0.00     0.051 C 
ENDBRANCH   2  21
TORSDOF 3
ENDMDL
MODEL 3
REMARK VINA RESULT:      -9.5      6.766     12.707
REMARK  3 active torsions:
REMARK  status: ('A' for Active; 'I' for Inactive)
REMARK    1  A    between atoms: C5_9  and  N1_3 
REMARK    2  A    between atoms: C6_10  and  N2_4 
REMARK    3  A    between atoms: C5_9  and  C7_11 
ROOT
HETATM    1  N1  UNK     1      18.651   4.165  32.198  1.00  0.00     0.095 N 
HETATM    2  N2  UNK     1      18.826   6.865  33.114  1.00  0.00    -0.377 N 
HETATM    3  C1  UNK     1      17.920   4.592  33.396  1.00  0.00     0.292 C 
HETATM    4  C2  UNK     1      18.723   5.272  31.236  1.00  0.00     0.292 C 
HETATM    5  C3  UNK     1      18.614   5.776  34.073  1.00  0.00     0.153 C 
HETATM    6  C4  UNK     1      19.446   6.478  31.840  1.00  0.00     0.153 C 
ENDROOT
BRANCH   1   7
HETATM    7  C5  UNK     1      18.008   3.000  31.591  1.00  0.00     0.312 C 
BRANCH   7   8
HETATM    8  C7  UNK     1      18.363   1.731  32.315  1.00  0.00    -0.011 A 
HETATM    9  C11 UNK     1      18.063   1.647  33.619  1.00  0.00     0.092 A 
HETATM   10  C20 UNK     1      18.355   0.455  34.435  1.00  0.00     0.288 A 
HETATM   11  O2  UNK     1      18.067   0.414  35.625  1.00  0.00    -0.260 OA
HETATM   12  O1  UNK     1      18.969  -0.607  33.788  1.00  0.00    -0.275 OA
HETATM   13  C13 UNK     1      19.295  -0.548  32.419  1.00  0.00     0.091 A 
HETATM   14  C9  UNK     1      19.013   0.589  31.659  1.00  0.00     0.012 A 
HETATM   15  C18 UNK     1      19.911  -1.676  31.874  1.00  0.00     0.045 A 
HETATM   16  C14 UNK     1      19.370   0.569  30.304  1.00  0.00    -0.048 A 
HETATM   17  C19 UNK     1      19.987  -0.555  29.743  1.00  0.00     0.014 A 
HETATM   18  C23 UNK     1      19.144   1.695  29.347  1.00  0.00     0.049 C 
HETATM   19  C21 UNK     1      20.258  -1.676  30.526  1.00  0.00    -0.059 A 
HETATM   20  C24 UNK     1      20.917  -2.869  29.924  1.00  0.00     0.048 C 
ENDBRANCH   7   8
ENDBRANCH   1   7
BRANCH   2  21
HETATM   21  C6  UNK     1      19.036   8.167  33.579  1.00  0.00     0.036 A 
HETATM   22  C10 UNK     1      20.303   8.530  34.035  1.00  0.00     0.030 A 
HETATM   23  C16 UNK     1      20.532   9.825  34.503  1.00  0.00     0.003 A 
HETATM   24  C17 UNK     1      19.493  10.756  34.515  1.00  0.00     0.007 A 
HETATM   25  C12 UNK     1      18.226  10.393  34.059  1.00  0.00    -0.054 A 
HETATM   26  C8  UNK     1      17.997   9.099  33.590  1.00  0.00    -0.029 A 
HETATM   27  C22 UNK     1      17.132  11.409  34.081  1.00  0.00     0.049 C 
HETATM   28  C15 UNK     1      16.637   8.713  33.102  1.00  0.00     0.051 C 
ENDBRANCH   2  21
TORSDOF 3
ENDMDL
MODEL 4
REMARK VINA RESULT:      -9.3      8.930     14.559
REMARK  3 active torsions:
REMARK  status: ('A' for Active; 'I' for Inactive)
REMARK    1  A    between atoms: C5_9  and  N1_3 
REMARK    2  A    between atoms: C6_10  and  N2_4 
REMARK    3  A    between atoms: C5_9  and  C7_11 
ROOT
HETATM    1  N1  UNK     1      17.791   6.925  33.300  1.00  0.00     0.095 N 
HETATM    2  N2  UNK     1      16.430   9.313  34.078  1.00  0.00    -0.377 N 
HETATM    3  C1  UNK     1      17.369   7.903  32.290  1.00  0.00     0.292 C 
HETATM    4  C2  UNK     1      18.157   7.616  34.543  1.00  0.00     0.292 C 
HETATM    5  C3  UNK     1      16.158   8.705  32.772  1.00  0.00     0.153 C 
HETATM    6  C4  UNK     1      16.971   8.407  35.100  1.00  0.00     0.153 C 
ENDROOT
BRANCH   1   7
HETATM    7  C5  UNK     1      18.914   6.128  32.807  1.00  0.00     0.312 C 
BRANCH   7   8
HETATM    8  C7  UNK     1      18.616   4.656  32.864  1.00  0.00    -0.011 A 
HETATM    9  C11 UNK     1      18.399   4.105  34.067  1.00  0.00     0.092 A 
HETATM   10  C20 UNK     1      18.093   2.676  34.253  1.00  0.00     0.288 A 
HETATM   11  O2  UNK     1      17.901   2.207  35.368  1.00  0.00    -0.260 OA
HETATM   12  O1  UNK     1      18.035   1.898  33.107  1.00  0.00    -0.275 OA
HETATM   13  C13 UNK     1      18.258   2.449  31.829  1.00  0.00     0.091 A 
HETATM   14  C9  UNK     1      18.548   3.805  31.669  1.00  0.00     0.012 A 
HETATM   15  C18 UNK     1      18.175   1.571  30.747  1.00  0.00     0.045 A 
HETATM   16  C14 UNK     1      18.758   4.275  30.365  1.00  0.00    -0.048 A 
HETATM   17  C19 UNK     1      18.677   3.407  29.271  1.00  0.00     0.014 A 
HETATM   18  C23 UNK     1      19.078   5.692  30.013  1.00  0.00     0.049 C 
HETATM   19  C21 UNK     1      18.387   2.057  29.460  1.00  0.00    -0.059 A 
HETATM   20  C24 UNK     1      18.305   1.137  28.290  1.00  0.00     0.048 C 
ENDBRANCH   7   8
ENDBRANCH   1   7
BRANCH   2  21
HETATM   21  C6  UNK     1      15.672  10.408  34.505  1.00  0.00     0.036 A 
HETATM   22  C10 UNK     1      14.328  10.220  34.826  1.00  0.00     0.030 A 
HETATM   23  C16 UNK     1      13.554  11.300  35.254  1.00  0.00     0.003 A 
HETATM   24  C17 UNK     1      14.126  12.568  35.360  1.00  0.00     0.007 A 
HETATM   25  C12 UNK     1      15.470  12.756  35.039  1.00  0.00    -0.054 A 
HETATM   26  C8  UNK     1      16.243  11.676  34.612  1.00  0.00    -0.029 A 
HETATM   27  C22 UNK     1      16.058  14.123  35.162  1.00  0.00     0.049 C 
HETATM   28  C15 UNK     1      17.685  11.881  34.269  1.00  0.00     0.051 C 
ENDBRANCH   2  21
TORSDOF 3
ENDMDL
MODEL 5
REMARK VINA RESULT:      -9.1     11.278     13.972
REMARK  3 active torsions:
REMARK  status: ('A' for Active; 'I' for Inactive)
REMARK    1  A    between atoms: C5_9  and  N1_3 
REMARK    2  A    between atoms: C6_10  and  N2_4 
REMARK    3  A    between atoms: C5_9  and  C7_11 
ROOT
HETATM    1  N1  UNK     1      31.152  -6.221  35.427  1.00  0.00     0.095 N 
HETATM    2  N2  UNK     1      33.639  -7.347  34.583  1.00  0.00    -0.377 N 
HETATM    3  C1  UNK     1      31.503  -6.265  34.003  1.00  0.00     0.292 C 
HETATM    4  C2  UNK     1      31.708  -7.394  36.114  1.00  0.00     0.292 C 
HETATM    5  C3  UNK     1      33.021  -6.266  33.809  1.00  0.00     0.153 C 
HETATM    6  C4  UNK     1      33.233  -7.431  35.992  1.00  0.00     0.153 C 
ENDROOT
BRANCH   1   7
HETATM    7  C5  UNK     1      29.701  -6.167  35.598  1.00  0.00     0.312 C 
BRANCH   7   8
HETATM    8  C7  UNK     1      29.316  -6.093  37.049  1.00  0.00    -0.011 A 
HETATM    9  C11 UNK     1      29.612  -4.972  37.722  1.00  0.00     0.092 A 
HETATM   10  C20 UNK     1      29.282  -4.778  39.145  1.00  0.00     0.288 A 
HETATM   11  O2  UNK     1      29.570  -3.739  39.727  1.00  0.00    -0.260 OA
HETATM   12  O1  UNK     1      28.634  -5.825  39.781  1.00  0.00    -0.275 OA
HETATM   13  C13 UNK     1      28.309  -7.014  39.100  1.00  0.00     0.091 A 
HETATM   14  C9  UNK     1      28.629  -7.184  37.752  1.00  0.00     0.012 A 
HETATM   15  C18 UNK     1      27.658  -8.002  39.843  1.00  0.00     0.045 A 
HETATM   16  C14 UNK     1      28.272  -8.397  37.148  1.00  0.00    -0.048 A 
HETATM   17  C19 UNK     1      27.619  -9.396  37.879  1.00  0.00     0.014 A 
HETATM   18  C23 UNK     1      28.538  -8.747  35.719  1.00  0.00     0.049 C 
HETATM   19  C21 UNK     1      27.312  -9.199  39.224  1.00  0.00    -0.059 A 
HETATM   20  C24 UNK     1      26.617 -10.267  39.998  1.00  0.00     0.048 C 
ENDBRANCH   7   8
ENDBRANCH   1   7
BRANCH   2  21
HETATM   21  C6  UNK     1      34.914  -7.807  34.238  1.00  0.00     0.036 A 
HETATM   22  C10 UNK     1      36.023  -7.010  34.520  1.00  0.00     0.030 A 
HETATM   23  C16 UNK     1      37.303  -7.451  34.183  1.00  0.00     0.003 A 
HETATM   24  C17 UNK     1      37.473  -8.689  33.563  1.00  0.00     0.007 A 
HETATM   25  C12 UNK     1      36.363  -9.486  33.281  1.00  0.00    -0.054 A 
HETATM   26  C8  UNK     1      35.084  -9.045  33.619  1.00  0.00    -0.029 A 
HETATM   27  C22 UNK     1      36.573 -10.807  32.618  1.00  0.00     0.049 C 
HETATM   28  C15 UNK     1      33.896  -9.902  33.315  1.00  0.00     0.051 C 
ENDBRANCH   2  21
TORSDOF 3
ENDMDL
MODEL 6
REMARK VINA RESULT:      -9.0     10.809     12.907
REMARK  3 active torsions:
REMARK  status: ('A' for Active; 'I' for Inactive)
REMARK    1  A    between atoms: C5_9  and  N1_3 
REMARK    2  A    between atoms: C6_10  and  N2_4 
REMARK    3  A    between atoms: C5_9  and  C7_11 
ROOT
HETATM    1  N1  UNK     1      31.757  -6.701  35.679  1.00  0.00     0.095 N 
HETATM    2  N2  UNK     1      30.905  -7.194  32.997  1.00  0.00    -0.377 N 
HETATM    3  C1  UNK     1      30.329  -6.697  35.341  1.00  0.00     0.292 C 
HETATM    4  C2  UNK     1      32.466  -7.678  34.842  1.00  0.00     0.292 C 
HETATM    5  C3  UNK     1      30.112  -6.324  33.872  1.00  0.00     0.153 C 
HETATM    6  C4  UNK     1      32.321  -7.336  33.358  1.00  0.00     0.153 C 
ENDROOT
BRANCH   1   7
HETATM    7  C5  UNK     1      31.948  -7.006  37.097  1.00  0.00     0.312 C 
BRANCH   7   8
HETATM    8  C7  UNK     1      30.772  -6.565  37.923  1.00  0.00    -0.011 A 
HETATM    9  C11 UNK     1      30.648  -5.258  38.193  1.00  0.00     0.092 A 
HETATM   10  C20 UNK     1      29.537  -4.704  38.986  1.00  0.00     0.288 A 
HETATM   11  O2  UNK     1      29.457  -3.502  39.214  1.00  0.00    -0.260 OA
HETATM   12  O1  UNK     1      28.597  -5.607  39.456  1.00  0.00    -0.275 OA
HETATM   13  C13 UNK     1      28.700  -6.986  39.187  1.00  0.00     0.091 A 
HETATM   14  C9  UNK     1      29.759  -7.497  38.435  1.00  0.00     0.012 A 
HETATM   15  C18 UNK     1      27.696  -7.802  39.712  1.00  0.00     0.045 A 
HETATM   16  C14 UNK     1      29.790  -8.881  38.213  1.00  0.00    -0.048 A 
HETATM   17  C19 UNK     1      28.790  -9.711  38.732  1.00  0.00     0.014 A 
HETATM   18  C23 UNK     1      30.847  -9.594  37.433  1.00  0.00     0.049 C 
HETATM   19  C21 UNK     1      27.745  -9.173  39.481  1.00  0.00    -0.059 A 
HETATM   20  C24 UNK     1      26.684 -10.063  40.033  1.00  0.00     0.048 C 
ENDBRANCH   7   8
ENDBRANCH   1   7
BRANCH   2  21
HETATM   21  C6  UNK     1      30.552  -7.330  31.651  1.00  0.00     0.036 A 
HETATM   22  C10 UNK     1      31.250  -6.602  30.688  1.00  0.00     0.030 A 
HETATM   23  C16 UNK     1      30.913  -6.724  29.340  1.00  0.00     0.003 A 
HETATM   24  C17 UNK     1      29.877  -7.576  28.955  1.00  0.00     0.007 A 
HETATM   25  C12 UNK     1      29.179  -8.304  29.918  1.00  0.00    -0.054 A 
HETATM   26  C8  UNK     1      29.516  -8.182  31.266  1.00  0.00    -0.029 A 
HETATM   27  C22 UNK     1      28.075  -9.209  29.479  1.00  0.00     0.049 C 
HETATM   28  C15 UNK     1      28.765  -8.965  32.296  1.00  0.00     0.051 C 
ENDBRANCH   2  21
TORSDOF 3
ENDMDL
MODEL 7
REMARK VINA RESULT:      -8.9     11.623     14.913
REMARK  3 active torsions:
REMARK  status: ('A' for Active; 'I' for Inactive)
REMARK    1  A    between atoms: C5_9  and  N1_3 
REMARK    2  A    between atoms: C6_10  and  N2_4 
REMARK    3  A    between atoms: C5_9  and  C7_11 
ROOT
HETATM    1  N1  UNK     1      33.301  -7.789  34.039  1.00  0.00     0.095 N 
HETATM    2  N2  UNK     1      31.590  -6.644  36.019  1.00  0.00    -0.377 N 
HETATM    3  C1  UNK     1      33.319  -8.292  35.417  1.00  0.00     0.292 C 
HETATM    4  C2  UNK     1      31.945  -7.350  33.685  1.00  0.00     0.292 C 
HETATM    5  C3  UNK     1      32.887  -7.206  36.406  1.00  0.00     0.153 C 
HETATM    6  C4  UNK     1      31.469  -6.232  34.614  1.00  0.00     0.153 C 
ENDROOT
BRANCH   1   7
HETATM    7  C5  UNK     1      33.766  -8.818  33.110  1.00  0.00     0.312 C 
BRANCH   7   8
HETATM    8  C7  UNK     1      33.760  -8.326  31.689  1.00  0.00    -0.011 A 
HETATM    9  C11 UNK     1      34.691  -7.431  31.330  1.00  0.00     0.092 A 
HETATM   10  C20 UNK     1      34.791  -6.879  29.968  1.00  0.00     0.288 A 
HETATM   11  O2  UNK     1      35.656  -6.060  29.676  1.00  0.00    -0.260 OA
HETATM   12  O1  UNK     1      33.863  -7.331  29.044  1.00  0.00    -0.275 OA
HETATM   13  C13 UNK     1      32.873  -8.272  29.391  1.00  0.00     0.091 A 
HETATM   14  C9  UNK     1      32.790  -8.786  30.686  1.00  0.00     0.012 A 
HETATM   15  C18 UNK     1      31.991  -8.654  28.379  1.00  0.00     0.045 A 
HETATM   16  C14 UNK     1      31.777  -9.717  30.952  1.00  0.00    -0.048 A 
HETATM   17  C19 UNK     1      30.886 -10.110  29.947  1.00  0.00     0.014 A 
HETATM   18  C23 UNK     1      31.543 -10.365  32.279  1.00  0.00     0.049 C 
HETATM   19  C21 UNK     1      30.992  -9.580  28.663  1.00  0.00    -0.059 A 
HETATM   20  C24 UNK     1      30.038 -10.001  27.597  1.00  0.00     0.048 C 
ENDBRANCH   7   8
ENDBRANCH   1   7
BRANCH   2  21
HETATM   21  C6  UNK     1      30.813  -5.973  36.970  1.00  0.00     0.036 A 
HETATM   22  C10 UNK     1      30.982  -4.599  37.138  1.00  0.00     0.030 A 
HETATM   23  C16 UNK     1      30.217  -3.912  38.082  1.00  0.00     0.003 A 
HETATM   24  C17 UNK     1      29.284  -4.601  38.857  1.00  0.00     0.007 A 
HETATM   25  C12 UNK     1      29.115  -5.975  38.688  1.00  0.00    -0.054 A 
HETATM   26  C8  UNK     1      29.879  -6.661  37.744  1.00  0.00    -0.029 A 
HETATM   27  C22 UNK     1      28.108  -6.687  39.530  1.00  0.00     0.049 C 
HETATM   28  C15 UNK     1      29.696  -8.135  37.566  1.00  0.00     0.051 C 
ENDBRANCH   2  21
TORSDOF 3
ENDMDL
MODEL 8
REMARK VINA RESULT:      -8.9      7.000      9.392
REMARK  3 active torsions:
REMARK  status: ('A' for Active; 'I' for Inactive)
REMARK    1  A    between atoms: C5_9  and  N1_3 
REMARK    2  A    between atoms: C6_10  and  N2_4 
REMARK    3  A    between atoms: C5_9  and  C7_11 
ROOT
HETATM    1  N1  UNK     1      25.629  -8.432  38.113  1.00  0.00     0.095 N 
HETATM    2  N2  UNK     1      28.456  -8.025  38.172  1.00  0.00    -0.377 N 
HETATM    3  C1  UNK     1      26.411  -8.815  39.294  1.00  0.00     0.292 C 
HETATM    4  C2  UNK     1      26.221  -7.243  37.486  1.00  0.00     0.292 C 
HETATM    5  C3  UNK     1      27.858  -9.137  38.917  1.00  0.00     0.153 C 
HETATM    6  C4  UNK     1      27.662  -7.514  37.047  1.00  0.00     0.153 C 
ENDROOT
BRANCH   1   7
HETATM    7  C5  UNK     1      24.236  -8.179  38.478  1.00  0.00     0.312 C 
BRANCH   7   8
HETATM    8  C7  UNK     1      23.284  -8.742  37.460  1.00  0.00    -0.011 A 
HETATM    9  C11 UNK     1      23.667  -9.830  36.777  1.00  0.00     0.092 A 
HETATM   10  C20 UNK     1      22.822 -10.478  35.758  1.00  0.00     0.288 A 
HETATM   11  O2  UNK     1      23.206 -11.472  35.153  1.00  0.00    -0.260 OA
HETATM   12  O1  UNK     1      21.582  -9.906  35.524  1.00  0.00    -0.275 OA
HETATM   13  C13 UNK     1      21.152  -8.763  36.226  1.00  0.00     0.091 A 
HETATM   14  C9  UNK     1      21.964  -8.159  37.188  1.00  0.00     0.012 A 
HETATM   15  C18 UNK     1      19.884  -8.273  35.907  1.00  0.00     0.045 A 
HETATM   16  C14 UNK     1      21.464  -7.025  37.842  1.00  0.00    -0.048 A 
HETATM   17  C19 UNK     1      20.195  -6.523  37.533  1.00  0.00     0.014 A 
HETATM   18  C23 UNK     1      22.197  -6.256  38.894  1.00  0.00     0.049 C 
HETATM   19  C21 UNK     1      19.405  -7.145  36.567  1.00  0.00    -0.059 A 
HETATM   20  C24 UNK     1      18.055  -6.604  36.241  1.00  0.00     0.048 C 
ENDBRANCH   7   8
ENDBRANCH   1   7
BRANCH   2  21
HETATM   21  C6  UNK     1      29.848  -7.906  38.102  1.00  0.00     0.036 A 
HETATM   22  C10 UNK     1      30.612  -9.030  37.791  1.00  0.00     0.030 A 
HETATM   23  C16 UNK     1      32.002  -8.932  37.717  1.00  0.00     0.003 A 
HETATM   24  C17 UNK     1      32.627  -7.707  37.954  1.00  0.00     0.007 A 
HETATM   25  C12 UNK     1      31.863  -6.582  38.264  1.00  0.00    -0.054 A 
HETATM   26  C8  UNK     1      30.474  -6.681  38.338  1.00  0.00    -0.029 A 
HETATM   27  C22 UNK     1      32.557  -5.284  38.512  1.00  0.00     0.049 C 
HETATM   28  C15 UNK     1      29.657  -5.472  38.671  1.00  0.00     0.051 C 
ENDBRANCH   2  21
TORSDOF 3
ENDMDL
MODEL 9
REMARK VINA RESULT:      -8.8      1.215      3.267
REMARK  3 active torsions:
REMARK  status: ('A' for Active; 'I' for Inactive)
REMARK    1  A    between atoms: C5_9  and  N1_3 
REMARK    2  A    between atoms: C6_10  and  N2_4 
REMARK    3  A    between atoms: C5_9  and  C7_11 
ROOT
HETATM    1  N1  UNK     1      19.971  -3.825  36.669  1.00  0.00     0.095 N 
HETATM    2  N2  UNK     1      20.083  -6.650  37.077  1.00  0.00    -0.377 N 
HETATM    3  C1  UNK     1      20.954  -4.404  37.591  1.00  0.00     0.292 C 
HETATM    4  C2  UNK     1      19.732  -4.747  35.551  1.00  0.00     0.292 C 
HETATM    5  C3  UNK     1      20.458  -5.736  38.160  1.00  0.00     0.153 C 
HETATM    6  C4  UNK     1      19.194  -6.089  36.052  1.00  0.00     0.153 C 
ENDROOT
BRANCH   1   7
HETATM    7  C5  UNK     1      20.432  -2.528  36.174  1.00  0.00     0.312 C 
BRANCH   7   8
HETATM    8  C7  UNK     1      19.417  -1.888  35.268  1.00  0.00    -0.011 A 
HETATM    9  C11 UNK     1      18.259  -1.484  35.809  1.00  0.00     0.092 A 
HETATM   10  C20 UNK     1      17.189  -0.839  35.027  1.00  0.00     0.288 A 
HETATM   11  O2  UNK     1      16.143  -0.483  35.555  1.00  0.00    -0.260 OA
HETATM   12  O1  UNK     1      17.430  -0.659  33.673  1.00  0.00    -0.275 OA
HETATM   13  C13 UNK     1      18.638  -1.073  33.078  1.00  0.00     0.091 A 
HETATM   14  C9  UNK     1      19.642  -1.683  33.831  1.00  0.00     0.012 A 
HETATM   15  C18 UNK     1      18.771  -0.841  31.707  1.00  0.00     0.045 A 
HETATM   16  C14 UNK     1      20.813  -2.066  33.164  1.00  0.00    -0.048 A 
HETATM   17  C19 UNK     1      20.961  -1.840  31.791  1.00  0.00     0.014 A 
HETATM   18  C23 UNK     1      21.985  -2.731  33.813  1.00  0.00     0.049 C 
HETATM   19  C21 UNK     1      19.941  -1.229  31.063  1.00  0.00    -0.059 A 
HETATM   20  C24 UNK     1      20.103  -0.993  29.600  1.00  0.00     0.048 C 
ENDBRANCH   7   8
ENDBRANCH   1   7
BRANCH   2  21
HETATM   21  C6  UNK     1      20.019  -8.026  37.321  1.00  0.00     0.036 A 
HETATM   22  C10 UNK     1      19.290  -8.488  38.417  1.00  0.00     0.030 A 
HETATM   23  C16 UNK     1      19.214  -9.857  38.678  1.00  0.00     0.003 A 
HETATM   24  C17 UNK     1      19.869 -10.763  37.843  1.00  0.00     0.007 A 
HETATM   25  C12 UNK     1      20.598 -10.300  36.747  1.00  0.00    -0.054 A 
HETATM   26  C8  UNK     1      20.672  -8.932  36.486  1.00  0.00    -0.029 A 
HETATM   27  C22 UNK     1      21.288 -11.291  35.869  1.00  0.00     0.049 C 
HETATM   28  C15 UNK     1      21.456  -8.440  35.310  1.00  0.00     0.051 C 
ENDBRANCH   2  21
TORSDOF 3
ENDMDL
MODEL 10
REMARK VINA RESULT:      -8.8      3.107      8.979
REMARK  3 active torsions:
REMARK  status: ('A' for Active; 'I' for Inactive)
REMARK    1  A    between atoms: C5_9  and  N1_3 
REMARK    2  A    between atoms: C6_10  and  N2_4 
REMARK    3  A    between atoms: C5_9  and  C7_11 
ROOT
HETATM    1  N1  UNK     1      19.478  -4.081  36.818  1.00  0.00     0.095 N 
HETATM    2  N2  UNK     1      18.929  -1.464  35.812  1.00  0.00    -0.377 N 
HETATM    3  C1  UNK     1      18.123  -3.525  36.894  1.00  0.00     0.292 C 
HETATM    4  C2  UNK     1      20.150  -3.595  35.605  1.00  0.00     0.292 C 
HETATM    5  C3  UNK     1      18.156  -1.995  36.938  1.00  0.00     0.153 C 
HETATM    6  C4  UNK     1      20.252  -2.068  35.608  1.00  0.00     0.153 C 
ENDROOT
BRANCH   1   7
HETATM    7  C5  UNK     1      19.437  -5.542  36.830  1.00  0.00     0.312 C 
BRANCH   7   8
HETATM    8  C7  UNK     1      20.742  -6.131  37.287  1.00  0.00    -0.011 A 
HETATM    9  C11 UNK     1      21.481  -5.423  38.154  1.00  0.00     0.092 A 
HETATM   10  C20 UNK     1      22.774  -5.895  38.679  1.00  0.00     0.288 A 
HETATM   11  O2  UNK     1      23.423  -5.220  39.470  1.00  0.00    -0.260 OA
HETATM   12  O1  UNK     1      23.213  -7.132  38.233  1.00  0.00    -0.275 OA
HETATM   13  C13 UNK     1      22.458  -7.899  37.324  1.00  0.00     0.091 A 
HETATM   14  C9  UNK     1      21.234  -7.438  36.834  1.00  0.00     0.012 A 
HETATM   15  C18 UNK     1      22.998  -9.129  36.944  1.00  0.00     0.045 A 
HETATM   16  C14 UNK     1      20.545  -8.260  35.932  1.00  0.00    -0.048 A 
HETATM   17  C19 UNK     1      21.073  -9.496  35.543  1.00  0.00     0.014 A 
HETATM   18  C23 UNK     1      19.227  -7.924  35.310  1.00  0.00     0.049 C 
HETATM   19  C21 UNK     1      22.298  -9.930  36.047  1.00  0.00    -0.059 A 
HETATM   20  C24 UNK     1      22.857 -11.247  35.627  1.00  0.00     0.048 C 
ENDBRANCH   7   8
ENDBRANCH   1   7
BRANCH   2  21
HETATM   21  C6  UNK     1      18.742  -0.139  35.406  1.00  0.00     0.036 A 
HETATM   22  C10 UNK     1      18.736   0.872  36.367  1.00  0.00     0.030 A 
HETATM   23  C16 UNK     1      18.550   2.200  35.982  1.00  0.00     0.003 A 
HETATM   24  C17 UNK     1      18.371   2.517  34.635  1.00  0.00     0.007 A 
HETATM   25  C12 UNK     1      18.378   1.506  33.674  1.00  0.00    -0.054 A 
HETATM   26  C8  UNK     1      18.564   0.179  34.059  1.00  0.00    -0.029 A 
HETATM   27  C22 UNK     1      18.185   1.873  32.239  1.00  0.00     0.049 C 
HETATM   28  C15 UNK     1      18.571  -0.903  33.025  1.00  0.00     0.051 C 
ENDBRANCH   2  21
TORSDOF 3
ENDMDL
