MODEL 1
REMARK VINA RESULT:      -9.1      0.000      0.000
REMARK  9 active torsions:
REMARK  status: ('A' for Active; 'I' for Inactive)
REMARK    1  A    between atoms: C13_21  and  O1_2 
REMARK    2  A    between atoms: C3_11  and  O1_2 
REMARK    3  A    between atoms: C5_13  and  O2_3 
REMARK    4  A    between atoms: C4_12  and  O3_4 
REMARK    5  A    between atoms: C6_14  and  O4_5 
REMARK    6  A    between atoms: C7_15  and  O5_6 
REMARK    7  A    between atoms: C1_9  and  C13_21 
REMARK    8  A    between atoms: C14_22  and  C2_10 
REMARK    9  A    between atoms: C15_23  and  C16_24 
ROOT
HETATM    1  N1  UNK     1      17.635  -5.535  36.405  1.00  0.00    -0.191 NA
HETATM    2  C14 UNK     1      20.461  -3.654  37.008  1.00  0.00     0.035 C 
HETATM    3  C15 UNK     1      19.976  -4.883  37.329  1.00  0.00     0.055 C 
HETATM    4  C26 UNK     1      18.679  -5.235  36.813  1.00  0.00     0.100 C 
ENDROOT
BRANCH   3   5
HETATM    5  C16 UNK     1      20.692  -5.848  38.150  1.00  0.00    -0.015 A 
HETATM    6  C17 UNK     1      22.058  -5.690  38.381  1.00  0.00     0.014 A 
HETATM    7  C19 UNK     1      22.744  -6.614  39.168  1.00  0.00     0.024 A 
HETATM    8  C21 UNK     1      22.063  -7.696  39.727  1.00  0.00     0.034 A 
HETATM    9  C20 UNK     1      20.696  -7.854  39.496  1.00  0.00     0.024 A 
HETATM   10 Cl1  UNK     1      22.909  -8.836  40.699  1.00  0.00    -0.084 Cl
HETATM   11  C18 UNK     1      20.010  -6.929  38.708  1.00  0.00     0.014 A 
ENDBRANCH   3   5
BRANCH   2  12
HETATM   12  C2  UNK     1      19.777  -2.652  36.178  1.00  0.00    -0.032 A 
HETATM   13  C10 UNK     1      20.180  -2.465  34.865  1.00  0.00     0.051 A 
HETATM   14  C4  UNK     1      19.530  -1.514  34.077  1.00  0.00     0.102 A 
HETATM   15  C3  UNK     1      18.484  -0.762  34.613  1.00  0.00     0.112 A 
HETATM   16  C12 UNK     1      18.088  -0.961  35.936  1.00  0.00     0.041 A 
HETATM   17  C11 UNK     1      18.739  -1.911  36.723  1.00  0.00     0.014 A 
BRANCH  14  18
HETATM   18  O3  UNK     1      19.926  -1.329  32.787  1.00  0.00    -0.353 OA
HETATM   19  C25 UNK     1      20.687  -2.375  32.186  1.00  0.00     0.210 C 
ENDBRANCH  14  18
BRANCH  15  20
HETATM   20  O1  UNK     1      17.842   0.169  33.855  1.00  0.00    -0.272 OA
BRANCH  20  21
HETATM   21  C13 UNK     1      17.949   1.476  34.335  1.00  0.00     0.298 C 
HETATM   22  O6  UNK     1      17.856   1.814  35.505  1.00  0.00    -0.259 OA
BRANCH  21  23
HETATM   23  C1  UNK     1      18.180   2.436  33.227  1.00  0.00     0.045 A 
HETATM   24  C8  UNK     1      18.467   1.946  31.969  1.00  0.00     0.057 A 
HETATM   25  C6  UNK     1      18.685   2.848  30.927  1.00  0.00     0.105 A 
HETATM   26  C5  UNK     1      18.612   4.220  31.166  1.00  0.00     0.135 A 
HETATM   27  C7  UNK     1      18.320   4.691  32.446  1.00  0.00     0.105 A 
HETATM   28  C9  UNK     1      18.102   3.789  33.488  1.00  0.00     0.057 A 
BRANCH  25  29
HETATM   29  O4  UNK     1      18.971   2.376  29.682  1.00  0.00    -0.353 OA
HETATM   30  C23 UNK     1      17.874   1.910  28.898  1.00  0.00     0.210 C 
ENDBRANCH  25  29
BRANCH  26  31
HETATM   31  O2  UNK     1      18.824   5.102  30.148  1.00  0.00    -0.351 OA
HETATM   32  C22 UNK     1      20.091   5.756  30.113  1.00  0.00     0.210 C 
ENDBRANCH  26  31
BRANCH  27  33
HETATM   33  O5  UNK     1      18.245   6.028  32.694  1.00  0.00    -0.353 OA
HETATM   34  C24 UNK     1      19.139   6.556  33.671  1.00  0.00     0.210 C 
ENDBRANCH  27  33
ENDBRANCH  21  23
ENDBRANCH  20  21
ENDBRANCH  15  20
ENDBRANCH   2  12
TORSDOF 9
ENDMDL
MODEL 2
REMARK VINA RESULT:      -8.9      1.907      3.212
REMARK  9 active torsions:
REMARK  status: ('A' for Active; 'I' for Inactive)
REMARK    1  A    between atoms: C13_21  and  O1_2 
REMARK    2  A    between atoms: C3_11  and  O1_2 
REMARK    3  A    between atoms: C5_13  and  O2_3 
REMARK    4  A    between atoms: C4_12  and  O3_4 
REMARK    5  A    between atoms: C6_14  and  O4_5 
REMARK    6  A    between atoms: C7_15  and  O5_6 
REMARK    7  A    between atoms: C1_9  and  C13_21 
REMARK    8  A    between atoms: C14_22  and  C2_10 
REMARK    9  A    between atoms: C15_23  and  C16_24 
ROOT
HETATM    1  N1  UNK     1      22.274  -4.902  37.939  1.00  0.00    -0.191 NA
HETATM    2  C14 UNK     1      19.029  -5.344  36.858  1.00  0.00     0.035 C 
HETATM    3  C15 UNK     1      20.002  -6.074  37.466  1.00  0.00     0.055 C 
HETATM    4  C26 UNK     1      21.256  -5.417  37.723  1.00  0.00     0.100 C 
ENDROOT
BRANCH   3   5
HETATM    5  C16 UNK     1      19.840  -7.464  37.867  1.00  0.00    -0.015 A 
HETATM    6  C17 UNK     1      20.394  -7.914  39.064  1.00  0.00     0.014 A 
HETATM    7  C19 UNK     1      20.238  -9.245  39.449  1.00  0.00     0.024 A 
HETATM    8  C21 UNK     1      19.526 -10.127  38.635  1.00  0.00     0.034 A 
HETATM    9  C20 UNK     1      18.971  -9.676  37.436  1.00  0.00     0.024 A 
HETATM   10 Cl1  UNK     1      19.332 -11.769  39.109  1.00  0.00    -0.084 Cl
HETATM   11  C18 UNK     1      19.127  -8.344  37.052  1.00  0.00     0.014 A 
ENDBRANCH   3   5
BRANCH   2  12
HETATM   12  C2  UNK     1      19.147  -3.938  36.442  1.00  0.00    -0.032 A 
HETATM   13  C10 UNK     1      19.971  -3.609  35.377  1.00  0.00     0.051 A 
HETATM   14  C4  UNK     1      20.081  -2.275  34.983  1.00  0.00     0.102 A 
HETATM   15  C3  UNK     1      19.366  -1.286  35.659  1.00  0.00     0.112 A 
HETATM   16  C12 UNK     1      18.540  -1.632  36.729  1.00  0.00     0.041 A 
HETATM   17  C11 UNK     1      18.431  -2.965  37.123  1.00  0.00     0.014 A 
BRANCH  14  18
HETATM   18  O3  UNK     1      20.891  -1.951  33.936  1.00  0.00    -0.353 OA
HETATM   19  C25 UNK     1      20.856  -2.811  32.799  1.00  0.00     0.210 C 
ENDBRANCH  14  18
BRANCH  15  20
HETATM   20  O1  UNK     1      19.466   0.019  35.284  1.00  0.00    -0.272 OA
BRANCH  20  21
HETATM   21  C13 UNK     1      18.278   0.570  34.799  1.00  0.00     0.298 C 
HETATM   22  O6  UNK     1      17.221   0.633  35.409  1.00  0.00    -0.259 OA
BRANCH  21  23
HETATM   23  C1  UNK     1      18.447   1.067  33.411  1.00  0.00     0.045 A 
HETATM   24  C8  UNK     1      18.186   2.396  33.142  1.00  0.00     0.057 A 
HETATM   25  C6  UNK     1      18.344   2.863  31.837  1.00  0.00     0.105 A 
HETATM   26  C5  UNK     1      18.757   1.992  30.829  1.00  0.00     0.135 A 
HETATM   27  C7  UNK     1      19.014   0.654  31.126  1.00  0.00     0.105 A 
HETATM   28  C9  UNK     1      18.857   0.186  32.431  1.00  0.00     0.057 A 
BRANCH  25  29
HETATM   29  O4  UNK     1      18.088   4.173  31.560  1.00  0.00    -0.353 OA
HETATM   30  C23 UNK     1      17.811   5.027  32.668  1.00  0.00     0.210 C 
ENDBRANCH  25  29
BRANCH  26  31
HETATM   31  O2  UNK     1      18.911   2.450  29.554  1.00  0.00    -0.351 OA
HETATM   32  C22 UNK     1      17.886   2.117  28.619  1.00  0.00     0.210 C 
ENDBRANCH  26  31
BRANCH  27  33
HETATM   33  O5  UNK     1      19.418  -0.207  30.151  1.00  0.00    -0.353 OA
HETATM   34  C24 UNK     1      20.823  -0.340  29.948  1.00  0.00     0.210 C 
ENDBRANCH  27  33
ENDBRANCH  21  23
ENDBRANCH  20  21
ENDBRANCH  15  20
ENDBRANCH   2  12
TORSDOF 9
ENDMDL
MODEL 3
REMARK VINA RESULT:      -8.9      0.499      2.153
REMARK  9 active torsions:
REMARK  status: ('A' for Active; 'I' for Inactive)
REMARK    1  A    between atoms: C13_21  and  O1_2 
REMARK    2  A    between atoms: C3_11  and  O1_2 
REMARK    3  A    between atoms: C5_13  and  O2_3 
REMARK    4  A    between atoms: C4_12  and  O3_4 
REMARK    5  A    between atoms: C6_14  and  O4_5 
REMARK    6  A    between atoms: C7_15  and  O5_6 
REMARK    7  A    between atoms: C1_9  and  C13_21 
REMARK    8  A    between atoms: C14_22  and  C2_10 
REMARK    9  A    between atoms: C15_23  and  C16_24 
ROOT
HETATM    1  N1  UNK     1      17.698  -5.655  36.190  1.00  0.00    -0.191 NA
HETATM    2  C14 UNK     1      20.421  -3.700  37.000  1.00  0.00     0.035 C 
HETATM    3  C15 UNK     1      19.960  -4.953  37.261  1.00  0.00     0.055 C 
HETATM    4  C26 UNK     1      18.707  -5.332  36.664  1.00  0.00     0.100 C 
ENDROOT
BRANCH   3   5
HETATM    5  C16 UNK     1      20.662  -5.915  38.097  1.00  0.00    -0.015 A 
HETATM    6  C17 UNK     1      22.031  -5.777  38.323  1.00  0.00     0.014 A 
HETATM    7  C19 UNK     1      22.703  -6.699  39.124  1.00  0.00     0.024 A 
HETATM    8  C21 UNK     1      22.004  -7.760  39.703  1.00  0.00     0.034 A 
HETATM    9  C20 UNK     1      20.634  -7.898  39.477  1.00  0.00     0.024 A 
HETATM   10 Cl1  UNK     1      22.833  -8.897  40.692  1.00  0.00    -0.084 Cl
HETATM   11  C18 UNK     1      19.962  -6.975  38.675  1.00  0.00     0.014 A 
ENDBRANCH   3   5
BRANCH   2  12
HETATM   12  C2  UNK     1      19.751  -2.699  36.157  1.00  0.00    -0.032 A 
HETATM   13  C10 UNK     1      20.222  -2.460  34.875  1.00  0.00     0.051 A 
HETATM   14  C4  UNK     1      19.585  -1.510  34.076  1.00  0.00     0.102 A 
HETATM   15  C3  UNK     1      18.484  -0.810  34.569  1.00  0.00     0.112 A 
HETATM   16  C12 UNK     1      18.020  -1.060  35.861  1.00  0.00     0.041 A 
HETATM   17  C11 UNK     1      18.657  -2.009  36.659  1.00  0.00     0.014 A 
BRANCH  14  18
HETATM   18  O3  UNK     1      20.049  -1.275  32.817  1.00  0.00    -0.353 OA
HETATM   19  C25 UNK     1      19.269  -1.782  31.735  1.00  0.00     0.210 C 
ENDBRANCH  14  18
BRANCH  15  20
HETATM   20  O1  UNK     1      17.854   0.120  33.799  1.00  0.00    -0.272 OA
BRANCH  20  21
HETATM   21  C13 UNK     1      17.903   1.418  34.311  1.00  0.00     0.298 C 
HETATM   22  O6  UNK     1      17.755   1.728  35.483  1.00  0.00    -0.259 OA
BRANCH  21  23
HETATM   23  C1  UNK     1      18.144   2.409  33.232  1.00  0.00     0.045 A 
HETATM   24  C8  UNK     1      18.084   3.754  33.537  1.00  0.00     0.057 A 
HETATM   25  C6  UNK     1      18.309   4.686  32.523  1.00  0.00     0.105 A 
HETATM   26  C5  UNK     1      18.588   4.252  31.227  1.00  0.00     0.135 A 
HETATM   27  C7  UNK     1      18.642   2.888  30.944  1.00  0.00     0.105 A 
HETATM   28  C9  UNK     1      18.417   1.956  31.958  1.00  0.00     0.057 A 
BRANCH  25  29
HETATM   29  O4  UNK     1      18.252   6.016  32.812  1.00  0.00    -0.353 OA
HETATM   30  C23 UNK     1      16.960   6.619  32.834  1.00  0.00     0.210 C 
ENDBRANCH  25  29
BRANCH  26  31
HETATM   31  O2  UNK     1      18.808   5.163  30.236  1.00  0.00    -0.351 OA
HETATM   32  C22 UNK     1      20.091   5.785  30.203  1.00  0.00     0.210 C 
ENDBRANCH  26  31
BRANCH  27  33
HETATM   33  O5  UNK     1      18.913   2.451  29.682  1.00  0.00    -0.353 OA
HETATM   34  C24 UNK     1      17.925   1.638  29.053  1.00  0.00     0.210 C 
ENDBRANCH  27  33
ENDBRANCH  21  23
ENDBRANCH  20  21
ENDBRANCH  15  20
ENDBRANCH   2  12
TORSDOF 9
ENDMDL
MODEL 4
REMARK VINA RESULT:      -8.7      6.136     12.038
REMARK  9 active torsions:
REMARK  status: ('A' for Active; 'I' for Inactive)
REMARK    1  A    between atoms: C13_21  and  O1_2 
REMARK    2  A    between atoms: C3_11  and  O1_2 
REMARK    3  A    between atoms: C5_13  and  O2_3 
REMARK    4  A    between atoms: C4_12  and  O3_4 
REMARK    5  A    between atoms: C6_14  and  O4_5 
REMARK    6  A    between atoms: C7_15  and  O5_6 
REMARK    7  A    between atoms: C1_9  and  C13_21 
REMARK    8  A    between atoms: C14_22  and  C2_10 
REMARK    9  A    between atoms: C15_23  and  C16_24 
ROOT
HETATM    1  N1  UNK     1      13.552   6.921  32.301  1.00  0.00    -0.191 NA
HETATM    2  C14 UNK     1      16.354   8.555  33.470  1.00  0.00     0.035 C 
HETATM    3  C15 UNK     1      15.023   8.799  33.335  1.00  0.00     0.055 C 
HETATM    4  C26 UNK     1      14.217   7.753  32.761  1.00  0.00     0.100 C 
ENDROOT
BRANCH   3   5
HETATM    5  C16 UNK     1      14.383  10.042  33.738  1.00  0.00    -0.015 A 
HETATM    6  C17 UNK     1      13.822  10.882  32.777  1.00  0.00     0.014 A 
HETATM    7  C19 UNK     1      13.208  12.073  33.163  1.00  0.00     0.024 A 
HETATM    8  C21 UNK     1      13.153  12.422  34.513  1.00  0.00     0.034 A 
HETATM    9  C20 UNK     1      13.714  11.582  35.475  1.00  0.00     0.024 A 
HETATM   10 Cl1  UNK     1      12.395  13.891  34.991  1.00  0.00    -0.084 Cl
HETATM   11  C18 UNK     1      14.328  10.390  35.088  1.00  0.00     0.014 A 
ENDBRANCH   3   5
BRANCH   2  12
HETATM   12  C2  UNK     1      17.042   7.314  33.084  1.00  0.00    -0.032 A 
HETATM   13  C10 UNK     1      17.529   7.179  31.793  1.00  0.00     0.051 A 
HETATM   14  C4  UNK     1      18.182   6.001  31.427  1.00  0.00     0.102 A 
HETATM   15  C3  UNK     1      18.339   4.973  32.357  1.00  0.00     0.112 A 
HETATM   16  C12 UNK     1      17.844   5.123  33.652  1.00  0.00     0.041 A 
HETATM   17  C11 UNK     1      17.192   6.299  34.017  1.00  0.00     0.014 A 
BRANCH  14  18
HETATM   18  O3  UNK     1      18.661   5.867  30.158  1.00  0.00    -0.353 OA
HETATM   19  C25 UNK     1      20.076   5.942  29.988  1.00  0.00     0.210 C 
ENDBRANCH  14  18
BRANCH  15  20
HETATM   20  O1  UNK     1      18.975   3.819  32.011  1.00  0.00    -0.272 OA
BRANCH  20  21
HETATM   21  C13 UNK     1      18.117   2.772  31.668  1.00  0.00     0.298 C 
HETATM   22  O6  UNK     1      17.296   2.791  30.764  1.00  0.00    -0.259 OA
BRANCH  21  23
HETATM   23  C1  UNK     1      18.312   1.605  32.565  1.00  0.00     0.045 A 
HETATM   24  C8  UNK     1      18.821   0.436  32.038  1.00  0.00     0.057 A 
HETATM   25  C6  UNK     1      19.003  -0.661  32.881  1.00  0.00     0.105 A 
HETATM   26  C5  UNK     1      18.670  -0.565  34.232  1.00  0.00     0.135 A 
HETATM   27  C7  UNK     1      18.157   0.627  34.741  1.00  0.00     0.105 A 
HETATM   28  C9  UNK     1      17.975   1.725  33.898  1.00  0.00     0.057 A 
BRANCH  25  29
HETATM   29  O4  UNK     1      19.504  -1.820  32.371  1.00  0.00    -0.353 OA
HETATM   30  C23 UNK     1      20.089  -1.758  31.071  1.00  0.00     0.210 C 
ENDBRANCH  25  29
BRANCH  26  31
HETATM   31  O2  UNK     1      18.848  -1.637  35.055  1.00  0.00    -0.351 OA
HETATM   32  C22 UNK     1      20.114  -1.751  35.704  1.00  0.00     0.210 C 
ENDBRANCH  26  31
BRANCH  27  33
HETATM   33  O5  UNK     1      17.828   0.735  36.058  1.00  0.00    -0.353 OA
HETATM   34  C24 UNK     1      16.441   0.685  36.385  1.00  0.00     0.210 C 
ENDBRANCH  27  33
ENDBRANCH  21  23
ENDBRANCH  20  21
ENDBRANCH  15  20
ENDBRANCH   2  12
TORSDOF 9
ENDMDL
MODEL 5
REMARK VINA RESULT:      -8.6      1.535      1.912
REMARK  9 active torsions:
REMARK  status: ('A' for Active; 'I' for Inactive)
REMARK    1  A    between atoms: C13_21  and  O1_2 
REMARK    2  A    between atoms: C3_11  and  O1_2 
REMARK    3  A    between atoms: C5_13  and  O2_3 
REMARK    4  A    between atoms: C4_12  and  O3_4 
REMARK    5  A    between atoms: C6_14  and  O4_5 
REMARK    6  A    between atoms: C7_15  and  O5_6 
REMARK    7  A    between atoms: C1_9  and  C13_21 
REMARK    8  A    between atoms: C14_22  and  C2_10 
REMARK    9  A    between atoms: C15_23  and  C16_24 
ROOT
HETATM    1  N1  UNK     1      22.089  -4.116  37.583  1.00  0.00    -0.191 NA
HETATM    2  C14 UNK     1      18.788  -4.660  36.747  1.00  0.00     0.035 C 
HETATM    3  C15 UNK     1      19.814  -5.347  37.318  1.00  0.00     0.055 C 
HETATM    4  C26 UNK     1      21.070  -4.657  37.460  1.00  0.00     0.100 C 
ENDROOT
BRANCH   3   5
HETATM    5  C16 UNK     1      19.707  -6.719  37.789  1.00  0.00    -0.015 A 
HETATM    6  C17 UNK     1      19.110  -7.689  36.985  1.00  0.00     0.014 A 
HETATM    7  C19 UNK     1      19.008  -9.004  37.437  1.00  0.00     0.024 A 
HETATM    8  C21 UNK     1      19.505  -9.350  38.694  1.00  0.00     0.034 A 
HETATM    9  C20 UNK     1      20.102  -8.379  39.499  1.00  0.00     0.024 A 
HETATM   10 Cl1  UNK     1      19.379 -10.972  39.252  1.00  0.00    -0.084 Cl
HETATM   11  C18 UNK     1      20.204  -7.064  39.046  1.00  0.00     0.014 A 
ENDBRANCH   3   5
BRANCH   2  12
HETATM   12  C2  UNK     1      18.849  -3.273  36.263  1.00  0.00    -0.032 A 
HETATM   13  C10 UNK     1      19.417  -3.007  35.026  1.00  0.00     0.051 A 
HETATM   14  C4  UNK     1      19.475  -1.690  34.568  1.00  0.00     0.102 A 
HETATM   15  C3  UNK     1      18.963  -0.656  35.352  1.00  0.00     0.112 A 
HETATM   16  C12 UNK     1      18.394  -0.938  36.594  1.00  0.00     0.041 A 
HETATM   17  C11 UNK     1      18.337  -2.254  37.052  1.00  0.00     0.014 A 
BRANCH  14  18
HETATM   18  O3  UNK     1      20.033  -1.428  33.353  1.00  0.00    -0.353 OA
HETATM   19  C25 UNK     1      20.768  -2.484  32.736  1.00  0.00     0.210 C 
ENDBRANCH  14  18
BRANCH  15  20
HETATM   20  O1  UNK     1      19.013   0.633  34.915  1.00  0.00    -0.272 OA
BRANCH  20  21
HETATM   21  C13 UNK     1      17.850   1.070  34.279  1.00  0.00     0.298 C 
HETATM   22  O6  UNK     1      16.748   0.553  34.377  1.00  0.00    -0.259 OA
BRANCH  21  23
HETATM   23  C1  UNK     1      18.118   2.259  33.432  1.00  0.00     0.045 A 
HETATM   24  C8  UNK     1      18.285   2.086  32.073  1.00  0.00     0.057 A 
HETATM   25  C6  UNK     1      18.539   3.203  31.277  1.00  0.00     0.105 A 
HETATM   26  C5  UNK     1      18.620   4.469  31.857  1.00  0.00     0.135 A 
HETATM   27  C7  UNK     1      18.447   4.618  33.232  1.00  0.00     0.105 A 
HETATM   28  C9  UNK     1      18.194   3.501  34.029  1.00  0.00     0.057 A 
BRANCH  25  29
HETATM   29  O4  UNK     1      18.707   3.044  29.934  1.00  0.00    -0.353 OA
HETATM   30  C23 UNK     1      18.119   1.888  29.340  1.00  0.00     0.210 C 
ENDBRANCH  25  29
BRANCH  26  31
HETATM   31  O2  UNK     1      18.867   5.561  31.078  1.00  0.00    -0.351 OA
HETATM   32  C22 UNK     1      20.235   5.876  30.822  1.00  0.00     0.210 C 
ENDBRANCH  26  31
BRANCH  27  33
HETATM   33  O5  UNK     1      18.524   5.849  33.812  1.00  0.00    -0.353 OA
HETATM   34  C24 UNK     1      17.296   6.543  34.022  1.00  0.00     0.210 C 
ENDBRANCH  27  33
ENDBRANCH  21  23
ENDBRANCH  20  21
ENDBRANCH  15  20
ENDBRANCH   2  12
TORSDOF 9
ENDMDL
MODEL 6
REMARK VINA RESULT:      -8.4      1.304      2.591
REMARK  9 active torsions:
REMARK  status: ('A' for Active; 'I' for Inactive)
REMARK    1  A    between atoms: C13_21  and  O1_2 
REMARK    2  A    between atoms: C3_11  and  O1_2 
REMARK    3  A    between atoms: C5_13  and  O2_3 
REMARK    4  A    between atoms: C4_12  and  O3_4 
REMARK    5  A    between atoms: C6_14  and  O4_5 
REMARK    6  A    between atoms: C7_15  and  O5_6 
REMARK    7  A    between atoms: C1_9  and  C13_21 
REMARK    8  A    between atoms: C14_22  and  C2_10 
REMARK    9  A    between atoms: C15_23  and  C16_24 
ROOT
HETATM    1  N1  UNK     1      18.379  -6.048  36.012  1.00  0.00    -0.191 NA
HETATM    2  C14 UNK     1      20.439  -3.877  37.725  1.00  0.00     0.035 C 
HETATM    3  C15 UNK     1      20.212  -5.216  37.657  1.00  0.00     0.055 C 
HETATM    4  C26 UNK     1      19.195  -5.667  36.744  1.00  0.00     0.100 C 
ENDROOT
BRANCH   3   5
HETATM    5  C16 UNK     1      20.937  -6.201  38.446  1.00  0.00    -0.015 A 
HETATM    6  C17 UNK     1      20.271  -7.315  38.956  1.00  0.00     0.014 A 
HETATM    7  C19 UNK     1      20.966  -8.259  39.710  1.00  0.00     0.024 A 
HETATM    8  C21 UNK     1      22.329  -8.089  39.955  1.00  0.00     0.034 A 
HETATM    9  C20 UNK     1      22.995  -6.975  39.445  1.00  0.00     0.024 A 
HETATM   10 Cl1  UNK     1      23.187  -9.254  40.886  1.00  0.00    -0.084 Cl
HETATM   11  C18 UNK     1      22.300  -6.030  38.690  1.00  0.00     0.014 A 
ENDBRANCH   3   5
BRANCH   2  12
HETATM   12  C2  UNK     1      19.737  -2.848  36.944  1.00  0.00    -0.032 A 
HETATM   13  C10 UNK     1      18.753  -2.084  37.552  1.00  0.00     0.051 A 
HETATM   14  C4  UNK     1      18.087  -1.107  36.810  1.00  0.00     0.102 A 
HETATM   15  C3  UNK     1      18.414  -0.907  35.468  1.00  0.00     0.112 A 
HETATM   16  C12 UNK     1      19.406  -1.683  34.870  1.00  0.00     0.041 A 
HETATM   17  C11 UNK     1      20.071  -2.659  35.611  1.00  0.00     0.014 A 
BRANCH  14  18
HETATM   18  O3  UNK     1      17.119  -0.357  37.407  1.00  0.00    -0.353 OA
HETATM   19  C25 UNK     1      17.551   0.772  38.166  1.00  0.00     0.210 C 
ENDBRANCH  14  18
BRANCH  15  20
HETATM   20  O1  UNK     1      17.771   0.043  34.734  1.00  0.00    -0.272 OA
BRANCH  20  21
HETATM   21  C13 UNK     1      18.513   1.206  34.523  1.00  0.00     0.298 C 
HETATM   22  O6  UNK     1      19.034   1.886  35.394  1.00  0.00    -0.259 OA
BRANCH  21  23
HETATM   23  C1  UNK     1      18.584   1.540  33.079  1.00  0.00     0.045 A 
HETATM   24  C8  UNK     1      18.935   0.551  32.182  1.00  0.00     0.057 A 
HETATM   25  C6  UNK     1      19.003   0.866  30.824  1.00  0.00     0.105 A 
HETATM   26  C5  UNK     1      18.721   2.162  30.393  1.00  0.00     0.135 A 
HETATM   27  C7  UNK     1      18.369   3.144  31.319  1.00  0.00     0.105 A 
HETATM   28  C9  UNK     1      18.300   2.830  32.677  1.00  0.00     0.057 A 
BRANCH  25  29
HETATM   29  O4  UNK     1      19.349  -0.102  29.930  1.00  0.00    -0.353 OA
HETATM   30  C23 UNK     1      20.741  -0.364  29.764  1.00  0.00     0.210 C 
ENDBRANCH  25  29
BRANCH  26  31
HETATM   31  O2  UNK     1      18.787   2.469  29.067  1.00  0.00    -0.351 OA
HETATM   32  C22 UNK     1      17.712   2.018  28.244  1.00  0.00     0.210 C 
ENDBRANCH  26  31
BRANCH  27  33
HETATM   33  O5  UNK     1      18.091   4.414  30.912  1.00  0.00    -0.353 OA
HETATM   34  C24 UNK     1      19.195   5.305  30.772  1.00  0.00     0.210 C 
ENDBRANCH  27  33
ENDBRANCH  21  23
ENDBRANCH  20  21
ENDBRANCH  15  20
ENDBRANCH   2  12
TORSDOF 9
ENDMDL
MODEL 7
REMARK VINA RESULT:      -8.4      1.647      3.297
REMARK  9 active torsions:
REMARK  status: ('A' for Active; 'I' for Inactive)
REMARK    1  A    between atoms: C13_21  and  O1_2 
REMARK    2  A    between atoms: C3_11  and  O1_2 
REMARK    3  A    between atoms: C5_13  and  O2_3 
REMARK    4  A    between atoms: C4_12  and  O3_4 
REMARK    5  A    between atoms: C6_14  and  O4_5 
REMARK    6  A    between atoms: C7_15  and  O5_6 
REMARK    7  A    between atoms: C1_9  and  C13_21 
REMARK    8  A    between atoms: C14_22  and  C2_10 
REMARK    9  A    between atoms: C15_23  and  C16_24 
ROOT
HETATM    1  N1  UNK     1      22.075  -3.799  37.530  1.00  0.00    -0.191 NA
HETATM    2  C14 UNK     1      18.747  -4.331  36.804  1.00  0.00     0.035 C 
HETATM    3  C15 UNK     1      19.786  -5.017  37.352  1.00  0.00     0.055 C 
HETATM    4  C26 UNK     1      21.050  -4.334  37.446  1.00  0.00     0.100 C 
ENDROOT
BRANCH   3   5
HETATM    5  C16 UNK     1      19.685  -6.383  37.844  1.00  0.00    -0.015 A 
HETATM    6  C17 UNK     1      19.071  -7.363  37.064  1.00  0.00     0.014 A 
HETATM    7  C19 UNK     1      18.975  -8.671  37.536  1.00  0.00     0.024 A 
HETATM    8  C21 UNK     1      19.494  -9.001  38.788  1.00  0.00     0.034 A 
HETATM    9  C20 UNK     1      20.108  -8.020  39.569  1.00  0.00     0.024 A 
HETATM   10 Cl1  UNK     1      19.376 -10.615  39.371  1.00  0.00    -0.084 Cl
HETATM   11  C18 UNK     1      20.204  -6.711  39.097  1.00  0.00     0.014 A 
ENDBRANCH   3   5
BRANCH   2  12
HETATM   12  C2  UNK     1      18.802  -2.951  36.301  1.00  0.00    -0.032 A 
HETATM   13  C10 UNK     1      18.478  -1.903  37.149  1.00  0.00     0.051 A 
HETATM   14  C4  UNK     1      18.530  -0.593  36.670  1.00  0.00     0.102 A 
HETATM   15  C3  UNK     1      18.905  -0.348  35.349  1.00  0.00     0.112 A 
HETATM   16  C12 UNK     1      19.229  -1.412  34.507  1.00  0.00     0.041 A 
HETATM   17  C11 UNK     1      19.176  -2.720  34.985  1.00  0.00     0.014 A 
BRANCH  14  18
HETATM   18  O3  UNK     1      18.211   0.437  37.503  1.00  0.00    -0.353 OA
HETATM   19  C25 UNK     1      16.828   0.766  37.627  1.00  0.00     0.210 C 
ENDBRANCH  14  18
BRANCH  15  20
HETATM   20  O1  UNK     1      18.960   0.926  34.871  1.00  0.00    -0.272 OA
BRANCH  20  21
HETATM   21  C13 UNK     1      17.816   1.329  34.178  1.00  0.00     0.298 C 
HETATM   22  O6  UNK     1      16.696   0.865  34.322  1.00  0.00    -0.259 OA
BRANCH  21  23
HETATM   23  C1  UNK     1      18.132   2.406  33.206  1.00  0.00     0.045 A 
HETATM   24  C8  UNK     1      18.149   3.715  33.643  1.00  0.00     0.057 A 
HETATM   25  C6  UNK     1      18.444   4.727  32.728  1.00  0.00     0.105 A 
HETATM   26  C5  UNK     1      18.715   4.408  31.398  1.00  0.00     0.135 A 
HETATM   27  C7  UNK     1      18.692   3.077  30.981  1.00  0.00     0.105 A 
HETATM   28  C9  UNK     1      18.397   2.065  31.895  1.00  0.00     0.057 A 
BRANCH  25  29
HETATM   29  O4  UNK     1      18.462   6.023  33.148  1.00  0.00    -0.353 OA
HETATM   30  C23 UNK     1      17.201   6.645  33.386  1.00  0.00     0.210 C 
ENDBRANCH  25  29
BRANCH  26  31
HETATM   31  O2  UNK     1      19.004   5.397  30.505  1.00  0.00    -0.351 OA
HETATM   32  C22 UNK     1      20.353   5.859  30.466  1.00  0.00     0.210 C 
ENDBRANCH  26  31
BRANCH  27  33
HETATM   33  O5  UNK     1      18.955   2.751  29.685  1.00  0.00    -0.353 OA
HETATM   34  C24 UNK     1      17.925   2.076  28.966  1.00  0.00     0.210 C 
ENDBRANCH  27  33
ENDBRANCH  21  23
ENDBRANCH  20  21
ENDBRANCH  15  20
ENDBRANCH   2  12
TORSDOF 9
ENDMDL
MODEL 8
REMARK VINA RESULT:      -8.3      7.410     10.845
REMARK  9 active torsions:
REMARK  status: ('A' for Active; 'I' for Inactive)
REMARK    1  A    between atoms: C13_21  and  O1_2 
REMARK    2  A    between atoms: C3_11  and  O1_2 
REMARK    3  A    between atoms: C5_13  and  O2_3 
REMARK    4  A    between atoms: C4_12  and  O3_4 
REMARK    5  A    between atoms: C6_14  and  O4_5 
REMARK    6  A    between atoms: C7_15  and  O5_6 
REMARK    7  A    between atoms: C1_9  and  C13_21 
REMARK    8  A    between atoms: C14_22  and  C2_10 
REMARK    9  A    between atoms: C15_23  and  C16_24 
ROOT
HETATM    1  N1  UNK     1      18.242   3.198  34.333  1.00  0.00    -0.191 NA
HETATM    2  C14 UNK     1      18.084   5.035  31.419  1.00  0.00     0.035 C 
HETATM    3  C15 UNK     1      18.297   3.745  31.792  1.00  0.00     0.055 C 
HETATM    4  C26 UNK     1      18.265   3.452  33.201  1.00  0.00     0.100 C 
ENDROOT
BRANCH   3   5
HETATM    5  C16 UNK     1      18.547   2.662  30.853  1.00  0.00    -0.015 A 
HETATM    6  C17 UNK     1      18.060   2.742  29.549  1.00  0.00     0.014 A 
HETATM    7  C19 UNK     1      18.300   1.705  28.649  1.00  0.00     0.024 A 
HETATM    8  C21 UNK     1      19.029   0.586  29.053  1.00  0.00     0.034 A 
HETATM    9  C20 UNK     1      19.516   0.505  30.358  1.00  0.00     0.024 A 
HETATM   10 Cl1  UNK     1      19.326  -0.695  27.943  1.00  0.00    -0.084 Cl
HETATM   11  C18 UNK     1      19.276   1.543  31.258  1.00  0.00     0.014 A 
ENDBRANCH   3   5
BRANCH   2  12
HETATM   12  C2  UNK     1      17.821   6.158  32.331  1.00  0.00    -0.032 A 
HETATM   13  C10 UNK     1      16.524   6.404  32.755  1.00  0.00     0.051 A 
HETATM   14  C4  UNK     1      16.276   7.470  33.621  1.00  0.00     0.102 A 
HETATM   15  C3  UNK     1      17.329   8.278  34.052  1.00  0.00     0.112 A 
HETATM   16  C12 UNK     1      18.629   8.019  33.617  1.00  0.00     0.041 A 
HETATM   17  C11 UNK     1      18.877   6.955  32.752  1.00  0.00     0.014 A 
BRANCH  14  18
HETATM   18  O3  UNK     1      15.002   7.712  34.037  1.00  0.00    -0.353 OA
HETATM   19  C25 UNK     1      14.013   7.893  33.025  1.00  0.00     0.210 C 
ENDBRANCH  14  18
BRANCH  15  20
HETATM   20  O1  UNK     1      17.099   9.321  34.896  1.00  0.00    -0.272 OA
BRANCH  20  21
HETATM   21  C13 UNK     1      16.904  10.546  34.256  1.00  0.00     0.298 C 
HETATM   22  O6  UNK     1      17.743  11.153  33.608  1.00  0.00    -0.259 OA
BRANCH  21  23
HETATM   23  C1  UNK     1      15.525  11.050  34.475  1.00  0.00     0.045 A 
HETATM   24  C8  UNK     1      14.810  11.527  33.395  1.00  0.00     0.057 A 
HETATM   25  C6  UNK     1      13.514  12.002  33.600  1.00  0.00     0.105 A 
HETATM   26  C5  UNK     1      12.962  11.990  34.881  1.00  0.00     0.135 A 
HETATM   27  C7  UNK     1      13.705  11.503  35.956  1.00  0.00     0.105 A 
HETATM   28  C9  UNK     1      15.001  11.028  35.751  1.00  0.00     0.057 A 
BRANCH  25  29
HETATM   29  O4  UNK     1      12.800  12.476  32.542  1.00  0.00    -0.353 OA
HETATM   30  C23 UNK     1      13.171  13.754  32.029  1.00  0.00     0.210 C 
ENDBRANCH  25  29
BRANCH  26  31
HETATM   31  O2  UNK     1      11.696  12.454  35.082  1.00  0.00    -0.351 OA
HETATM   32  C22 UNK     1      11.561  13.820  35.468  1.00  0.00     0.210 C 
ENDBRANCH  26  31
BRANCH  27  33
HETATM   33  O5  UNK     1      13.178  11.486  37.213  1.00  0.00    -0.353 OA
HETATM   34  C24 UNK     1      13.938  12.116  38.241  1.00  0.00     0.210 C 
ENDBRANCH  27  33
ENDBRANCH  21  23
ENDBRANCH  20  21
ENDBRANCH  15  20
ENDBRANCH   2  12
TORSDOF 9
ENDMDL
MODEL 9
REMARK VINA RESULT:      -8.3      7.397     10.988
REMARK  9 active torsions:
REMARK  status: ('A' for Active; 'I' for Inactive)
REMARK    1  A    between atoms: C13_21  and  O1_2 
REMARK    2  A    between atoms: C3_11  and  O1_2 
REMARK    3  A    between atoms: C5_13  and  O2_3 
REMARK    4  A    between atoms: C4_12  and  O3_4 
REMARK    5  A    between atoms: C6_14  and  O4_5 
REMARK    6  A    between atoms: C7_15  and  O5_6 
REMARK    7  A    between atoms: C1_9  and  C13_21 
REMARK    8  A    between atoms: C14_22  and  C2_10 
REMARK    9  A    between atoms: C15_23  and  C16_24 
ROOT
HETATM    1  N1  UNK     1      18.102   3.029  34.187  1.00  0.00    -0.191 NA
HETATM    2  C14 UNK     1      18.174   4.897  31.291  1.00  0.00     0.035 C 
HETATM    3  C15 UNK     1      18.310   3.595  31.659  1.00  0.00     0.055 C 
HETATM    4  C26 UNK     1      18.194   3.292  33.061  1.00  0.00     0.100 C 
ENDROOT
BRANCH   3   5
HETATM    5  C16 UNK     1      18.559   2.511  30.722  1.00  0.00    -0.015 A 
HETATM    6  C17 UNK     1      18.005   2.552  29.442  1.00  0.00     0.014 A 
HETATM    7  C19 UNK     1      18.244   1.513  28.544  1.00  0.00     0.024 A 
HETATM    8  C21 UNK     1      19.038   0.431  28.925  1.00  0.00     0.034 A 
HETATM    9  C20 UNK     1      19.592   0.389  30.205  1.00  0.00     0.024 A 
HETATM   10 Cl1  UNK     1      19.333  -0.852  27.818  1.00  0.00    -0.084 Cl
HETATM   11  C18 UNK     1      19.353   1.429  31.104  1.00  0.00     0.014 A 
ENDBRANCH   3   5
BRANCH   2  12
HETATM   12  C2  UNK     1      17.916   6.023  32.200  1.00  0.00    -0.032 A 
HETATM   13  C10 UNK     1      16.614   6.305  32.585  1.00  0.00     0.051 A 
HETATM   14  C4  UNK     1      16.371   7.373  33.449  1.00  0.00     0.102 A 
HETATM   15  C3  UNK     1      17.432   8.148  33.917  1.00  0.00     0.112 A 
HETATM   16  C12 UNK     1      18.738   7.852  33.523  1.00  0.00     0.041 A 
HETATM   17  C11 UNK     1      18.981   6.785  32.659  1.00  0.00     0.014 A 
BRANCH  14  18
HETATM   18  O3  UNK     1      15.091   7.651  33.826  1.00  0.00    -0.353 OA
HETATM   19  C25 UNK     1      14.086   7.571  32.817  1.00  0.00     0.210 C 
ENDBRANCH  14  18
BRANCH  15  20
HETATM   20  O1  UNK     1      17.207   9.193  34.761  1.00  0.00    -0.272 OA
BRANCH  20  21
HETATM   21  C13 UNK     1      17.273  10.447  34.151  1.00  0.00     0.298 C 
HETATM   22  O6  UNK     1      18.155  10.827  33.396  1.00  0.00    -0.259 OA
BRANCH  21  23
HETATM   23  C1  UNK     1      16.124  11.298  34.552  1.00  0.00     0.045 A 
HETATM   24  C8  UNK     1      16.359  12.408  35.337  1.00  0.00     0.057 A 
HETATM   25  C6  UNK     1      15.279  13.207  35.715  1.00  0.00     0.105 A 
HETATM   26  C5  UNK     1      13.989  12.877  35.301  1.00  0.00     0.135 A 
HETATM   27  C7  UNK     1      13.778  11.750  34.508  1.00  0.00     0.105 A 
HETATM   28  C9  UNK     1      14.857  10.950  34.129  1.00  0.00     0.057 A 
BRANCH  25  29
HETATM   29  O4  UNK     1      15.499  14.305  36.491  1.00  0.00    -0.353 OA
HETATM   30  C23 UNK     1      15.662  14.087  37.891  1.00  0.00     0.210 C 
ENDBRANCH  25  29
BRANCH  26  31
HETATM   31  O2  UNK     1      12.934  13.658  35.670  1.00  0.00    -0.351 OA
HETATM   32  C22 UNK     1      12.190  13.241  36.813  1.00  0.00     0.210 C 
ENDBRANCH  26  31
BRANCH  27  33
HETATM   33  O5  UNK     1      12.523  11.416  34.096  1.00  0.00    -0.353 OA
HETATM   34  C24 UNK     1      12.205  11.658  32.727  1.00  0.00     0.210 C 
ENDBRANCH  27  33
ENDBRANCH  21  23
ENDBRANCH  20  21
ENDBRANCH  15  20
ENDBRANCH   2  12
TORSDOF 9
ENDMDL
MODEL 10
REMARK VINA RESULT:      -8.3      7.246     10.935
REMARK  9 active torsions:
REMARK  status: ('A' for Active; 'I' for Inactive)
REMARK    1  A    between atoms: C13_21  and  O1_2 
REMARK    2  A    between atoms: C3_11  and  O1_2 
REMARK    3  A    between atoms: C5_13  and  O2_3 
REMARK    4  A    between atoms: C4_12  and  O3_4 
REMARK    5  A    between atoms: C6_14  and  O4_5 
REMARK    6  A    between atoms: C7_15  and  O5_6 
REMARK    7  A    between atoms: C1_9  and  C13_21 
REMARK    8  A    between atoms: C14_22  and  C2_10 
REMARK    9  A    between atoms: C15_23  and  C16_24 
ROOT
HETATM    1  N1  UNK     1      18.275   3.109  34.518  1.00  0.00    -0.191 NA
HETATM    2  C14 UNK     1      17.869   4.914  31.609  1.00  0.00     0.035 C 
HETATM    3  C15 UNK     1      18.207   3.649  31.976  1.00  0.00     0.055 C 
HETATM    4  C26 UNK     1      18.242   3.360  33.386  1.00  0.00     0.100 C 
ENDROOT
BRANCH   3   5
HETATM    5  C16 UNK     1      18.525   2.589  31.032  1.00  0.00    -0.015 A 
HETATM    6  C17 UNK     1      18.128   2.699  29.699  1.00  0.00     0.014 A 
HETATM    7  C19 UNK     1      18.433   1.683  28.794  1.00  0.00     0.024 A 
HETATM    8  C21 UNK     1      19.137   0.556  29.222  1.00  0.00     0.034 A 
HETATM    9  C20 UNK     1      19.534   0.446  30.555  1.00  0.00     0.024 A 
HETATM   10 Cl1  UNK     1      19.514  -0.697  28.105  1.00  0.00    -0.084 Cl
HETATM   11  C18 UNK     1      19.229   1.463  31.460  1.00  0.00     0.014 A 
ENDBRANCH   3   5
BRANCH   2  12
HETATM   12  C2  UNK     1      17.535   6.013  32.527  1.00  0.00    -0.032 A 
HETATM   13  C10 UNK     1      18.517   6.531  33.356  1.00  0.00     0.051 A 
HETATM   14  C4  UNK     1      18.199   7.574  34.227  1.00  0.00     0.102 A 
HETATM   15  C3  UNK     1      16.901   8.086  34.257  1.00  0.00     0.112 A 
HETATM   16  C12 UNK     1      15.923   7.555  33.416  1.00  0.00     0.041 A 
HETATM   17  C11 UNK     1      16.241   6.513  32.547  1.00  0.00     0.014 A 
BRANCH  14  18
HETATM   18  O3  UNK     1      19.164   8.083  35.043  1.00  0.00    -0.353 OA
HETATM   19  C25 UNK     1      20.065   9.029  34.469  1.00  0.00     0.210 C 
ENDBRANCH  14  18
BRANCH  15  20
HETATM   20  O1  UNK     1      16.579   9.104  35.102  1.00  0.00    -0.272 OA
BRANCH  20  21
HETATM   21  C13 UNK     1      16.349  10.326  34.468  1.00  0.00     0.298 C 
HETATM   22  O6  UNK     1      17.098  10.867  33.670  1.00  0.00    -0.259 OA
BRANCH  21  23
HETATM   23  C1  UNK     1      15.058  10.919  34.902  1.00  0.00     0.045 A 
HETATM   24  C8  UNK     1      14.892  11.254  36.231  1.00  0.00     0.057 A 
HETATM   25  C6  UNK     1      13.679  11.810  36.639  1.00  0.00     0.105 A 
HETATM   26  C5  UNK     1      12.659  12.017  35.711  1.00  0.00     0.135 A 
HETATM   27  C7  UNK     1      12.852  11.670  34.374  1.00  0.00     0.105 A 
HETATM   28  C9  UNK     1      14.065  11.114  33.965  1.00  0.00     0.057 A 
BRANCH  25  29
HETATM   29  O4  UNK     1      13.503  12.143  37.948  1.00  0.00    -0.353 OA
HETATM   30  C23 UNK     1      13.086  11.104  38.832  1.00  0.00     0.210 C 
ENDBRANCH  25  29
BRANCH  26  31
HETATM   31  O2  UNK     1      11.474  12.560  36.110  1.00  0.00    -0.351 OA
HETATM   32  C22 UNK     1      11.398  13.984  36.156  1.00  0.00     0.210 C 
ENDBRANCH  26  31
BRANCH  27  33
HETATM   33  O5  UNK     1      11.864  11.867  33.456  1.00  0.00    -0.353 OA
HETATM   34  C24 UNK     1      11.944  13.050  32.664  1.00  0.00     0.210 C 
ENDBRANCH  27  33
ENDBRANCH  21  23
ENDBRANCH  20  21
ENDBRANCH  15  20
ENDBRANCH   2  12
TORSDOF 9
ENDMDL
