MODEL 1
REMARK VINA RESULT:     -10.1      0.000      0.000
REMARK  9 active torsions:
REMARK  status: ('A' for Active; 'I' for Inactive)
REMARK    1  A    between atoms: C12_22  and  O2_2 
REMARK    2  A    between atoms: C6_16  and  O2_2 
REMARK    3  A    between atoms: C19_29  and  O4_4 
REMARK    4  A    between atoms: C20_30  and  O4_4 
REMARK       I    between atoms: C19_29  and  N1_9 
REMARK    5  A    between atoms: C8_18  and  N1_9 
REMARK    6  A    between atoms: C18_28  and  N2_10 
REMARK    7  A    between atoms: C3_13  and  C5_15 
REMARK    8  A    between atoms: C12_22  and  C8_18 
REMARK    9  A    between atoms: C20_30  and  C21_31 
ROOT
HETATM    1  O1  UNK     1      18.067   3.802  33.452  1.00  0.00    -0.321 OA
HETATM    2  O3  UNK     1      18.548   6.590  30.512  1.00  0.00    -0.286 OA
HETATM    3  C1  UNK     1      18.476   4.316  31.116  1.00  0.00     0.049 A 
HETATM    4  C2  UNK     1      18.315   3.408  32.162  1.00  0.00     0.091 A 
HETATM    5  C3  UNK     1      18.092   6.143  32.806  1.00  0.00     0.048 A 
HETATM    6  C4  UNK     1      18.382   5.760  31.396  1.00  0.00     0.197 A 
HETATM    7  C6  UNK     1      18.655   1.577  30.626  1.00  0.00     0.082 A 
HETATM    8  C7  UNK     1      18.404   2.037  31.920  1.00  0.00     0.075 A 
HETATM    9  C9  UNK     1      18.728   3.857  29.820  1.00  0.00     0.021 A 
HETATM   10  C10 UNK     1      17.960   5.150  33.698  1.00  0.00     0.159 A 
HETATM   11  C11 UNK     1      18.816   2.484  29.579  1.00  0.00     0.038 A 
ENDROOT
BRANCH   7  12
HETATM   12  O2  UNK     1      18.741   0.240  30.387  1.00  0.00    -0.277 OA
BRANCH  12  13
HETATM   13  C12 UNK     1      20.026  -0.210  30.041  1.00  0.00     0.286 C 
HETATM   14  O5  UNK     1      20.648   0.162  29.051  1.00  0.00    -0.263 OA
BRANCH  13  15
HETATM   15  C8  UNK     1      20.587  -1.217  31.037  1.00  0.00     0.183 C 
HETATM   16  C15 UNK     1      20.605  -2.608  30.425  1.00  0.00     0.043 C 
BRANCH  15  17
HETATM   17  N1  UNK     1      19.848  -1.223  32.272  1.00  0.00    -0.323 N 
HETATM   18  C19 UNK     1      20.306  -1.799  33.441  1.00  0.00     0.361 C 
HETATM   19  O6  UNK     1      21.382  -2.371  33.580  1.00  0.00    -0.238 OA
HETATM   20  H11 UNK     1      18.928  -0.790  32.288  1.00  0.00     0.165 HD
BRANCH  18  21
HETATM   21  O4  UNK     1      19.378  -1.640  34.432  1.00  0.00    -0.299 OA
BRANCH  21  22
HETATM   22  C20 UNK     1      18.165  -0.982  34.050  1.00  0.00     0.219 C 
BRANCH  22  23
HETATM   23  C21 UNK     1      17.733  -0.069  35.160  1.00  0.00    -0.034 A 
HETATM   24  C22 UNK     1      18.636   0.848  35.700  1.00  0.00     0.009 A 
HETATM   25  C24 UNK     1      18.234   1.697  36.732  1.00  0.00     0.001 A 
HETATM   26  C26 UNK     1      16.932   1.628  37.225  1.00  0.00     0.000 A 
HETATM   27  C25 UNK     1      16.029   0.712  36.685  1.00  0.00     0.001 A 
HETATM   28  C23 UNK     1      16.431  -0.137  35.653  1.00  0.00     0.009 A 
ENDBRANCH  22  23
ENDBRANCH  21  22
ENDBRANCH  18  21
ENDBRANCH  15  17
ENDBRANCH  13  15
ENDBRANCH  12  13
ENDBRANCH   7  12
BRANCH   5  29
HETATM   29  C5  UNK     1      17.934   7.548  33.214  1.00  0.00    -0.020 A 
HETATM   30  C13 UNK     1      16.694   8.176  33.091  1.00  0.00     0.015 A 
HETATM   31  C16 UNK     1      16.545   9.508  33.477  1.00  0.00     0.037 A 
HETATM   32  C18 UNK     1      17.635  10.212  33.986  1.00  0.00     0.102 A 
HETATM   33  C17 UNK     1      18.876   9.586  34.110  1.00  0.00     0.037 A 
HETATM   34  C14 UNK     1      19.025   8.253  33.724  1.00  0.00     0.015 A 
BRANCH  32  35
HETATM   35  N2  UNK     1      17.482  11.569  34.379  1.00  0.00    -0.116 N 
HETATM   36  O7  UNK     1      18.196  12.443  33.831  1.00  0.00    -0.532 OA
HETATM   37  O8  UNK     1      16.639  11.855  35.262  1.00  0.00    -0.532 OA
ENDBRANCH  32  35
ENDBRANCH   5  29
TORSDOF 9
ENDMDL
MODEL 2
REMARK VINA RESULT:      -9.6      2.211      3.638
REMARK  9 active torsions:
REMARK  status: ('A' for Active; 'I' for Inactive)
REMARK    1  A    between atoms: C12_22  and  O2_2 
REMARK    2  A    between atoms: C6_16  and  O2_2 
REMARK    3  A    between atoms: C19_29  and  O4_4 
REMARK    4  A    between atoms: C20_30  and  O4_4 
REMARK       I    between atoms: C19_29  and  N1_9 
REMARK    5  A    between atoms: C8_18  and  N1_9 
REMARK    6  A    between atoms: C18_28  and  N2_10 
REMARK    7  A    between atoms: C3_13  and  C5_15 
REMARK    8  A    between atoms: C12_22  and  C8_18 
REMARK    9  A    between atoms: C20_30  and  C21_31 
ROOT
HETATM    1  O1  UNK     1      16.706   8.026  31.383  1.00  0.00    -0.321 OA
HETATM    2  O3  UNK     1      17.035   7.740  35.439  1.00  0.00    -0.286 OA
HETATM    3  C1  UNK     1      17.493   6.806  33.327  1.00  0.00     0.049 A 
HETATM    4  C2  UNK     1      17.341   6.951  31.949  1.00  0.00     0.091 A 
HETATM    5  C3  UNK     1      16.286   9.003  33.565  1.00  0.00     0.048 A 
HETATM    6  C4  UNK     1      16.949   7.844  34.222  1.00  0.00     0.197 A 
HETATM    7  C6  UNK     1      18.500   4.862  31.602  1.00  0.00     0.082 A 
HETATM    8  C7  UNK     1      17.844   5.979  31.083  1.00  0.00     0.075 A 
HETATM    9  C9  UNK     1      18.149   5.688  33.849  1.00  0.00     0.021 A 
HETATM   10  C10 UNK     1      16.222   8.997  32.226  1.00  0.00     0.159 A 
HETATM   11  C11 UNK     1      18.653   4.717  32.981  1.00  0.00     0.038 A 
ENDROOT
BRANCH   7  12
HETATM   12  O2  UNK     1      18.993   3.912  30.760  1.00  0.00    -0.277 OA
BRANCH  12  13
HETATM   13  C12 UNK     1      18.218   2.744  30.679  1.00  0.00     0.286 C 
HETATM   14  O5  UNK     1      16.999   2.710  30.813  1.00  0.00    -0.263 OA
BRANCH  13  15
HETATM   15  C8  UNK     1      19.051   1.501  30.394  1.00  0.00     0.183 C 
HETATM   16  C15 UNK     1      18.933   1.113  28.928  1.00  0.00     0.043 C 
BRANCH  15  17
HETATM   17  N1  UNK     1      18.676   0.395  31.236  1.00  0.00    -0.323 N 
HETATM   18  C19 UNK     1      19.571  -0.532  31.733  1.00  0.00     0.361 C 
HETATM   19  O6  UNK     1      20.779  -0.538  31.529  1.00  0.00    -0.238 OA
HETATM   20  H11 UNK     1      17.694   0.277  31.471  1.00  0.00     0.165 HD
BRANCH  18  21
HETATM   21  O4  UNK     1      18.908  -1.454  32.495  1.00  0.00    -0.299 OA
BRANCH  21  22
HETATM   22  C20 UNK     1      19.326  -1.551  33.861  1.00  0.00     0.219 C 
BRANCH  22  23
HETATM   23  C21 UNK     1      18.338  -0.825  34.727  1.00  0.00    -0.034 A 
HETATM   24  C22 UNK     1      16.997  -0.756  34.349  1.00  0.00     0.009 A 
HETATM   25  C24 UNK     1      16.079  -0.081  35.155  1.00  0.00     0.001 A 
HETATM   26  C26 UNK     1      16.502   0.524  36.338  1.00  0.00     0.000 A 
HETATM   27  C25 UNK     1      17.843   0.455  36.716  1.00  0.00     0.001 A 
HETATM   28  C23 UNK     1      18.761  -0.220  35.910  1.00  0.00     0.009 A 
ENDBRANCH  22  23
ENDBRANCH  21  22
ENDBRANCH  18  21
ENDBRANCH  15  17
ENDBRANCH  13  15
ENDBRANCH  12  13
ENDBRANCH   7  12
BRANCH   5  29
HETATM   29  C5  UNK     1      15.734  10.127  34.340  1.00  0.00    -0.020 A 
HETATM   30  C13 UNK     1      14.452  10.038  34.882  1.00  0.00     0.015 A 
HETATM   31  C16 UNK     1      13.929  11.104  35.615  1.00  0.00     0.037 A 
HETATM   32  C18 UNK     1      14.688  12.258  35.806  1.00  0.00     0.102 A 
HETATM   33  C17 UNK     1      15.970  12.348  35.264  1.00  0.00     0.037 A 
HETATM   34  C14 UNK     1      16.494  11.282  34.531  1.00  0.00     0.015 A 
BRANCH  32  35
HETATM   35  N2  UNK     1      14.154  13.342  36.552  1.00  0.00    -0.116 N 
HETATM   36  O7  UNK     1      12.972  13.270  36.967  1.00  0.00    -0.532 OA
HETATM   37  O8  UNK     1      14.878  14.342  36.774  1.00  0.00    -0.532 OA
ENDBRANCH  32  35
ENDBRANCH   5  29
TORSDOF 9
ENDMDL
MODEL 3
REMARK VINA RESULT:      -9.5      2.128      3.001
REMARK  9 active torsions:
REMARK  status: ('A' for Active; 'I' for Inactive)
REMARK    1  A    between atoms: C12_22  and  O2_2 
REMARK    2  A    between atoms: C6_16  and  O2_2 
REMARK    3  A    between atoms: C19_29  and  O4_4 
REMARK    4  A    between atoms: C20_30  and  O4_4 
REMARK       I    between atoms: C19_29  and  N1_9 
REMARK    5  A    between atoms: C8_18  and  N1_9 
REMARK    6  A    between atoms: C18_28  and  N2_10 
REMARK    7  A    between atoms: C3_13  and  C5_15 
REMARK    8  A    between atoms: C12_22  and  C8_18 
REMARK    9  A    between atoms: C20_30  and  C21_31 
ROOT
HETATM    1  O1  UNK     1      17.176   5.831  33.773  1.00  0.00    -0.321 OA
HETATM    2  O3  UNK     1      16.385   8.739  31.024  1.00  0.00    -0.286 OA
HETATM    3  C1  UNK     1      17.358   6.648  31.496  1.00  0.00     0.049 A 
HETATM    4  C2  UNK     1      17.608   5.692  32.479  1.00  0.00     0.091 A 
HETATM    5  C3  UNK     1      16.132   7.962  33.260  1.00  0.00     0.048 A 
HETATM    6  C4  UNK     1      16.601   7.862  31.850  1.00  0.00     0.197 A 
HETATM    7  C6  UNK     1      18.793   4.342  30.866  1.00  0.00     0.082 A 
HETATM    8  C7  UNK     1      18.326   4.538  32.167  1.00  0.00     0.075 A 
HETATM    9  C9  UNK     1      17.824   6.455  30.192  1.00  0.00     0.021 A 
HETATM   10  C10 UNK     1      16.453   6.956  34.087  1.00  0.00     0.159 A 
HETATM   11  C11 UNK     1      18.541   5.298  29.881  1.00  0.00     0.038 A 
ENDROOT
BRANCH   7  12
HETATM   12  O2  UNK     1      19.492   3.217  30.557  1.00  0.00    -0.277 OA
BRANCH  12  13
HETATM   13  C12 UNK     1      18.703   2.135  30.133  1.00  0.00     0.286 C 
HETATM   14  O5  UNK     1      17.551   2.236  29.724  1.00  0.00    -0.263 OA
BRANCH  13  15
HETATM   15  C8  UNK     1      19.431   0.800  30.224  1.00  0.00     0.183 C 
HETATM   16  C15 UNK     1      19.411   0.098  28.876  1.00  0.00     0.043 C 
BRANCH  15  17
HETATM   17  N1  UNK     1      18.872  -0.051  31.241  1.00  0.00    -0.323 N 
HETATM   18  C19 UNK     1      19.612  -0.952  31.983  1.00  0.00     0.361 C 
HETATM   19  O6  UNK     1      20.819  -1.142  31.877  1.00  0.00    -0.238 OA
HETATM   20  H11 UNK     1      17.873  -0.001  31.419  1.00  0.00     0.165 HD
BRANCH  18  21
HETATM   21  O4  UNK     1      18.797  -1.608  32.862  1.00  0.00    -0.299 OA
BRANCH  21  22
HETATM   22  C20 UNK     1      19.192  -1.557  34.238  1.00  0.00     0.219 C 
BRANCH  22  23
HETATM   23  C21 UNK     1      18.154  -0.805  35.018  1.00  0.00    -0.034 A 
HETATM   24  C22 UNK     1      18.498  -0.179  36.216  1.00  0.00     0.009 A 
HETATM   25  C24 UNK     1      17.532   0.519  36.940  1.00  0.00     0.001 A 
HETATM   26  C26 UNK     1      16.221   0.591  36.468  1.00  0.00     0.000 A 
HETATM   27  C25 UNK     1      15.877  -0.035  35.270  1.00  0.00     0.001 A 
HETATM   28  C23 UNK     1      16.843  -0.734  34.546  1.00  0.00     0.009 A 
ENDBRANCH  22  23
ENDBRANCH  21  22
ENDBRANCH  18  21
ENDBRANCH  15  17
ENDBRANCH  13  15
ENDBRANCH  12  13
ENDBRANCH   7  12
BRANCH   5  29
HETATM   29  C5  UNK     1      15.334   9.103  33.736  1.00  0.00    -0.020 A 
HETATM   30  C13 UNK     1      15.690   9.760  34.915  1.00  0.00     0.015 A 
HETATM   31  C16 UNK     1      14.932  10.840  35.367  1.00  0.00     0.037 A 
HETATM   32  C18 UNK     1      13.819  11.264  34.642  1.00  0.00     0.102 A 
HETATM   33  C17 UNK     1      13.462  10.607  33.464  1.00  0.00     0.037 A 
HETATM   34  C14 UNK     1      14.219   9.527  33.011  1.00  0.00     0.015 A 
BRANCH  32  35
HETATM   35  N2  UNK     1      13.048  12.364  35.104  1.00  0.00    -0.116 N 
HETATM   36  O7  UNK     1      11.824  12.198  35.322  1.00  0.00    -0.532 OA
HETATM   37  O8  UNK     1      13.612  13.469  35.281  1.00  0.00    -0.532 OA
ENDBRANCH  32  35
ENDBRANCH   5  29
TORSDOF 9
ENDMDL
MODEL 4
REMARK VINA RESULT:      -9.4      2.663      4.175
REMARK  9 active torsions:
REMARK  status: ('A' for Active; 'I' for Inactive)
REMARK    1  A    between atoms: C12_22  and  O2_2 
REMARK    2  A    between atoms: C6_16  and  O2_2 
REMARK    3  A    between atoms: C19_29  and  O4_4 
REMARK    4  A    between atoms: C20_30  and  O4_4 
REMARK       I    between atoms: C19_29  and  N1_9 
REMARK    5  A    between atoms: C8_18  and  N1_9 
REMARK    6  A    between atoms: C18_28  and  N2_10 
REMARK    7  A    between atoms: C3_13  and  C5_15 
REMARK    8  A    between atoms: C12_22  and  C8_18 
REMARK    9  A    between atoms: C20_30  and  C21_31 
ROOT
HETATM    1  O1  UNK     1      15.345   6.555  32.555  1.00  0.00    -0.321 OA
HETATM    2  O3  UNK     1      17.357   9.790  34.012  1.00  0.00    -0.286 OA
HETATM    3  C1  UNK     1      17.455   7.660  33.015  1.00  0.00     0.049 A 
HETATM    4  C2  UNK     1      16.716   6.578  32.541  1.00  0.00     0.091 A 
HETATM    5  C3  UNK     1      15.258   8.775  33.536  1.00  0.00     0.048 A 
HETATM    6  C4  UNK     1      16.745   8.832  33.559  1.00  0.00     0.197 A 
HETATM    7  C6  UNK     1      18.762   5.423  31.987  1.00  0.00     0.082 A 
HETATM    8  C7  UNK     1      17.367   5.456  32.026  1.00  0.00     0.075 A 
HETATM    9  C9  UNK     1      18.852   7.628  32.977  1.00  0.00     0.021 A 
HETATM   10  C10 UNK     1      14.693   7.662  33.044  1.00  0.00     0.159 A 
HETATM   11  C11 UNK     1      19.502   6.506  32.460  1.00  0.00     0.038 A 
ENDROOT
BRANCH   7  12
HETATM   12  O2  UNK     1      19.400   4.331  31.484  1.00  0.00    -0.277 OA
BRANCH  12  13
HETATM   13  C12 UNK     1      19.008   3.971  30.184  1.00  0.00     0.286 C 
HETATM   14  O5  UNK     1      18.810   4.770  29.274  1.00  0.00    -0.263 OA
BRANCH  13  15
HETATM   15  C8  UNK     1      18.858   2.466  30.007  1.00  0.00     0.183 C 
HETATM   16  C15 UNK     1      17.824   2.162  28.935  1.00  0.00     0.043 C 
BRANCH  15  17
HETATM   17  N1  UNK     1      18.508   1.810  31.240  1.00  0.00    -0.323 N 
HETATM   18  C19 UNK     1      19.191   0.727  31.757  1.00  0.00     0.361 C 
HETATM   19  O6  UNK     1      20.168   0.190  31.246  1.00  0.00    -0.238 OA
HETATM   20  H11 UNK     1      17.703   2.152  31.758  1.00  0.00     0.165 HD
BRANCH  18  21
HETATM   21  O4  UNK     1      18.616   0.334  32.933  1.00  0.00    -0.299 OA
BRANCH  21  22
HETATM   22  C20 UNK     1      18.137   1.388  33.776  1.00  0.00     0.219 C 
BRANCH  22  23
HETATM   23  C21 UNK     1      17.931   0.851  35.162  1.00  0.00    -0.034 A 
HETATM   24  C22 UNK     1      17.756  -0.518  35.361  1.00  0.00     0.009 A 
HETATM   25  C24 UNK     1      17.565  -1.017  36.650  1.00  0.00     0.001 A 
HETATM   26  C26 UNK     1      17.548  -0.147  37.739  1.00  0.00     0.000 A 
HETATM   27  C25 UNK     1      17.723   1.223  37.541  1.00  0.00     0.001 A 
HETATM   28  C23 UNK     1      17.914   1.721  36.252  1.00  0.00     0.009 A 
ENDBRANCH  22  23
ENDBRANCH  21  22
ENDBRANCH  18  21
ENDBRANCH  15  17
ENDBRANCH  13  15
ENDBRANCH  12  13
ENDBRANCH   7  12
BRANCH   5  29
HETATM   29  C5  UNK     1      14.427   9.892  34.012  1.00  0.00    -0.020 A 
HETATM   30  C13 UNK     1      13.570  10.550  33.130  1.00  0.00     0.015 A 
HETATM   31  C16 UNK     1      12.783  11.610  33.581  1.00  0.00     0.037 A 
HETATM   32  C18 UNK     1      12.855  12.013  34.914  1.00  0.00     0.102 A 
HETATM   33  C17 UNK     1      13.712  11.356  35.798  1.00  0.00     0.037 A 
HETATM   34  C14 UNK     1      14.499  10.296  35.347  1.00  0.00     0.015 A 
BRANCH  32  35
HETATM   35  N2  UNK     1      12.054  13.093  35.373  1.00  0.00    -0.116 N 
HETATM   36  O7  UNK     1      12.614  14.080  35.906  1.00  0.00    -0.532 OA
HETATM   37  O8  UNK     1      10.810  13.030  35.232  1.00  0.00    -0.532 OA
ENDBRANCH  32  35
ENDBRANCH   5  29
TORSDOF 9
ENDMDL
MODEL 5
REMARK VINA RESULT:      -9.2      3.989     10.938
REMARK  9 active torsions:
REMARK  status: ('A' for Active; 'I' for Inactive)
REMARK    1  A    between atoms: C12_22  and  O2_2 
REMARK    2  A    between atoms: C6_16  and  O2_2 
REMARK    3  A    between atoms: C19_29  and  O4_4 
REMARK    4  A    between atoms: C20_30  and  O4_4 
REMARK       I    between atoms: C19_29  and  N1_9 
REMARK    5  A    between atoms: C8_18  and  N1_9 
REMARK    6  A    between atoms: C18_28  and  N2_10 
REMARK    7  A    between atoms: C3_13  and  C5_15 
REMARK    8  A    between atoms: C12_22  and  C8_18 
REMARK    9  A    between atoms: C20_30  and  C21_31 
ROOT
HETATM    1  O1  UNK     1      18.553  -1.320  37.518  1.00  0.00    -0.321 OA
HETATM    2  O3  UNK     1      20.195  -3.528  34.507  1.00  0.00    -0.286 OA
HETATM    3  C1  UNK     1      19.160  -1.523  35.178  1.00  0.00     0.049 A 
HETATM    4  C2  UNK     1      18.601  -0.818  36.243  1.00  0.00     0.091 A 
HETATM    5  C3  UNK     1      19.668  -3.361  36.822  1.00  0.00     0.048 A 
HETATM    6  C4  UNK     1      19.722  -2.864  35.420  1.00  0.00     0.197 A 
HETATM    7  C6  UNK     1      18.078   1.012  34.758  1.00  0.00     0.082 A 
HETATM    8  C7  UNK     1      18.059   0.450  36.036  1.00  0.00     0.075 A 
HETATM    9  C9  UNK     1      19.180  -0.963  33.898  1.00  0.00     0.021 A 
HETATM   10  C10 UNK     1      19.099  -2.562  37.736  1.00  0.00     0.159 A 
HETATM   11  C11 UNK     1      18.638   0.308  33.692  1.00  0.00     0.038 A 
ENDROOT
BRANCH   7  12
HETATM   12  O2  UNK     1      17.551   2.250  34.553  1.00  0.00    -0.277 OA
BRANCH  12  13
HETATM   13  C12 UNK     1      18.502   3.278  34.434  1.00  0.00     0.286 C 
HETATM   14  O5  UNK     1      19.360   3.528  35.274  1.00  0.00    -0.263 OA
BRANCH  13  15
HETATM   15  C8  UNK     1      18.367   4.060  33.134  1.00  0.00     0.183 C 
HETATM   16  C15 UNK     1      17.507   5.295  33.350  1.00  0.00     0.043 C 
BRANCH  15  17
HETATM   17  N1  UNK     1      17.825   3.252  32.073  1.00  0.00    -0.323 N 
HETATM   18  C19 UNK     1      18.200   3.369  30.748  1.00  0.00     0.361 C 
HETATM   19  O6  UNK     1      19.028   4.159  30.309  1.00  0.00    -0.238 OA
HETATM   20  H11 UNK     1      17.115   2.563  32.303  1.00  0.00     0.165 HD
BRANCH  18  21
HETATM   21  O4  UNK     1      17.509   2.467  29.989  1.00  0.00    -0.299 OA
BRANCH  21  22
HETATM   22  C20 UNK     1      18.153   2.041  28.783  1.00  0.00     0.219 C 
BRANCH  22  23
HETATM   23  C21 UNK     1      19.025   0.858  29.086  1.00  0.00    -0.034 A 
HETATM   24  C22 UNK     1      19.757   0.816  30.272  1.00  0.00     0.009 A 
HETATM   25  C24 UNK     1      20.567  -0.285  30.553  1.00  0.00     0.001 A 
HETATM   26  C26 UNK     1      20.647  -1.342  29.647  1.00  0.00     0.000 A 
HETATM   27  C25 UNK     1      19.915  -1.300  28.461  1.00  0.00     0.001 A 
HETATM   28  C23 UNK     1      19.105  -0.199  28.180  1.00  0.00     0.009 A 
ENDBRANCH  22  23
ENDBRANCH  21  22
ENDBRANCH  18  21
ENDBRANCH  15  17
ENDBRANCH  13  15
ENDBRANCH  12  13
ENDBRANCH   7  12
BRANCH   5  29
HETATM   29  C5  UNK     1      20.229  -4.666  37.208  1.00  0.00    -0.020 A 
HETATM   30  C13 UNK     1      21.471  -4.733  37.840  1.00  0.00     0.015 A 
HETATM   31  C16 UNK     1      22.003  -5.969  38.205  1.00  0.00     0.037 A 
HETATM   32  C18 UNK     1      21.293  -7.140  37.938  1.00  0.00     0.102 A 
HETATM   33  C17 UNK     1      20.051  -7.074  37.306  1.00  0.00     0.037 A 
HETATM   34  C14 UNK     1      19.519  -5.837  36.941  1.00  0.00     0.015 A 
BRANCH  32  35
HETATM   35  N2  UNK     1      21.836  -8.399  38.309  1.00  0.00    -0.116 N 
HETATM   36  O7  UNK     1      21.696  -8.796  39.491  1.00  0.00    -0.532 OA
HETATM   37  O8  UNK     1      22.441  -9.078  37.446  1.00  0.00    -0.532 OA
ENDBRANCH  32  35
ENDBRANCH   5  29
TORSDOF 9
ENDMDL
MODEL 6
REMARK VINA RESULT:      -9.2     13.629     16.103
REMARK  9 active torsions:
REMARK  status: ('A' for Active; 'I' for Inactive)
REMARK    1  A    between atoms: C12_22  and  O2_2 
REMARK    2  A    between atoms: C6_16  and  O2_2 
REMARK    3  A    between atoms: C19_29  and  O4_4 
REMARK    4  A    between atoms: C20_30  and  O4_4 
REMARK       I    between atoms: C19_29  and  N1_9 
REMARK    5  A    between atoms: C8_18  and  N1_9 
REMARK    6  A    between atoms: C18_28  and  N2_10 
REMARK    7  A    between atoms: C3_13  and  C5_15 
REMARK    8  A    between atoms: C12_22  and  C8_18 
REMARK    9  A    between atoms: C20_30  and  C21_31 
ROOT
HETATM    1  O1  UNK     1      25.913  -5.234  38.836  1.00  0.00    -0.321 OA
HETATM    2  O3  UNK     1      25.947  -9.281  38.326  1.00  0.00    -0.286 OA
HETATM    3  C1  UNK     1      27.176  -7.287  38.560  1.00  0.00     0.049 A 
HETATM    4  C2  UNK     1      27.104  -5.905  38.724  1.00  0.00     0.091 A 
HETATM    5  C3  UNK     1      24.659  -7.305  38.645  1.00  0.00     0.048 A 
HETATM    6  C4  UNK     1      25.928  -8.070  38.499  1.00  0.00     0.197 A 
HETATM    7  C6  UNK     1      29.513  -5.773  38.671  1.00  0.00     0.082 A 
HETATM    8  C7  UNK     1      28.272  -5.144  38.780  1.00  0.00     0.075 A 
HETATM    9  C9  UNK     1      28.418  -7.919  38.451  1.00  0.00     0.021 A 
HETATM   10  C10 UNK     1      24.757  -5.976  38.799  1.00  0.00     0.159 A 
HETATM   11  C11 UNK     1      29.586  -7.156  38.508  1.00  0.00     0.038 A 
ENDROOT
BRANCH   7  12
HETATM   12  O2  UNK     1      30.655  -5.034  38.726  1.00  0.00    -0.277 OA
BRANCH  12  13
HETATM   13  C12 UNK     1      30.923  -4.285  37.569  1.00  0.00     0.286 C 
HETATM   14  O5  UNK     1      30.638  -3.100  37.428  1.00  0.00    -0.263 OA
BRANCH  13  15
HETATM   15  C8  UNK     1      31.624  -5.099  36.488  1.00  0.00     0.183 C 
HETATM   16  C15 UNK     1      33.025  -4.559  36.249  1.00  0.00     0.043 C 
BRANCH  15  17
HETATM   17  N1  UNK     1      30.878  -5.116  35.257  1.00  0.00    -0.323 N 
HETATM   18  C19 UNK     1      30.335  -6.259  34.702  1.00  0.00     0.361 C 
HETATM   19  O6  UNK     1      30.415  -7.388  35.174  1.00  0.00    -0.238 OA
HETATM   20  H11 UNK     1      30.751  -4.242  34.755  1.00  0.00     0.165 HD
BRANCH  18  21
HETATM   21  O4  UNK     1      29.690  -5.948  33.538  1.00  0.00    -0.299 OA
BRANCH  21  22
HETATM   22  C20 UNK     1      28.293  -6.260  33.496  1.00  0.00     0.219 C 
BRANCH  22  23
HETATM   23  C21 UNK     1      28.013  -7.089  32.277  1.00  0.00    -0.034 A 
HETATM   24  C22 UNK     1      27.076  -6.657  31.339  1.00  0.00     0.009 A 
HETATM   25  C24 UNK     1      26.815  -7.428  30.206  1.00  0.00     0.001 A 
HETATM   26  C26 UNK     1      27.492  -8.632  30.011  1.00  0.00     0.000 A 
HETATM   27  C25 UNK     1      28.429  -9.064  30.949  1.00  0.00     0.001 A 
HETATM   28  C23 UNK     1      28.689  -8.293  32.082  1.00  0.00     0.009 A 
ENDBRANCH  22  23
ENDBRANCH  21  22
ENDBRANCH  18  21
ENDBRANCH  15  17
ENDBRANCH  13  15
ENDBRANCH  12  13
ENDBRANCH   7  12
BRANCH   5  29
HETATM   29  C5  UNK     1      23.345  -7.967  38.642  1.00  0.00    -0.020 A 
HETATM   30  C13 UNK     1      22.619  -8.084  39.827  1.00  0.00     0.015 A 
HETATM   31  C16 UNK     1      21.374  -8.713  39.825  1.00  0.00     0.037 A 
HETATM   32  C18 UNK     1      20.855  -9.225  38.636  1.00  0.00     0.102 A 
HETATM   33  C17 UNK     1      21.579  -9.109  37.450  1.00  0.00     0.037 A 
HETATM   34  C14 UNK     1      22.825  -8.480  37.452  1.00  0.00     0.015 A 
BRANCH  32  35
HETATM   35  N2  UNK     1      19.587  -9.866  38.634  1.00  0.00    -0.116 N 
HETATM   36  O7  UNK     1      19.402 -10.849  39.392  1.00  0.00    -0.532 OA
HETATM   37  O8  UNK     1      18.688  -9.433  37.875  1.00  0.00    -0.532 OA
ENDBRANCH  32  35
ENDBRANCH   5  29
TORSDOF 9
ENDMDL
MODEL 7
REMARK VINA RESULT:      -9.1      8.166     12.281
REMARK  9 active torsions:
REMARK  status: ('A' for Active; 'I' for Inactive)
REMARK    1  A    between atoms: C12_22  and  O2_2 
REMARK    2  A    between atoms: C6_16  and  O2_2 
REMARK    3  A    between atoms: C19_29  and  O4_4 
REMARK    4  A    between atoms: C20_30  and  O4_4 
REMARK       I    between atoms: C19_29  and  N1_9 
REMARK    5  A    between atoms: C8_18  and  N1_9 
REMARK    6  A    between atoms: C18_28  and  N2_10 
REMARK    7  A    between atoms: C3_13  and  C5_15 
REMARK    8  A    between atoms: C12_22  and  C8_18 
REMARK    9  A    between atoms: C20_30  and  C21_31 
ROOT
HETATM    1  O1  UNK     1      21.947  -5.630  37.270  1.00  0.00    -0.321 OA
HETATM    2  O3  UNK     1      17.977  -5.445  36.349  1.00  0.00    -0.286 OA
HETATM    3  C1  UNK     1      19.883  -6.778  36.712  1.00  0.00     0.049 A 
HETATM    4  C2  UNK     1      21.243  -6.780  37.020  1.00  0.00     0.091 A 
HETATM    5  C3  UNK     1      19.961  -4.272  36.944  1.00  0.00     0.048 A 
HETATM    6  C4  UNK     1      19.163  -5.493  36.646  1.00  0.00     0.197 A 
HETATM    7  C6  UNK     1      21.280  -9.187  36.837  1.00  0.00     0.082 A 
HETATM    8  C7  UNK     1      21.944  -7.984  37.083  1.00  0.00     0.075 A 
HETATM    9  C9  UNK     1      19.216  -7.981  36.465  1.00  0.00     0.021 A 
HETATM   10  C10 UNK     1      21.261  -4.440  37.227  1.00  0.00     0.159 A 
HETATM   11  C11 UNK     1      19.920  -9.185  36.530  1.00  0.00     0.038 A 
ENDROOT
BRANCH   7  12
HETATM   12  O2  UNK     1      21.962 -10.363  36.900  1.00  0.00    -0.277 OA
BRANCH  12  13
HETATM   13  C12 UNK     1      22.558 -10.759  35.691  1.00  0.00     0.286 C 
HETATM   14  O5  UNK     1      21.952 -10.900  34.633  1.00  0.00    -0.263 OA
BRANCH  13  15
HETATM   15  C8  UNK     1      24.058 -10.990  35.820  1.00  0.00     0.183 C 
HETATM   16  C15 UNK     1      24.344 -12.462  36.068  1.00  0.00     0.043 C 
BRANCH  15  17
HETATM   17  N1  UNK     1      24.640 -10.184  36.861  1.00  0.00    -0.323 N 
HETATM   18  C19 UNK     1      25.981  -9.856  36.922  1.00  0.00     0.361 C 
HETATM   19  O6  UNK     1      26.836 -10.199  36.113  1.00  0.00    -0.238 OA
HETATM   20  H11 UNK     1      24.037  -9.845  37.605  1.00  0.00     0.165 HD
BRANCH  18  21
HETATM   21  O4  UNK     1      26.220  -9.085  38.024  1.00  0.00    -0.299 OA
BRANCH  21  22
HETATM   22  C20 UNK     1      27.404  -9.403  38.764  1.00  0.00     0.219 C 
BRANCH  22  23
HETATM   23  C21 UNK     1      28.353  -8.243  38.692  1.00  0.00    -0.034 A 
HETATM   24  C22 UNK     1      29.606  -8.402  38.102  1.00  0.00     0.009 A 
HETATM   25  C24 UNK     1      30.488  -7.322  38.035  1.00  0.00     0.001 A 
HETATM   26  C26 UNK     1      30.117  -6.085  38.560  1.00  0.00     0.000 A 
HETATM   27  C25 UNK     1      28.863  -5.926  39.151  1.00  0.00     0.001 A 
HETATM   28  C23 UNK     1      27.982  -7.005  39.217  1.00  0.00     0.009 A 
ENDBRANCH  22  23
ENDBRANCH  21  22
ENDBRANCH  18  21
ENDBRANCH  15  17
ENDBRANCH  13  15
ENDBRANCH  12  13
ENDBRANCH   7  12
BRANCH   5  29
HETATM   29  C5  UNK     1      19.357  -2.929  36.951  1.00  0.00    -0.020 A 
HETATM   30  C13 UNK     1      18.769  -2.435  38.116  1.00  0.00     0.015 A 
HETATM   31  C16 UNK     1      18.196  -1.163  38.123  1.00  0.00     0.037 A 
HETATM   32  C18 UNK     1      18.210  -0.386  36.965  1.00  0.00     0.102 A 
HETATM   33  C17 UNK     1      18.797  -0.880  35.799  1.00  0.00     0.037 A 
HETATM   34  C14 UNK     1      19.371  -2.151  35.793  1.00  0.00     0.015 A 
BRANCH  32  35
HETATM   35  N2  UNK     1      17.625   0.908  36.972  1.00  0.00    -0.116 N 
HETATM   36  O7  UNK     1      16.442   1.042  36.578  1.00  0.00    -0.532 OA
HETATM   37  O8  UNK     1      18.308   1.881  37.372  1.00  0.00    -0.532 OA
ENDBRANCH  32  35
ENDBRANCH   5  29
TORSDOF 9
ENDMDL
MODEL 8
REMARK VINA RESULT:      -9.1     13.694     16.153
REMARK  9 active torsions:
REMARK  status: ('A' for Active; 'I' for Inactive)
REMARK    1  A    between atoms: C12_22  and  O2_2 
REMARK    2  A    between atoms: C6_16  and  O2_2 
REMARK    3  A    between atoms: C19_29  and  O4_4 
REMARK    4  A    between atoms: C20_30  and  O4_4 
REMARK       I    between atoms: C19_29  and  N1_9 
REMARK    5  A    between atoms: C8_18  and  N1_9 
REMARK    6  A    between atoms: C18_28  and  N2_10 
REMARK    7  A    between atoms: C3_13  and  C5_15 
REMARK    8  A    between atoms: C12_22  and  C8_18 
REMARK    9  A    between atoms: C20_30  and  C21_31 
ROOT
HETATM    1  O1  UNK     1      27.626  -8.346  38.710  1.00  0.00    -0.321 OA
HETATM    2  O3  UNK     1      24.865  -5.343  38.744  1.00  0.00    -0.286 OA
HETATM    3  C1  UNK     1      27.134  -5.970  38.701  1.00  0.00     0.049 A 
HETATM    4  C2  UNK     1      28.032  -7.036  38.702  1.00  0.00     0.091 A 
HETATM    5  C3  UNK     1      25.290  -7.685  38.702  1.00  0.00     0.048 A 
HETATM    6  C4  UNK     1      25.687  -6.250  38.714  1.00  0.00     0.197 A 
HETATM    7  C6  UNK     1      29.878  -5.481  38.686  1.00  0.00     0.082 A 
HETATM    8  C7  UNK     1      29.406  -6.794  38.695  1.00  0.00     0.075 A 
HETATM    9  C9  UNK     1      27.604  -4.654  38.693  1.00  0.00     0.021 A 
HETATM   10  C10 UNK     1      26.275  -8.595  38.701  1.00  0.00     0.159 A 
HETATM   11  C11 UNK     1      28.980  -4.414  38.685  1.00  0.00     0.038 A 
ENDROOT
BRANCH   7  12
HETATM   12  O2  UNK     1      31.218  -5.241  38.678  1.00  0.00    -0.277 OA
BRANCH  12  13
HETATM   13  C12 UNK     1      31.922  -5.892  37.651  1.00  0.00     0.286 C 
HETATM   14  O5  UNK     1      32.475  -6.981  37.772  1.00  0.00    -0.263 OA
BRANCH  13  15
HETATM   15  C8  UNK     1      31.924  -5.107  36.346  1.00  0.00     0.183 C 
HETATM   16  C15 UNK     1      32.117  -3.625  36.625  1.00  0.00     0.043 C 
BRANCH  15  17
HETATM   17  N1  UNK     1      30.721  -5.321  35.586  1.00  0.00    -0.323 N 
HETATM   18  C19 UNK     1      30.489  -6.441  34.810  1.00  0.00     0.361 C 
HETATM   19  O6  UNK     1      31.261  -7.383  34.670  1.00  0.00    -0.238 OA
HETATM   20  H11 UNK     1      30.001  -4.604  35.606  1.00  0.00     0.165 HD
BRANCH  18  21
HETATM   21  O4  UNK     1      29.262  -6.347  34.215  1.00  0.00    -0.299 OA
BRANCH  21  22
HETATM   22  C20 UNK     1      29.250  -5.794  32.895  1.00  0.00     0.219 C 
BRANCH  22  23
HETATM   23  C21 UNK     1      28.608  -6.776  31.959  1.00  0.00    -0.034 A 
HETATM   24  C22 UNK     1      27.418  -6.446  31.311  1.00  0.00     0.009 A 
HETATM   25  C24 UNK     1      26.821  -7.359  30.441  1.00  0.00     0.001 A 
HETATM   26  C26 UNK     1      27.414  -8.602  30.220  1.00  0.00     0.000 A 
HETATM   27  C25 UNK     1      28.604  -8.932  30.868  1.00  0.00     0.001 A 
HETATM   28  C23 UNK     1      29.201  -8.019  31.738  1.00  0.00     0.009 A 
ENDBRANCH  22  23
ENDBRANCH  21  22
ENDBRANCH  18  21
ENDBRANCH  15  17
ENDBRANCH  13  15
ENDBRANCH  12  13
ENDBRANCH   7  12
BRANCH   5  29
HETATM   29  C5  UNK     1      23.879  -8.103  38.674  1.00  0.00    -0.020 A 
HETATM   30  C13 UNK     1      23.305  -8.542  37.481  1.00  0.00     0.015 A 
HETATM   31  C16 UNK     1      21.967  -8.937  37.454  1.00  0.00     0.037 A 
HETATM   32  C18 UNK     1      21.204  -8.893  38.620  1.00  0.00     0.102 A 
HETATM   33  C17 UNK     1      21.777  -8.454  39.814  1.00  0.00     0.037 A 
HETATM   34  C14 UNK     1      23.114  -8.059  39.841  1.00  0.00     0.015 A 
BRANCH  32  35
HETATM   35  N2  UNK     1      19.842  -9.295  38.591  1.00  0.00    -0.116 N 
HETATM   36  O7  UNK     1      19.561 -10.502  38.784  1.00  0.00    -0.532 OA
HETATM   37  O8  UNK     1      18.958  -8.432  38.374  1.00  0.00    -0.532 OA
ENDBRANCH  32  35
ENDBRANCH   5  29
TORSDOF 9
ENDMDL
MODEL 9
REMARK VINA RESULT:      -9.1     18.279     21.376
REMARK  9 active torsions:
REMARK  status: ('A' for Active; 'I' for Inactive)
REMARK    1  A    between atoms: C12_22  and  O2_2 
REMARK    2  A    between atoms: C6_16  and  O2_2 
REMARK    3  A    between atoms: C19_29  and  O4_4 
REMARK    4  A    between atoms: C20_30  and  O4_4 
REMARK       I    between atoms: C19_29  and  N1_9 
REMARK    5  A    between atoms: C8_18  and  N1_9 
REMARK    6  A    between atoms: C18_28  and  N2_10 
REMARK    7  A    between atoms: C3_13  and  C5_15 
REMARK    8  A    between atoms: C12_22  and  C8_18 
REMARK    9  A    between atoms: C20_30  and  C21_31 
ROOT
HETATM    1  O1  UNK     1      14.529   9.802  16.739  1.00  0.00    -0.321 OA
HETATM    2  O3  UNK     1      10.814  10.346  18.335  1.00  0.00    -0.286 OA
HETATM    3  C1  UNK     1      12.180  10.316  16.418  1.00  0.00     0.049 A 
HETATM    4  C2  UNK     1      13.472  10.130  15.929  1.00  0.00     0.091 A 
HETATM    5  C3  UNK     1      13.099   9.785  18.701  1.00  0.00     0.048 A 
HETATM    6  C4  UNK     1      11.928  10.162  17.862  1.00  0.00     0.197 A 
HETATM    7  C6  UNK     1      12.697  10.609  13.694  1.00  0.00     0.082 A 
HETATM    8  C7  UNK     1      13.734  10.275  14.567  1.00  0.00     0.075 A 
HETATM    9  C9  UNK     1      11.140  10.651  15.546  1.00  0.00     0.021 A 
HETATM   10  C10 UNK     1      14.278   9.639  18.081  1.00  0.00     0.159 A 
HETATM   11  C11 UNK     1      11.403  10.795  14.182  1.00  0.00     0.038 A 
ENDROOT
BRANCH   7  12
HETATM   12  O2  UNK     1      12.948  10.751  12.364  1.00  0.00    -0.277 OA
BRANCH  12  13
HETATM   13  C12 UNK     1      12.715   9.597  11.599  1.00  0.00     0.286 C 
HETATM   14  O5  UNK     1      11.602   9.160  11.325  1.00  0.00    -0.263 OA
BRANCH  13  15
HETATM   15  C8  UNK     1      14.001   8.933  11.124  1.00  0.00     0.183 C 
HETATM   16  C15 UNK     1      15.128   9.951  11.066  1.00  0.00     0.043 C 
BRANCH  15  17
HETATM   17  N1  UNK     1      13.837   8.294   9.844  1.00  0.00    -0.323 N 
HETATM   18  C19 UNK     1      13.874   6.926   9.655  1.00  0.00     0.361 C 
HETATM   19  O6  UNK     1      14.048   6.090  10.535  1.00  0.00    -0.238 OA
HETATM   20  H11 UNK     1      13.698   8.879   9.025  1.00  0.00     0.165 HD
BRANCH  18  21
HETATM   21  O4  UNK     1      13.688   6.635   8.333  1.00  0.00    -0.299 OA
BRANCH  21  22
HETATM   22  C20 UNK     1      12.970   5.427   8.055  1.00  0.00     0.219 C 
BRANCH  22  23
HETATM   23  C21 UNK     1      11.604   5.776   7.544  1.00  0.00    -0.034 A 
HETATM   24  C22 UNK     1      10.511   5.768   8.411  1.00  0.00     0.009 A 
HETATM   25  C24 UNK     1       9.241   6.093   7.935  1.00  0.00     0.001 A 
HETATM   26  C26 UNK     1       9.062   6.425   6.592  1.00  0.00     0.000 A 
HETATM   27  C25 UNK     1      10.155   6.433   5.725  1.00  0.00     0.001 A 
HETATM   28  C23 UNK     1      11.425   6.108   6.201  1.00  0.00     0.009 A 
ENDBRANCH  22  23
ENDBRANCH  21  22
ENDBRANCH  18  21
ENDBRANCH  15  17
ENDBRANCH  13  15
ENDBRANCH  12  13
ENDBRANCH   7  12
BRANCH   5  29
HETATM   29  C5  UNK     1      12.978   9.561  20.151  1.00  0.00    -0.020 A 
HETATM   30  C13 UNK     1      13.144  10.625  21.038  1.00  0.00     0.015 A 
HETATM   31  C16 UNK     1      13.031  10.412  22.412  1.00  0.00     0.037 A 
HETATM   32  C18 UNK     1      12.753   9.136  22.899  1.00  0.00     0.102 A 
HETATM   33  C17 UNK     1      12.588   8.071  22.013  1.00  0.00     0.037 A 
HETATM   34  C14 UNK     1      12.701   8.283  20.639  1.00  0.00     0.015 A 
BRANCH  32  35
HETATM   35  N2  UNK     1      12.639   8.920  24.299  1.00  0.00    -0.116 N 
HETATM   36  O7  UNK     1      12.913   7.788  24.763  1.00  0.00    -0.532 OA
HETATM   37  O8  UNK     1      12.268   9.868  25.031  1.00  0.00    -0.532 OA
ENDBRANCH  32  35
ENDBRANCH   5  29
TORSDOF 9
ENDMDL
MODEL 10
REMARK VINA RESULT:      -8.9      2.619      3.446
REMARK  9 active torsions:
REMARK  status: ('A' for Active; 'I' for Inactive)
REMARK    1  A    between atoms: C12_22  and  O2_2 
REMARK    2  A    between atoms: C6_16  and  O2_2 
REMARK    3  A    between atoms: C19_29  and  O4_4 
REMARK    4  A    between atoms: C20_30  and  O4_4 
REMARK       I    between atoms: C19_29  and  N1_9 
REMARK    5  A    between atoms: C8_18  and  N1_9 
REMARK    6  A    between atoms: C18_28  and  N2_10 
REMARK    7  A    between atoms: C3_13  and  C5_15 
REMARK    8  A    between atoms: C12_22  and  C8_18 
REMARK    9  A    between atoms: C20_30  and  C21_31 
ROOT
HETATM    1  O1  UNK     1      18.287   3.130  34.306  1.00  0.00    -0.321 OA
HETATM    2  O3  UNK     1      18.562   5.388  30.920  1.00  0.00    -0.286 OA
HETATM    3  C1  UNK     1      18.527   3.245  31.895  1.00  0.00     0.049 A 
HETATM    4  C2  UNK     1      18.439   2.525  33.085  1.00  0.00     0.091 A 
HETATM    5  C3  UNK     1      18.273   5.331  33.282  1.00  0.00     0.048 A 
HETATM    6  C4  UNK     1      18.459   4.717  31.938  1.00  0.00     0.197 A 
HETATM    7  C6  UNK     1      18.660   0.461  31.852  1.00  0.00     0.082 A 
HETATM    8  C7  UNK     1      18.505   1.132  33.067  1.00  0.00     0.075 A 
HETATM    9  C9  UNK     1      18.682   2.576  30.677  1.00  0.00     0.021 A 
HETATM   10  C10 UNK     1      18.203   4.501  34.333  1.00  0.00     0.159 A 
HETATM   11  C11 UNK     1      18.748   1.182  30.661  1.00  0.00     0.038 A 
ENDROOT
BRANCH   7  12
HETATM   12  O2  UNK     1      18.724  -0.898  31.831  1.00  0.00    -0.277 OA
BRANCH  12  13
HETATM   13  C12 UNK     1      19.922  -1.419  31.315  1.00  0.00     0.286 C 
HETATM   14  O5  UNK     1      20.285  -1.299  30.150  1.00  0.00    -0.263 OA
BRANCH  13  15
HETATM   15  C8  UNK     1      20.747  -2.154  32.364  1.00  0.00     0.183 C 
HETATM   16  C15 UNK     1      21.227  -3.488  31.816  1.00  0.00     0.043 C 
BRANCH  15  17
HETATM   17  N1  UNK     1      20.013  -2.349  33.587  1.00  0.00    -0.323 N 
HETATM   18  C19 UNK     1      20.575  -2.254  34.846  1.00  0.00     0.361 C 
HETATM   19  O6  UNK     1      21.749  -1.995  35.085  1.00  0.00    -0.238 OA
HETATM   20  H11 UNK     1      19.027  -2.584  33.527  1.00  0.00     0.165 HD
BRANCH  18  21
HETATM   21  O4  UNK     1      19.624  -2.493  35.797  1.00  0.00    -0.299 OA
BRANCH  21  22
HETATM   22  C20 UNK     1      20.114  -2.862  37.091  1.00  0.00     0.219 C 
BRANCH  22  23
HETATM   23  C21 UNK     1      20.212  -4.358  37.169  1.00  0.00    -0.034 A 
HETATM   24  C22 UNK     1      21.266  -4.953  37.863  1.00  0.00     0.009 A 
HETATM   25  C24 UNK     1      21.357  -6.343  37.934  1.00  0.00     0.001 A 
HETATM   26  C26 UNK     1      20.395  -7.138  37.311  1.00  0.00     0.000 A 
HETATM   27  C25 UNK     1      19.342  -6.543  36.616  1.00  0.00     0.001 A 
HETATM   28  C23 UNK     1      19.251  -5.153  36.545  1.00  0.00     0.009 A 
ENDBRANCH  22  23
ENDBRANCH  21  22
ENDBRANCH  18  21
ENDBRANCH  15  17
ENDBRANCH  13  15
ENDBRANCH  12  13
ENDBRANCH   7  12
BRANCH   5  29
HETATM   29  C5  UNK     1      18.150   6.787  33.464  1.00  0.00    -0.020 A 
HETATM   30  C13 UNK     1      19.226   7.521  33.965  1.00  0.00     0.015 A 
HETATM   31  C16 UNK     1      19.109   8.900  34.138  1.00  0.00     0.037 A 
HETATM   32  C18 UNK     1      17.918   9.545  33.810  1.00  0.00     0.102 A 
HETATM   33  C17 UNK     1      16.841   8.813  33.309  1.00  0.00     0.037 A 
HETATM   34  C14 UNK     1      16.958   7.433  33.136  1.00  0.00     0.015 A 
BRANCH  32  35
HETATM   35  N2  UNK     1      17.800  10.950  33.988  1.00  0.00    -0.116 N 
HETATM   36  O7  UNK     1      18.662  11.701  33.473  1.00  0.00    -0.532 OA
HETATM   37  O8  UNK     1      16.838  11.400  34.654  1.00  0.00    -0.532 OA
ENDBRANCH  32  35
ENDBRANCH   5  29
TORSDOF 9
ENDMDL
