MODEL 1
REMARK VINA RESULT:      -8.6      0.000      0.000
REMARK  3 active torsions:
REMARK  status: ('A' for Active; 'I' for Inactive)
REMARK    1  A    between atoms: C3_8  and  N1_5 
REMARK       I    between atoms: C7_12  and  N1_5 
REMARK    2  A    between atoms: C1_6  and  C3_8 
REMARK    3  A    between atoms: C7_12  and  C8_13 
ROOT
HETATM    1  O3  UNK     1      19.403   6.807  32.019  1.00  0.00    -0.274 OA
HETATM    2  O4  UNK     1      20.138   5.072  30.727  1.00  0.00    -0.259 OA
HETATM    3  C8  UNK     1      18.311   4.625  32.169  1.00  0.00     0.108 A 
HETATM    4  C9  UNK     1      17.458   5.085  33.091  1.00  0.00     0.037 A 
HETATM    5  C10 UNK     1      17.534   6.468  33.537  1.00  0.00    -0.001 A 
HETATM    6  C11 UNK     1      19.354   5.490  31.572  1.00  0.00     0.304 A 
HETATM    7  C12 UNK     1      18.508   7.298  32.990  1.00  0.00     0.089 A 
HETATM    8  C13 UNK     1      16.664   6.990  34.497  1.00  0.00     0.014 A 
HETATM    9  C14 UNK     1      18.634   8.632  33.373  1.00  0.00     0.038 A 
HETATM   10  C15 UNK     1      16.780   8.326  34.891  1.00  0.00     0.001 A 
HETATM   11  C16 UNK     1      17.762   9.145  34.331  1.00  0.00     0.003 A 
ENDROOT
BRANCH   3  12
HETATM   12  C7  UNK     1      18.154   3.217  31.785  1.00  0.00     0.258 C 
HETATM   13  O2  UNK     1      17.859   2.364  32.620  1.00  0.00    -0.267 OA
HETATM   14  N1  UNK     1      18.373   2.999  30.437  1.00  0.00    -0.350 N 
HETATM   15  H12 UNK     1      18.589   3.780  29.824  1.00  0.00     0.163 HD
BRANCH  14  16
HETATM   16  C3  UNK     1      18.280   1.693  29.824  1.00  0.00     0.109 C 
HETATM   17  C6  UNK     1      17.754   1.819  28.400  1.00  0.00     0.035 C 
BRANCH  16  18
HETATM   18  C1  UNK     1      19.623   0.991  29.855  1.00  0.00     0.143 C 
HETATM   19  O1  UNK     1      19.764   0.260  31.085  1.00  0.00    -0.384 OA
HETATM   20  C5  UNK     1      20.365  -1.009  30.792  1.00  0.00     0.168 C 
HETATM   21  C4  UNK     1      20.813  -0.964  29.346  1.00  0.00     0.029 C 
HETATM   22  C2  UNK     1      19.804  -0.022  28.738  1.00  0.00     0.036 C 
ENDBRANCH  16  18
ENDBRANCH  14  16
ENDBRANCH   3  12
TORSDOF 3
ENDMDL
MODEL 2
REMARK VINA RESULT:      -8.6      1.490      7.442
REMARK  3 active torsions:
REMARK  status: ('A' for Active; 'I' for Inactive)
REMARK    1  A    between atoms: C3_8  and  N1_5 
REMARK       I    between atoms: C7_12  and  N1_5 
REMARK    2  A    between atoms: C1_6  and  C3_8 
REMARK    3  A    between atoms: C7_12  and  C8_13 
ROOT
HETATM    1  O3  UNK     1      18.696   0.862  32.596  1.00  0.00    -0.274 OA
HETATM    2  O4  UNK     1      17.943   2.862  33.405  1.00  0.00    -0.259 OA
HETATM    3  C8  UNK     1      18.729   2.848  31.170  1.00  0.00     0.108 A 
HETATM    4  C9  UNK     1      19.250   2.145  30.157  1.00  0.00     0.037 A 
HETATM    5  C10 UNK     1      19.527   0.726  30.315  1.00  0.00    -0.001 A 
HETATM    6  C11 UNK     1      18.419   2.220  32.475  1.00  0.00     0.304 A 
HETATM    7  C12 UNK     1      19.244   0.117  31.534  1.00  0.00     0.089 A 
HETATM    8  C13 UNK     1      20.069  -0.047  29.286  1.00  0.00     0.014 A 
HETATM    9  C14 UNK     1      19.485  -1.239  31.750  1.00  0.00     0.038 A 
HETATM   10  C15 UNK     1      20.317  -1.407  29.489  1.00  0.00     0.001 A 
HETATM   11  C16 UNK     1      20.026  -2.002  30.718  1.00  0.00     0.003 A 
ENDROOT
BRANCH   3  12
HETATM   12  C7  UNK     1      18.485   4.273  30.913  1.00  0.00     0.258 C 
HETATM   13  O2  UNK     1      18.937   4.819  29.909  1.00  0.00    -0.267 OA
HETATM   14  N1  UNK     1      17.725   4.875  31.899  1.00  0.00    -0.350 N 
HETATM   15  H12 UNK     1      17.378   4.325  32.680  1.00  0.00     0.163 HD
BRANCH  14  16
HETATM   16  C3  UNK     1      17.357   6.272  31.868  1.00  0.00     0.109 C 
HETATM   17  C6  UNK     1      15.996   6.471  32.521  1.00  0.00     0.035 C 
BRANCH  16  18
HETATM   18  C1  UNK     1      18.419   7.119  32.540  1.00  0.00     0.143 C 
HETATM   19  O1  UNK     1      17.938   8.464  32.708  1.00  0.00    -0.384 OA
HETATM   20  C5  UNK     1      18.336   8.930  34.005  1.00  0.00     0.168 C 
HETATM   21  C4  UNK     1      19.292   7.901  34.571  1.00  0.00     0.029 C 
HETATM   22  C2  UNK     1      18.797   6.630  33.928  1.00  0.00     0.036 C 
ENDBRANCH  16  18
ENDBRANCH  14  16
ENDBRANCH   3  12
TORSDOF 3
ENDMDL
MODEL 3
REMARK VINA RESULT:      -8.3      1.818      7.430
REMARK  3 active torsions:
REMARK  status: ('A' for Active; 'I' for Inactive)
REMARK    1  A    between atoms: C3_8  and  N1_5 
REMARK       I    between atoms: C7_12  and  N1_5 
REMARK    2  A    between atoms: C1_6  and  C3_8 
REMARK    3  A    between atoms: C7_12  and  C8_13 
ROOT
HETATM    1  O3  UNK     1      19.086   1.578  28.837  1.00  0.00    -0.274 OA
HETATM    2  O4  UNK     1      18.319   3.712  29.122  1.00  0.00    -0.259 OA
HETATM    3  C8  UNK     1      18.706   2.448  31.090  1.00  0.00     0.108 A 
HETATM    4  C9  UNK     1      19.100   1.290  31.633  1.00  0.00     0.037 A 
HETATM    5  C10 UNK     1      19.520   0.186  30.783  1.00  0.00    -0.001 A 
HETATM    6  C11 UNK     1      18.681   2.652  29.623  1.00  0.00     0.304 A 
HETATM    7  C12 UNK     1      19.502   0.357  29.402  1.00  0.00     0.089 A 
HETATM    8  C13 UNK     1      19.939  -1.039  31.306  1.00  0.00     0.014 A 
HETATM    9  C14 UNK     1      19.893  -0.660  28.533  1.00  0.00     0.038 A 
HETATM   10  C15 UNK     1      20.332  -2.068  30.446  1.00  0.00     0.001 A 
HETATM   11  C16 UNK     1      20.309  -1.879  29.062  1.00  0.00     0.003 A 
ENDROOT
BRANCH   3  12
HETATM   12  C7  UNK     1      18.301   3.501  32.029  1.00  0.00     0.258 C 
HETATM   13  O2  UNK     1      17.616   3.237  33.016  1.00  0.00    -0.267 OA
HETATM   14  N1  UNK     1      18.769   4.752  31.670  1.00  0.00    -0.350 N 
HETATM   15  H12 UNK     1      19.351   4.859  30.845  1.00  0.00     0.163 HD
BRANCH  14  16
HETATM   16  C3  UNK     1      18.497   5.946  32.439  1.00  0.00     0.109 C 
HETATM   17  C6  UNK     1      19.778   6.745  32.637  1.00  0.00     0.035 C 
BRANCH  16  18
HETATM   18  C1  UNK     1      17.426   6.781  31.766  1.00  0.00     0.143 C 
HETATM   19  O1  UNK     1      16.148   6.132  31.893  1.00  0.00    -0.384 OA
HETATM   20  C5  UNK     1      15.161   7.128  32.192  1.00  0.00     0.168 C 
HETATM   21  C4  UNK     1      15.828   8.478  32.025  1.00  0.00     0.029 C 
HETATM   22  C2  UNK     1      17.260   8.162  32.378  1.00  0.00     0.036 C 
ENDBRANCH  16  18
ENDBRANCH  14  16
ENDBRANCH   3  12
TORSDOF 3
ENDMDL
MODEL 4
REMARK VINA RESULT:      -8.2      7.158      9.078
REMARK  3 active torsions:
REMARK  status: ('A' for Active; 'I' for Inactive)
REMARK    1  A    between atoms: C3_8  and  N1_5 
REMARK       I    between atoms: C7_12  and  N1_5 
REMARK    2  A    between atoms: C1_6  and  C3_8 
REMARK    3  A    between atoms: C7_12  and  C8_13 
ROOT
HETATM    1  O3  UNK     1      19.576  -0.971  34.732  1.00  0.00    -0.274 OA
HETATM    2  O4  UNK     1      20.610  -2.973  34.353  1.00  0.00    -0.259 OA
HETATM    3  C8  UNK     1      19.481  -2.735  36.423  1.00  0.00     0.108 A 
HETATM    4  C9  UNK     1      18.751  -1.958  37.232  1.00  0.00     0.037 A 
HETATM    5  C10 UNK     1      18.385  -0.611  36.822  1.00  0.00    -0.001 A 
HETATM    6  C11 UNK     1      19.940  -2.264  35.096  1.00  0.00     0.304 A 
HETATM    7  C12 UNK     1      18.808  -0.149  35.579  1.00  0.00     0.089 A 
HETATM    8  C13 UNK     1      17.625   0.234  37.633  1.00  0.00     0.014 A 
HETATM    9  C14 UNK     1      18.490   1.131  35.126  1.00  0.00     0.038 A 
HETATM   10  C15 UNK     1      17.300   1.520  37.192  1.00  0.00     0.001 A 
HETATM   11  C16 UNK     1      17.732   1.968  35.941  1.00  0.00     0.003 A 
ENDROOT
BRANCH   3  12
HETATM   12  C7  UNK     1      19.800  -4.077  36.926  1.00  0.00     0.258 C 
HETATM   13  O2  UNK     1      20.616  -4.234  37.831  1.00  0.00    -0.267 OA
HETATM   14  N1  UNK     1      19.096  -5.076  36.278  1.00  0.00    -0.350 N 
HETATM   15  H12 UNK     1      18.422  -4.837  35.556  1.00  0.00     0.163 HD
BRANCH  14  16
HETATM   16  C3  UNK     1      19.244  -6.478  36.597  1.00  0.00     0.109 C 
HETATM   17  C6  UNK     1      18.035  -7.259  36.098  1.00  0.00     0.035 C 
BRANCH  16  18
HETATM   18  C1  UNK     1      20.531  -7.026  36.014  1.00  0.00     0.143 C 
HETATM   19  O1  UNK     1      21.488  -7.247  37.065  1.00  0.00    -0.384 OA
HETATM   20  C5  UNK     1      22.157  -8.491  36.814  1.00  0.00     0.168 C 
HETATM   21  C4  UNK     1      21.745  -8.944  35.429  1.00  0.00     0.029 C 
HETATM   22  C2  UNK     1      20.359  -8.361  35.311  1.00  0.00     0.036 C 
ENDBRANCH  16  18
ENDBRANCH  14  16
ENDBRANCH   3  12
TORSDOF 3
ENDMDL
MODEL 5
REMARK VINA RESULT:      -8.2     12.995     15.842
REMARK  3 active torsions:
REMARK  status: ('A' for Active; 'I' for Inactive)
REMARK    1  A    between atoms: C3_8  and  N1_5 
REMARK       I    between atoms: C7_12  and  N1_5 
REMARK    2  A    between atoms: C1_6  and  C3_8 
REMARK    3  A    between atoms: C7_12  and  C8_13 
ROOT
HETATM    1  O3  UNK     1      19.415   1.915  17.332  1.00  0.00    -0.274 OA
HETATM    2  O4  UNK     1      19.200   1.228  15.163  1.00  0.00    -0.259 OA
HETATM    3  C8  UNK     1      19.005  -0.444  16.832  1.00  0.00     0.108 A 
HETATM    4  C9  UNK     1      19.017  -0.750  18.134  1.00  0.00     0.037 A 
HETATM    5  C10 UNK     1      19.233   0.288  19.131  1.00  0.00    -0.001 A 
HETATM    6  C11 UNK     1      19.209   0.944  16.357  1.00  0.00     0.304 A 
HETATM    7  C12 UNK     1      19.428   1.598  18.705  1.00  0.00     0.089 A 
HETATM    8  C13 UNK     1      19.253   0.014  20.500  1.00  0.00     0.014 A 
HETATM    9  C14 UNK     1      19.639   2.639  19.608  1.00  0.00     0.038 A 
HETATM   10  C15 UNK     1      19.465   1.047  21.417  1.00  0.00     0.001 A 
HETATM   11  C16 UNK     1      19.658   2.357  20.972  1.00  0.00     0.003 A 
ENDROOT
BRANCH   3  12
HETATM   12  C7  UNK     1      18.779  -1.559  15.904  1.00  0.00     0.258 C 
HETATM   13  O2  UNK     1      17.765  -2.249  15.982  1.00  0.00    -0.267 OA
HETATM   14  N1  UNK     1      19.805  -1.714  14.990  1.00  0.00    -0.350 N 
HETATM   15  H12 UNK     1      20.591  -1.072  14.995  1.00  0.00     0.163 HD
BRANCH  14  16
HETATM   16  C3  UNK     1      19.809  -2.747  13.978  1.00  0.00     0.109 C 
HETATM   17  C6  UNK     1      20.021  -2.131  12.601  1.00  0.00     0.035 C 
BRANCH  16  18
HETATM   18  C1  UNK     1      20.867  -3.789  14.282  1.00  0.00     0.143 C 
HETATM   19  O1  UNK     1      21.952  -3.186  15.008  1.00  0.00    -0.384 OA
HETATM   20  C5  UNK     1      22.362  -4.089  16.045  1.00  0.00     0.168 C 
HETATM   21  C4  UNK     1      21.638  -5.397  15.804  1.00  0.00     0.029 C 
HETATM   22  C2  UNK     1      20.363  -4.930  15.148  1.00  0.00     0.036 C 
ENDBRANCH  16  18
ENDBRANCH  14  16
ENDBRANCH   3  12
TORSDOF 3
ENDMDL
MODEL 6
REMARK VINA RESULT:      -8.1     22.166     24.079
REMARK  3 active torsions:
REMARK  status: ('A' for Active; 'I' for Inactive)
REMARK    1  A    between atoms: C3_8  and  N1_5 
REMARK       I    between atoms: C7_12  and  N1_5 
REMARK    2  A    between atoms: C1_6  and  C3_8 
REMARK    3  A    between atoms: C7_12  and  C8_13 
ROOT
HETATM    1  O3  UNK     1      14.242   6.315  10.367  1.00  0.00    -0.274 OA
HETATM    2  O4  UNK     1      12.124   5.464  10.273  1.00  0.00    -0.259 OA
HETATM    3  C8  UNK     1      12.456   7.600   9.301  1.00  0.00     0.108 A 
HETATM    4  C9  UNK     1      13.304   8.595   9.016  1.00  0.00     0.037 A 
HETATM    5  C10 UNK     1      14.704   8.499   9.402  1.00  0.00    -0.001 A 
HETATM    6  C11 UNK     1      12.899   6.378  10.010  1.00  0.00     0.304 A 
HETATM    7  C12 UNK     1      15.140   7.359  10.070  1.00  0.00     0.089 A 
HETATM    8  C13 UNK     1      15.624   9.512   9.125  1.00  0.00     0.014 A 
HETATM    9  C14 UNK     1      16.468   7.204  10.466  1.00  0.00     0.038 A 
HETATM   10  C15 UNK     1      16.958   9.371   9.517  1.00  0.00     0.001 A 
HETATM   11  C16 UNK     1      17.379   8.220  10.186  1.00  0.00     0.003 A 
ENDROOT
BRANCH   3  12
HETATM   12  C7  UNK     1      11.065   7.790   8.872  1.00  0.00     0.258 C 
HETATM   13  O2  UNK     1      10.423   8.775   9.231  1.00  0.00    -0.267 OA
HETATM   14  N1  UNK     1      10.608   6.769   8.058  1.00  0.00    -0.350 N 
HETATM   15  H12 UNK     1      11.230   6.009   7.799  1.00  0.00     0.163 HD
BRANCH  14  16
HETATM   16  C3  UNK     1       9.270   6.734   7.514  1.00  0.00     0.109 C 
HETATM   17  C6  UNK     1       9.310   6.317   6.050  1.00  0.00     0.035 C 
BRANCH  16  18
HETATM   18  C1  UNK     1       8.387   5.807   8.326  1.00  0.00     0.143 C 
HETATM   19  O1  UNK     1       9.186   4.774   8.927  1.00  0.00    -0.384 OA
HETATM   20  C5  UNK     1       8.724   4.566  10.270  1.00  0.00     0.168 C 
HETATM   21  C4  UNK     1       7.442   5.357  10.424  1.00  0.00     0.029 C 
HETATM   22  C2  UNK     1       7.666   6.502   9.468  1.00  0.00     0.036 C 
ENDBRANCH  16  18
ENDBRANCH  14  16
ENDBRANCH   3  12
TORSDOF 3
ENDMDL
MODEL 7
REMARK VINA RESULT:      -8.1      8.533     12.770
REMARK  3 active torsions:
REMARK  status: ('A' for Active; 'I' for Inactive)
REMARK    1  A    between atoms: C3_8  and  N1_5 
REMARK       I    between atoms: C7_12  and  N1_5 
REMARK    2  A    between atoms: C1_6  and  C3_8 
REMARK    3  A    between atoms: C7_12  and  C8_13 
ROOT
HETATM    1  O3  UNK     1      19.971  -8.111  35.703  1.00  0.00    -0.274 OA
HETATM    2  O4  UNK     1      20.284  -6.207  34.479  1.00  0.00    -0.259 OA
HETATM    3  C8  UNK     1      20.242  -5.961  36.836  1.00  0.00     0.108 A 
HETATM    4  C9  UNK     1      20.119  -6.546  38.033  1.00  0.00     0.037 A 
HETATM    5  C10 UNK     1      19.910  -7.983  38.130  1.00  0.00    -0.001 A 
HETATM    6  C11 UNK     1      20.172  -6.740  35.578  1.00  0.00     0.304 A 
HETATM    7  C12 UNK     1      19.841  -8.733  36.961  1.00  0.00     0.089 A 
HETATM    8  C13 UNK     1      19.777  -8.635  39.358  1.00  0.00     0.014 A 
HETATM    9  C14 UNK     1      19.644 -10.112  36.984  1.00  0.00     0.038 A 
HETATM   10  C15 UNK     1      19.578 -10.018  39.397  1.00  0.00     0.001 A 
HETATM   11  C16 UNK     1      19.512 -10.755  38.213  1.00  0.00     0.003 A 
ENDROOT
BRANCH   3  12
HETATM   12  C7  UNK     1      20.449  -4.508  36.841  1.00  0.00     0.258 C 
HETATM   13  O2  UNK     1      21.489  -4.021  37.279  1.00  0.00    -0.267 OA
HETATM   14  N1  UNK     1      19.375  -3.809  36.319  1.00  0.00    -0.350 N 
HETATM   15  H12 UNK     1      18.570  -4.312  35.959  1.00  0.00     0.163 HD
BRANCH  14  16
HETATM   16  C3  UNK     1      19.346  -2.368  36.222  1.00  0.00     0.109 C 
HETATM   17  C6  UNK     1      19.821  -1.924  34.845  1.00  0.00     0.035 C 
BRANCH  16  18
HETATM   18  C1  UNK     1      17.956  -1.841  36.520  1.00  0.00     0.143 C 
HETATM   19  O1  UNK     1      17.987  -1.014  37.696  1.00  0.00    -0.384 OA
HETATM   20  C5  UNK     1      17.157   0.133  37.467  1.00  0.00     0.168 C 
HETATM   21  C4  UNK     1      16.410  -0.113  36.172  1.00  0.00     0.029 C 
HETATM   22  C2  UNK     1      17.384  -0.976  35.410  1.00  0.00     0.036 C 
ENDBRANCH  16  18
ENDBRANCH  14  16
ENDBRANCH   3  12
TORSDOF 3
ENDMDL
MODEL 8
REMARK VINA RESULT:      -8.0      7.091      9.039
REMARK  3 active torsions:
REMARK  status: ('A' for Active; 'I' for Inactive)
REMARK    1  A    between atoms: C3_8  and  N1_5 
REMARK       I    between atoms: C7_12  and  N1_5 
REMARK    2  A    between atoms: C1_6  and  C3_8 
REMARK    3  A    between atoms: C7_12  and  C8_13 
ROOT
HETATM    1  O3  UNK     1      19.360  -0.745  34.726  1.00  0.00    -0.274 OA
HETATM    2  O4  UNK     1      20.514  -2.612  34.093  1.00  0.00    -0.259 OA
HETATM    3  C8  UNK     1      19.644  -2.597  36.298  1.00  0.00     0.108 A 
HETATM    4  C9  UNK     1      18.956  -1.940  37.239  1.00  0.00     0.037 A 
HETATM    5  C10 UNK     1      18.420  -0.615  36.965  1.00  0.00    -0.001 A 
HETATM    6  C11 UNK     1      19.884  -2.013  34.958  1.00  0.00     0.304 A 
HETATM    7  C12 UNK     1      18.635  -0.048  35.713  1.00  0.00     0.089 A 
HETATM    8  C13 UNK     1      17.696   0.107  37.917  1.00  0.00     0.014 A 
HETATM    9  C14 UNK     1      18.146   1.216  35.387  1.00  0.00     0.038 A 
HETATM   10  C15 UNK     1      17.201   1.376  37.604  1.00  0.00     0.001 A 
HETATM   11  C16 UNK     1      17.426   1.930  36.342  1.00  0.00     0.003 A 
ENDROOT
BRANCH   3  12
HETATM   12  C7  UNK     1      20.145  -3.926  36.669  1.00  0.00     0.258 C 
HETATM   13  O2  UNK     1      21.347  -4.121  36.841  1.00  0.00    -0.267 OA
HETATM   14  N1  UNK     1      19.139  -4.867  36.789  1.00  0.00    -0.350 N 
HETATM   15  H12 UNK     1      18.171  -4.595  36.650  1.00  0.00     0.163 HD
BRANCH  14  16
HETATM   16  C3  UNK     1      19.388  -6.246  37.143  1.00  0.00     0.109 C 
HETATM   17  C6  UNK     1      19.664  -6.363  38.636  1.00  0.00     0.035 C 
BRANCH  16  18
HETATM   18  C1  UNK     1      18.223  -7.122  36.728  1.00  0.00     0.143 C 
HETATM   19  O1  UNK     1      16.994  -6.382  36.831  1.00  0.00    -0.384 OA
HETATM   20  C5  UNK     1      16.182  -6.690  35.689  1.00  0.00     0.168 C 
HETATM   21  C4  UNK     1      16.853  -7.839  34.966  1.00  0.00     0.029 C 
HETATM   22  C2  UNK     1      18.307  -7.603  35.290  1.00  0.00     0.036 C 
ENDBRANCH  16  18
ENDBRANCH  14  16
ENDBRANCH   3  12
TORSDOF 3
ENDMDL
MODEL 9
REMARK VINA RESULT:      -8.0      3.731      5.182
REMARK  3 active torsions:
REMARK  status: ('A' for Active; 'I' for Inactive)
REMARK    1  A    between atoms: C3_8  and  N1_5 
REMARK       I    between atoms: C7_12  and  N1_5 
REMARK    2  A    between atoms: C1_6  and  C3_8 
REMARK    3  A    between atoms: C7_12  and  C8_13 
ROOT
HETATM    1  O3  UNK     1      18.923   2.595  30.683  1.00  0.00    -0.274 OA
HETATM    2  O4  UNK     1      18.741   0.469  31.501  1.00  0.00    -0.259 OA
HETATM    3  C8  UNK     1      18.170   2.231  32.981  1.00  0.00     0.108 A 
HETATM    4  C9  UNK     1      18.048   3.549  33.178  1.00  0.00     0.037 A 
HETATM    5  C10 UNK     1      18.364   4.483  32.109  1.00  0.00    -0.001 A 
HETATM    6  C11 UNK     1      18.627   1.677  31.685  1.00  0.00     0.304 A 
HETATM    7  C12 UNK     1      18.796   3.983  30.884  1.00  0.00     0.089 A 
HETATM    8  C13 UNK     1      18.250   5.866  32.270  1.00  0.00     0.014 A 
HETATM    9  C14 UNK     1      19.114   4.824  29.820  1.00  0.00     0.038 A 
HETATM   10  C15 UNK     1      18.567   6.721  31.212  1.00  0.00     0.001 A 
HETATM   11  C16 UNK     1      18.998   6.202  29.989  1.00  0.00     0.003 A 
ENDROOT
BRANCH   3  12
HETATM   12  C7  UNK     1      17.828   1.369  34.119  1.00  0.00     0.258 C 
HETATM   13  O2  UNK     1      16.754   0.772  34.157  1.00  0.00    -0.267 OA
HETATM   14  N1  UNK     1      18.821   1.328  35.081  1.00  0.00    -0.350 N 
HETATM   15  H12 UNK     1      19.686   1.841  34.940  1.00  0.00     0.163 HD
BRANCH  14  16
HETATM   16  C3  UNK     1      18.711   0.550  36.294  1.00  0.00     0.109 C 
HETATM   17  C6  UNK     1      17.435   0.918  37.039  1.00  0.00     0.035 C 
BRANCH  16  18
HETATM   18  C1  UNK     1      18.758  -0.933  35.983  1.00  0.00     0.143 C 
HETATM   19  O1  UNK     1      20.039  -1.275  35.426  1.00  0.00    -0.384 OA
HETATM   20  C5  UNK     1      20.464  -2.521  35.997  1.00  0.00     0.168 C 
HETATM   21  C4  UNK     1      19.289  -3.075  36.775  1.00  0.00     0.029 C 
HETATM   22  C2  UNK     1      18.580  -1.816  37.206  1.00  0.00     0.036 C 
ENDBRANCH  16  18
ENDBRANCH  14  16
ENDBRANCH   3  12
TORSDOF 3
ENDMDL
MODEL 10
REMARK VINA RESULT:      -8.0      7.770      9.901
REMARK  3 active torsions:
REMARK  status: ('A' for Active; 'I' for Inactive)
REMARK    1  A    between atoms: C3_8  and  N1_5 
REMARK       I    between atoms: C7_12  and  N1_5 
REMARK    2  A    between atoms: C1_6  and  C3_8 
REMARK    3  A    between atoms: C7_12  and  C8_13 
ROOT
HETATM    1  O3  UNK     1      19.670  -1.027  34.683  1.00  0.00    -0.274 OA
HETATM    2  O4  UNK     1      20.801  -2.806  33.801  1.00  0.00    -0.259 OA
HETATM    3  C8  UNK     1      19.792  -3.133  35.921  1.00  0.00     0.108 A 
HETATM    4  C9  UNK     1      19.068  -2.618  36.921  1.00  0.00     0.037 A 
HETATM    5  C10 UNK     1      18.593  -1.245  36.853  1.00  0.00    -0.001 A 
HETATM    6  C11 UNK     1      20.136  -2.338  34.720  1.00  0.00     0.304 A 
HETATM    7  C12 UNK     1      18.906  -0.480  35.733  1.00  0.00     0.089 A 
HETATM    8  C13 UNK     1      17.834  -0.667  37.873  1.00  0.00     0.014 A 
HETATM    9  C14 UNK     1      18.482   0.841  35.605  1.00  0.00     0.038 A 
HETATM   10  C15 UNK     1      17.403   0.657  37.758  1.00  0.00     0.001 A 
HETATM   11  C16 UNK     1      17.725   1.410  36.627  1.00  0.00     0.003 A 
ENDROOT
BRANCH   3  12
HETATM   12  C7  UNK     1      20.225  -4.526  36.082  1.00  0.00     0.258 C 
HETATM   13  O2  UNK     1      20.078  -5.342  35.174  1.00  0.00    -0.267 OA
HETATM   14  N1  UNK     1      20.785  -4.776  37.322  1.00  0.00    -0.350 N 
HETATM   15  H12 UNK     1      20.883  -4.022  37.996  1.00  0.00     0.163 HD
BRANCH  14  16
HETATM   16  C3  UNK     1      21.282  -6.075  37.715  1.00  0.00     0.109 C 
HETATM   17  C6  UNK     1      22.469  -5.919  38.656  1.00  0.00     0.035 C 
BRANCH  16  18
HETATM   18  C1  UNK     1      20.180  -6.898  38.352  1.00  0.00     0.143 C 
HETATM   19  O1  UNK     1      19.571  -7.747  37.364  1.00  0.00    -0.384 OA
HETATM   20  C5  UNK     1      19.339  -9.035  37.952  1.00  0.00     0.168 C 
HETATM   21  C4  UNK     1      19.620  -8.901  39.435  1.00  0.00     0.029 C 
HETATM   22  C2  UNK     1      20.671  -7.819  39.456  1.00  0.00     0.036 C 
ENDBRANCH  16  18
ENDBRANCH  14  16
ENDBRANCH   3  12
TORSDOF 3
ENDMDL
