MODEL 1
REMARK VINA RESULT:      -8.8      0.000      0.000
REMARK  4 active torsions:
REMARK  status: ('A' for Active; 'I' for Inactive)
REMARK    1  A    between atoms: C10_15  and  O2_2 
REMARK    2  A    between atoms: C11_16  and  O2_2 
REMARK    3  A    between atoms: C14_19  and  O3_3 
REMARK    4  A    between atoms: C10_15  and  C4_9 
ROOT
HETATM    1  O1  UNK     1      19.023   1.271  28.614  1.00  0.00    -0.274 OA
HETATM    2  O4  UNK     1      18.172   3.392  28.603  1.00  0.00    -0.259 OA
HETATM    3  C1  UNK     1      19.639   0.237  30.726  1.00  0.00    -0.001 A 
HETATM    4  C2  UNK     1      19.533   0.178  29.340  1.00  0.00     0.089 A 
HETATM    5  C3  UNK     1      19.219   1.448  31.412  1.00  0.00     0.038 A 
HETATM    6  C4  UNK     1      18.736   2.485  30.718  1.00  0.00     0.116 A 
HETATM    7  C5  UNK     1      20.149  -0.869  31.411  1.00  0.00     0.014 A 
HETATM    8  C6  UNK     1      19.919  -0.953  28.622  1.00  0.00     0.038 A 
HETATM    9  C7  UNK     1      18.613   2.443  29.243  1.00  0.00     0.304 A 
HETATM   10  C8  UNK     1      20.540  -2.010  30.704  1.00  0.00     0.001 A 
HETATM   11  C9  UNK     1      20.426  -2.051  29.313  1.00  0.00     0.003 A 
ENDROOT
BRANCH   6  12
HETATM   12  C10 UNK     1      18.338   3.661  31.500  1.00  0.00     0.304 C 
HETATM   13  O5  UNK     1      17.572   3.615  32.448  1.00  0.00    -0.259 OA
BRANCH  12  14
HETATM   14  O2  UNK     1      18.979   4.764  30.966  1.00  0.00    -0.275 OA
BRANCH  14  15
HETATM   15  C11 UNK     1      18.847   5.897  31.770  1.00  0.00     0.079 A 
HETATM   16  C13 UNK     1      19.844   6.185  32.676  1.00  0.00     0.040 A 
HETATM   17  C16 UNK     1      19.713   7.318  33.481  1.00  0.00     0.039 A 
HETATM   18  C14 UNK     1      18.588   8.133  33.358  1.00  0.00     0.068 A 
HETATM   19  C15 UNK     1      17.594   7.816  32.433  1.00  0.00     0.039 A 
HETATM   20  C12 UNK     1      17.726   6.684  31.628  1.00  0.00     0.040 A 
BRANCH  18  21
HETATM   21  O3  UNK     1      18.460   9.238  34.143  1.00  0.00    -0.356 OA
HETATM   22  C17 UNK     1      17.257   9.993  34.009  1.00  0.00     0.210 C 
ENDBRANCH  18  21
ENDBRANCH  14  15
ENDBRANCH  12  14
ENDBRANCH   6  12
TORSDOF 4
ENDMDL
MODEL 2
REMARK VINA RESULT:      -8.8      1.254      2.358
REMARK  4 active torsions:
REMARK  status: ('A' for Active; 'I' for Inactive)
REMARK    1  A    between atoms: C10_15  and  O2_2 
REMARK    2  A    between atoms: C11_16  and  O2_2 
REMARK    3  A    between atoms: C14_19  and  O3_3 
REMARK    4  A    between atoms: C10_15  and  C4_9 
ROOT
HETATM    1  O1  UNK     1      18.753   0.494  32.624  1.00  0.00    -0.274 OA
HETATM    2  O4  UNK     1      17.892   2.398  33.549  1.00  0.00    -0.259 OA
HETATM    3  C1  UNK     1      19.566   0.534  30.334  1.00  0.00    -0.001 A 
HETATM    4  C2  UNK     1      19.331  -0.158  31.517  1.00  0.00     0.089 A 
HETATM    5  C3  UNK     1      19.206   1.940  30.257  1.00  0.00     0.038 A 
HETATM    6  C4  UNK     1      18.656   2.555  31.312  1.00  0.00     0.116 A 
HETATM    7  C5  UNK     1      20.142  -0.147  29.258  1.00  0.00     0.014 A 
HETATM    8  C6  UNK     1      19.652  -1.507  31.656  1.00  0.00     0.038 A 
HETATM    9  C7  UNK     1      18.396   1.839  32.581  1.00  0.00     0.304 A 
HETATM   10  C8  UNK     1      20.471  -1.501  29.382  1.00  0.00     0.001 A 
HETATM   11  C9  UNK     1      20.227  -2.178  30.578  1.00  0.00     0.003 A 
ENDROOT
BRANCH   6  12
HETATM   12  C10 UNK     1      18.326   3.974  31.136  1.00  0.00     0.304 C 
HETATM   13  O5  UNK     1      18.738   4.654  30.210  1.00  0.00    -0.259 OA
BRANCH  12  14
HETATM   14  O2  UNK     1      17.502   4.352  32.180  1.00  0.00    -0.275 OA
BRANCH  14  15
HETATM   15  C11 UNK     1      17.631   5.706  32.496  1.00  0.00     0.079 A 
HETATM   16  C13 UNK     1      16.623   6.570  32.127  1.00  0.00     0.040 A 
HETATM   17  C16 UNK     1      16.751   7.923  32.443  1.00  0.00     0.039 A 
HETATM   18  C14 UNK     1      17.883   8.377  33.118  1.00  0.00     0.068 A 
HETATM   19  C15 UNK     1      18.888   7.479  33.478  1.00  0.00     0.039 A 
HETATM   20  C12 UNK     1      18.760   6.126  33.163  1.00  0.00     0.040 A 
BRANCH  18  21
HETATM   21  O3  UNK     1      18.008   9.697  33.426  1.00  0.00    -0.356 OA
HETATM   22  C17 UNK     1      16.912  10.313  34.099  1.00  0.00     0.210 C 
ENDBRANCH  18  21
ENDBRANCH  14  15
ENDBRANCH  12  14
ENDBRANCH   6  12
TORSDOF 4
ENDMDL
MODEL 3
REMARK VINA RESULT:      -8.6      7.610     12.076
REMARK  4 active torsions:
REMARK  status: ('A' for Active; 'I' for Inactive)
REMARK    1  A    between atoms: C10_15  and  O2_2 
REMARK    2  A    between atoms: C11_16  and  O2_2 
REMARK    3  A    between atoms: C14_19  and  O3_3 
REMARK    4  A    between atoms: C10_15  and  C4_9 
ROOT
HETATM    1  O1  UNK     1      19.579  -1.085  34.731  1.00  0.00    -0.274 OA
HETATM    2  O4  UNK     1      20.709  -2.992  34.176  1.00  0.00    -0.259 OA
HETATM    3  C1  UNK     1      18.515  -0.912  36.909  1.00  0.00    -0.001 A 
HETATM    4  C2  UNK     1      18.819  -0.361  35.669  1.00  0.00     0.089 A 
HETATM    5  C3  UNK     1      18.993  -2.249  37.221  1.00  0.00     0.038 A 
HETATM    6  C4  UNK     1      19.715  -2.934  36.326  1.00  0.00     0.116 A 
HETATM    7  C5  UNK     1      17.760  -0.162  37.815  1.00  0.00     0.014 A 
HETATM    8  C6  UNK     1      18.391   0.916  35.308  1.00  0.00     0.038 A 
HETATM    9  C7  UNK     1      20.050  -2.367  35.000  1.00  0.00     0.304 A 
HETATM   10  C8  UNK     1      17.323   1.121  37.467  1.00  0.00     0.001 A 
HETATM   11  C9  UNK     1      17.638   1.657  36.217  1.00  0.00     0.003 A 
ENDROOT
BRANCH   6  12
HETATM   12  C10 UNK     1      20.150  -4.275  36.732  1.00  0.00     0.304 C 
HETATM   13  O5  UNK     1      21.236  -4.508  37.240  1.00  0.00    -0.259 OA
BRANCH  12  14
HETATM   14  O2  UNK     1      19.132  -5.162  36.436  1.00  0.00    -0.275 OA
BRANCH  14  15
HETATM   15  C11 UNK     1      19.581  -6.482  36.361  1.00  0.00     0.079 A 
HETATM   16  C13 UNK     1      19.283  -7.343  37.393  1.00  0.00     0.040 A 
HETATM   17  C16 UNK     1      19.731  -8.662  37.319  1.00  0.00     0.039 A 
HETATM   18  C14 UNK     1      20.467  -9.086  36.212  1.00  0.00     0.068 A 
HETATM   19  C15 UNK     1      20.755  -8.192  35.182  1.00  0.00     0.039 A 
HETATM   20  C12 UNK     1      20.306  -6.873  35.257  1.00  0.00     0.040 A 
BRANCH  18  21
HETATM   21  O3  UNK     1      20.905 -10.373  36.139  1.00  0.00    -0.356 OA
HETATM   22  C17 UNK     1      21.817 -10.689  35.089  1.00  0.00     0.210 C 
ENDBRANCH  18  21
ENDBRANCH  14  15
ENDBRANCH  12  14
ENDBRANCH   6  12
TORSDOF 4
ENDMDL
MODEL 4
REMARK VINA RESULT:      -8.5      1.681      8.214
REMARK  4 active torsions:
REMARK  status: ('A' for Active; 'I' for Inactive)
REMARK    1  A    between atoms: C10_15  and  O2_2 
REMARK    2  A    between atoms: C11_16  and  O2_2 
REMARK    3  A    between atoms: C14_19  and  O3_3 
REMARK    4  A    between atoms: C10_15  and  C4_9 
ROOT
HETATM    1  O1  UNK     1      18.180   7.129  34.279  1.00  0.00    -0.274 OA
HETATM    2  O4  UNK     1      19.949   5.788  33.739  1.00  0.00    -0.259 OA
HETATM    3  C1  UNK     1      16.183   7.096  32.893  1.00  0.00    -0.001 A 
HETATM    4  C2  UNK     1      16.879   7.588  33.992  1.00  0.00     0.089 A 
HETATM    5  C3  UNK     1      16.820   6.103  32.043  1.00  0.00     0.038 A 
HETATM    6  C4  UNK     1      18.056   5.671  32.319  1.00  0.00     0.116 A 
HETATM    7  C5  UNK     1      14.894   7.575  32.642  1.00  0.00     0.014 A 
HETATM    8  C6  UNK     1      16.327   8.541  34.846  1.00  0.00     0.038 A 
HETATM    9  C7  UNK     1      18.816   6.180  33.484  1.00  0.00     0.304 A 
HETATM   10  C8  UNK     1      14.326   8.531  33.490  1.00  0.00     0.001 A 
HETATM   11  C9  UNK     1      15.041   9.012  34.589  1.00  0.00     0.003 A 
ENDROOT
BRANCH   6  12
HETATM   12  C10 UNK     1      18.613   4.669  31.403  1.00  0.00     0.304 C 
HETATM   13  O5  UNK     1      19.631   4.840  30.753  1.00  0.00    -0.259 OA
BRANCH  12  14
HETATM   14  O2  UNK     1      17.789   3.560  31.433  1.00  0.00    -0.275 OA
BRANCH  14  15
HETATM   15  C11 UNK     1      18.329   2.476  30.738  1.00  0.00     0.079 A 
HETATM   16  C13 UNK     1      18.037   2.336  29.399  1.00  0.00     0.040 A 
HETATM   17  C16 UNK     1      18.577   1.253  28.704  1.00  0.00     0.039 A 
HETATM   18  C14 UNK     1      19.395   0.338  29.367  1.00  0.00     0.068 A 
HETATM   19  C15 UNK     1      19.673   0.505  30.723  1.00  0.00     0.039 A 
HETATM   20  C12 UNK     1      19.133   1.588  31.418  1.00  0.00     0.040 A 
BRANCH  18  21
HETATM   21  O3  UNK     1      19.921  -0.718  28.689  1.00  0.00    -0.356 OA
HETATM   22  C17 UNK     1      20.365  -1.830  29.464  1.00  0.00     0.210 C 
ENDBRANCH  18  21
ENDBRANCH  14  15
ENDBRANCH  12  14
ENDBRANCH   6  12
TORSDOF 4
ENDMDL
MODEL 5
REMARK VINA RESULT:      -8.2      3.488      4.521
REMARK  4 active torsions:
REMARK  status: ('A' for Active; 'I' for Inactive)
REMARK    1  A    between atoms: C10_15  and  O2_2 
REMARK    2  A    between atoms: C11_16  and  O2_2 
REMARK    3  A    between atoms: C14_19  and  O3_3 
REMARK    4  A    between atoms: C10_15  and  C4_9 
ROOT
HETATM    1  O1  UNK     1      18.696  -0.440  33.998  1.00  0.00    -0.274 OA
HETATM    2  O4  UNK     1      18.951   0.134  31.800  1.00  0.00    -0.259 OA
HETATM    3  C1  UNK     1      17.945   1.232  35.594  1.00  0.00    -0.001 A 
HETATM    4  C2  UNK     1      18.351  -0.068  35.312  1.00  0.00     0.089 A 
HETATM    5  C3  UNK     1      17.883   2.201  34.512  1.00  0.00     0.038 A 
HETATM    6  C4  UNK     1      18.212   1.843  33.265  1.00  0.00     0.116 A 
HETATM    7  C5  UNK     1      17.610   1.563  36.910  1.00  0.00     0.014 A 
HETATM    8  C6  UNK     1      18.433  -1.044  36.303  1.00  0.00     0.038 A 
HETATM    9  C7  UNK     1      18.647   0.465  32.941  1.00  0.00     0.304 A 
HETATM   10  C8  UNK     1      17.686   0.594  37.916  1.00  0.00     0.001 A 
HETATM   11  C9  UNK     1      18.097  -0.706  37.613  1.00  0.00     0.003 A 
ENDROOT
BRANCH   6  12
HETATM   12  C10 UNK     1      18.118   2.891  32.242  1.00  0.00     0.304 C 
HETATM   13  O5  UNK     1      17.454   2.785  31.224  1.00  0.00    -0.259 OA
BRANCH  12  14
HETATM   14  O2  UNK     1      18.895   3.958  32.654  1.00  0.00    -0.275 OA
BRANCH  14  15
HETATM   15  C11 UNK     1      18.264   5.187  32.447  1.00  0.00     0.079 A 
HETATM   16  C13 UNK     1      17.516   5.727  33.469  1.00  0.00     0.040 A 
HETATM   17  C16 UNK     1      16.885   6.955  33.262  1.00  0.00     0.039 A 
HETATM   18  C14 UNK     1      17.020   7.610  32.038  1.00  0.00     0.068 A 
HETATM   19  C15 UNK     1      17.784   7.038  31.021  1.00  0.00     0.039 A 
HETATM   20  C12 UNK     1      18.414   5.811  31.228  1.00  0.00     0.040 A 
BRANCH  18  21
HETATM   21  O3  UNK     1      16.405   8.807  31.836  1.00  0.00    -0.356 OA
HETATM   22  C17 UNK     1      15.215   9.060  32.581  1.00  0.00     0.210 C 
ENDBRANCH  18  21
ENDBRANCH  14  15
ENDBRANCH  12  14
ENDBRANCH   6  12
TORSDOF 4
ENDMDL
MODEL 6
REMARK VINA RESULT:      -8.2     21.670     23.813
REMARK  4 active torsions:
REMARK  status: ('A' for Active; 'I' for Inactive)
REMARK    1  A    between atoms: C10_15  and  O2_2 
REMARK    2  A    between atoms: C11_16  and  O2_2 
REMARK    3  A    between atoms: C14_19  and  O3_3 
REMARK    4  A    between atoms: C10_15  and  C4_9 
ROOT
HETATM    1  O1  UNK     1      10.317   5.300   9.263  1.00  0.00    -0.274 OA
HETATM    2  O4  UNK     1      11.613   4.687  11.042  1.00  0.00    -0.259 OA
HETATM    3  C1  UNK     1      11.375   6.109   7.230  1.00  0.00    -0.001 A 
HETATM    4  C2  UNK     1      10.226   5.792   7.946  1.00  0.00     0.089 A 
HETATM    5  C3  UNK     1      12.672   5.926   7.862  1.00  0.00     0.038 A 
HETATM    6  C4  UNK     1      12.753   5.458   9.113  1.00  0.00     0.116 A 
HETATM    7  C5  UNK     1      11.245   6.594   5.926  1.00  0.00     0.014 A 
HETATM    8  C6  UNK     1       8.953   5.945   7.399  1.00  0.00     0.038 A 
HETATM    9  C7  UNK     1      11.543   5.114   9.895  1.00  0.00     0.304 A 
HETATM   10  C8  UNK     1       9.974   6.753   5.363  1.00  0.00     0.001 A 
HETATM   11  C9  UNK     1       8.832   6.429   6.098  1.00  0.00     0.003 A 
ENDROOT
BRANCH   6  12
HETATM   12  C10 UNK     1      14.105   5.309   9.664  1.00  0.00     0.304 C 
HETATM   13  O5  UNK     1      14.899   4.463   9.286  1.00  0.00    -0.259 OA
BRANCH  12  14
HETATM   14  O2  UNK     1      14.275   6.271  10.642  1.00  0.00    -0.275 OA
BRANCH  14  15
HETATM   15  C11 UNK     1      15.209   7.242  10.277  1.00  0.00     0.079 A 
HETATM   16  C13 UNK     1      16.539   7.019  10.556  1.00  0.00     0.040 A 
HETATM   17  C16 UNK     1      17.473   7.989  10.191  1.00  0.00     0.039 A 
HETATM   18  C14 UNK     1      17.053   9.158   9.556  1.00  0.00     0.068 A 
HETATM   19  C15 UNK     1      15.699   9.356   9.286  1.00  0.00     0.039 A 
HETATM   20  C12 UNK     1      14.765   8.386   9.651  1.00  0.00     0.040 A 
BRANCH  18  21
HETATM   21  O3  UNK     1      17.964  10.104   9.200  1.00  0.00    -0.356 OA
HETATM   22  C17 UNK     1      17.469  11.258   8.523  1.00  0.00     0.210 C 
ENDBRANCH  18  21
ENDBRANCH  14  15
ENDBRANCH  12  14
ENDBRANCH   6  12
TORSDOF 4
ENDMDL
MODEL 7
REMARK VINA RESULT:      -8.1     13.274     16.202
REMARK  4 active torsions:
REMARK  status: ('A' for Active; 'I' for Inactive)
REMARK    1  A    between atoms: C10_15  and  O2_2 
REMARK    2  A    between atoms: C11_16  and  O2_2 
REMARK    3  A    between atoms: C14_19  and  O3_3 
REMARK    4  A    between atoms: C10_15  and  C4_9 
ROOT
HETATM    1  O1  UNK     1      19.425  -1.858  12.832  1.00  0.00    -0.274 OA
HETATM    2  O4  UNK     1      19.385  -0.088  14.277  1.00  0.00    -0.259 OA
HETATM    3  C1  UNK     1      18.716  -4.051  13.602  1.00  0.00    -0.001 A 
HETATM    4  C2  UNK     1      19.198  -3.226  12.591  1.00  0.00     0.089 A 
HETATM    5  C3  UNK     1      18.452  -3.478  14.912  1.00  0.00     0.038 A 
HETATM    6  C4  UNK     1      18.670  -2.177  15.136  1.00  0.00     0.116 A 
HETATM    7  C5  UNK     1      18.502  -5.404  13.324  1.00  0.00     0.014 A 
HETATM    8  C6  UNK     1      19.472  -3.713  11.314  1.00  0.00     0.038 A 
HETATM    9  C7  UNK     1      19.182  -1.280  14.075  1.00  0.00     0.304 A 
HETATM   10  C8  UNK     1      18.773  -5.907  12.047  1.00  0.00     0.001 A 
HETATM   11  C9  UNK     1      19.256  -5.063  11.046  1.00  0.00     0.003 A 
ENDROOT
BRANCH   6  12
HETATM   12  C10 UNK     1      18.374  -1.693  16.490  1.00  0.00     0.304 C 
HETATM   13  O5  UNK     1      17.258  -1.707  16.983  1.00  0.00    -0.259 OA
BRANCH  12  14
HETATM   14  O2  UNK     1      19.556  -1.245  17.049  1.00  0.00    -0.275 OA
BRANCH  14  15
HETATM   15  C11 UNK     1      19.343  -0.308  18.062  1.00  0.00     0.079 A 
HETATM   16  C13 UNK     1      19.450  -0.715  19.374  1.00  0.00     0.040 A 
HETATM   17  C16 UNK     1      19.237   0.221  20.386  1.00  0.00     0.039 A 
HETATM   18  C14 UNK     1      18.924   1.541  20.061  1.00  0.00     0.068 A 
HETATM   19  C15 UNK     1      18.822   1.924  18.724  1.00  0.00     0.039 A 
HETATM   20  C12 UNK     1      19.034   0.988  17.712  1.00  0.00     0.040 A 
BRANCH  18  21
HETATM   21  O3  UNK     1      18.716   2.454  21.049  1.00  0.00    -0.356 OA
HETATM   22  C17 UNK     1      19.649   2.465  22.128  1.00  0.00     0.210 C 
ENDBRANCH  18  21
ENDBRANCH  14  15
ENDBRANCH  12  14
ENDBRANCH   6  12
TORSDOF 4
ENDMDL
MODEL 8
REMARK VINA RESULT:      -8.1      2.839      3.958
REMARK  4 active torsions:
REMARK  status: ('A' for Active; 'I' for Inactive)
REMARK    1  A    between atoms: C10_15  and  O2_2 
REMARK    2  A    between atoms: C11_16  and  O2_2 
REMARK    3  A    between atoms: C14_19  and  O3_3 
REMARK    4  A    between atoms: C10_15  and  C4_9 
ROOT
HETATM    1  O1  UNK     1      18.291   1.357  32.379  1.00  0.00    -0.274 OA
HETATM    2  O4  UNK     1      18.262   2.856  30.654  1.00  0.00    -0.259 OA
HETATM    3  C1  UNK     1      18.307   2.165  34.671  1.00  0.00    -0.001 A 
HETATM    4  C2  UNK     1      18.308   1.110  33.765  1.00  0.00     0.089 A 
HETATM    5  C3  UNK     1      18.290   3.528  34.164  1.00  0.00     0.038 A 
HETATM    6  C4  UNK     1      18.274   3.758  32.845  1.00  0.00     0.116 A 
HETATM    7  C5  UNK     1      18.323   1.880  36.039  1.00  0.00     0.014 A 
HETATM    8  C6  UNK     1      18.325  -0.219  34.185  1.00  0.00     0.038 A 
HETATM    9  C7  UNK     1      18.274   2.650  31.863  1.00  0.00     0.304 A 
HETATM   10  C8  UNK     1      18.340   0.551  36.476  1.00  0.00     0.001 A 
HETATM   11  C9  UNK     1      18.341  -0.495  35.551  1.00  0.00     0.003 A 
ENDROOT
BRANCH   6  12
HETATM   12  C10 UNK     1      18.258   5.166  32.432  1.00  0.00     0.304 C 
HETATM   13  O5  UNK     1      19.267   5.820  32.222  1.00  0.00    -0.259 OA
BRANCH  12  14
HETATM   14  O2  UNK     1      16.939   5.567  32.339  1.00  0.00    -0.275 OA
BRANCH  14  15
HETATM   15  C11 UNK     1      16.688   6.743  33.049  1.00  0.00     0.079 A 
HETATM   16  C13 UNK     1      16.207   7.839  32.367  1.00  0.00     0.040 A 
HETATM   17  C16 UNK     1      15.957   9.014  33.077  1.00  0.00     0.039 A 
HETATM   18  C14 UNK     1      16.195   9.062  34.451  1.00  0.00     0.068 A 
HETATM   19  C15 UNK     1      16.683   7.937  35.114  1.00  0.00     0.039 A 
HETATM   20  C12 UNK     1      16.933   6.762  34.404  1.00  0.00     0.040 A 
BRANCH  18  21
HETATM   21  O3  UNK     1      15.952  10.209  35.143  1.00  0.00    -0.356 OA
HETATM   22  C17 UNK     1      14.587  10.525  35.415  1.00  0.00     0.210 C 
ENDBRANCH  18  21
ENDBRANCH  14  15
ENDBRANCH  12  14
ENDBRANCH   6  12
TORSDOF 4
ENDMDL
MODEL 9
REMARK VINA RESULT:      -8.1     21.845     23.957
REMARK  4 active torsions:
REMARK  status: ('A' for Active; 'I' for Inactive)
REMARK    1  A    between atoms: C10_15  and  O2_2 
REMARK    2  A    between atoms: C11_16  and  O2_2 
REMARK    3  A    between atoms: C14_19  and  O3_3 
REMARK    4  A    between atoms: C10_15  and  C4_9 
ROOT
HETATM    1  O1  UNK     1      11.669   6.717   6.603  1.00  0.00    -0.274 OA
HETATM    2  O4  UNK     1      13.952   6.805   6.662  1.00  0.00    -0.259 OA
HETATM    3  C1  UNK     1      10.452   5.851   8.519  1.00  0.00    -0.001 A 
HETATM    4  C2  UNK     1      10.455   6.389   7.237  1.00  0.00     0.089 A 
HETATM    5  C3  UNK     1      11.720   5.631   9.194  1.00  0.00     0.038 A 
HETATM    6  C4  UNK     1      12.871   5.944   8.587  1.00  0.00     0.116 A 
HETATM    7  C5  UNK     1       9.227   5.538   9.116  1.00  0.00     0.014 A 
HETATM    8  C6  UNK     1       9.274   6.624   6.535  1.00  0.00     0.038 A 
HETATM    9  C7  UNK     1      12.899   6.518   7.222  1.00  0.00     0.304 A 
HETATM   10  C8  UNK     1       8.033   5.769   8.425  1.00  0.00     0.001 A 
HETATM   11  C9  UNK     1       8.057   6.310   7.138  1.00  0.00     0.003 A 
ENDROOT
BRANCH   6  12
HETATM   12  C10 UNK     1      14.099   5.685   9.349  1.00  0.00     0.304 C 
HETATM   13  O5  UNK     1      14.875   4.779   9.091  1.00  0.00    -0.259 OA
BRANCH  12  14
HETATM   14  O2  UNK     1      14.181   6.627  10.357  1.00  0.00    -0.275 OA
BRANCH  14  15
HETATM   15  C11 UNK     1      15.192   7.563  10.129  1.00  0.00     0.079 A 
HETATM   16  C13 UNK     1      14.852   8.789   9.601  1.00  0.00     0.040 A 
HETATM   17  C16 UNK     1      15.862   9.724   9.373  1.00  0.00     0.039 A 
HETATM   18  C14 UNK     1      17.186   9.409   9.679  1.00  0.00     0.068 A 
HETATM   19  C15 UNK     1      17.500   8.160  10.212  1.00  0.00     0.039 A 
HETATM   20  C12 UNK     1      16.490   7.224  10.440  1.00  0.00     0.040 A 
BRANCH  18  21
HETATM   21  O3  UNK     1      18.171  10.322   9.456  1.00  0.00    -0.356 OA
HETATM   22  C17 UNK     1      17.986  11.223   8.366  1.00  0.00     0.210 C 
ENDBRANCH  18  21
ENDBRANCH  14  15
ENDBRANCH  12  14
ENDBRANCH   6  12
TORSDOF 4
ENDMDL
MODEL 10
REMARK VINA RESULT:      -8.0      2.635      9.343
REMARK  4 active torsions:
REMARK  status: ('A' for Active; 'I' for Inactive)
REMARK    1  A    between atoms: C10_15  and  O2_2 
REMARK    2  A    between atoms: C11_16  and  O2_2 
REMARK    3  A    between atoms: C14_19  and  O3_3 
REMARK    4  A    between atoms: C10_15  and  C4_9 
ROOT
HETATM    1  O1  UNK     1      14.186   9.096  34.577  1.00  0.00    -0.274 OA
HETATM    2  O4  UNK     1      14.294   7.288  33.184  1.00  0.00    -0.259 OA
HETATM    3  C1  UNK     1      15.920  10.796  34.473  1.00  0.00    -0.001 A 
HETATM    4  C2  UNK     1      14.742  10.308  35.029  1.00  0.00     0.089 A 
HETATM    5  C3  UNK     1      16.569  10.034  33.419  1.00  0.00     0.038 A 
HETATM    6  C4  UNK     1      16.037   8.881  32.993  1.00  0.00     0.116 A 
HETATM    7  C5  UNK     1      16.440  12.003  34.947  1.00  0.00     0.014 A 
HETATM    8  C6  UNK     1      14.070  10.990  36.042  1.00  0.00     0.038 A 
HETATM    9  C7  UNK     1      14.784   8.344  33.570  1.00  0.00     0.304 A 
HETATM   10  C8  UNK     1      15.777  12.699  35.964  1.00  0.00     0.001 A 
HETATM   11  C9  UNK     1      14.596  12.194  36.509  1.00  0.00     0.003 A 
ENDROOT
BRANCH   6  12
HETATM   12  C10 UNK     1      16.766   8.185  31.927  1.00  0.00     0.304 C 
HETATM   13  O5  UNK     1      16.407   8.170  30.761  1.00  0.00    -0.259 OA
BRANCH  12  14
HETATM   14  O2  UNK     1      17.877   7.587  32.492  1.00  0.00    -0.275 OA
BRANCH  14  15
HETATM   15  C11 UNK     1      18.170   6.351  31.910  1.00  0.00     0.079 A 
HETATM   16  C13 UNK     1      18.944   6.323  30.771  1.00  0.00     0.040 A 
HETATM   17  C16 UNK     1      19.236   5.089  30.189  1.00  0.00     0.039 A 
HETATM   18  C14 UNK     1      18.747   3.915  30.761  1.00  0.00     0.068 A 
HETATM   19  C15 UNK     1      17.965   3.975  31.915  1.00  0.00     0.039 A 
HETATM   20  C12 UNK     1      17.673   5.209  32.497  1.00  0.00     0.040 A 
BRANCH  18  21
HETATM   21  O3  UNK     1      19.032   2.711  30.194  1.00  0.00    -0.356 OA
HETATM   22  C17 UNK     1      18.182   2.276  29.134  1.00  0.00     0.210 C 
ENDBRANCH  18  21
ENDBRANCH  14  15
ENDBRANCH  12  14
ENDBRANCH   6  12
TORSDOF 4
ENDMDL
