MODEL 1
REMARK VINA RESULT:      -9.0      0.000      0.000
REMARK  5 active torsions:
REMARK  status: ('A' for Active; 'I' for Inactive)
REMARK    1  A    between atoms: C5_13  and  O2_3 
REMARK    2  A    between atoms: C15_23  and  O5_6 
REMARK       I    between atoms: C7_15  and  N1_8 
REMARK    3  A    between atoms: C9_17  and  N1_8 
REMARK    4  A    between atoms: C3_11  and  C7_15 
REMARK    5  A    between atoms: C12_20  and  C15_23 
ROOT
HETATM    1  O1  UNK     1      19.530  -1.200  34.805  1.00  0.00    -0.271 OA
HETATM    2  O4  UNK     1      20.684  -3.113  34.329  1.00  0.00    -0.259 OA
HETATM    3  C1  UNK     1      18.524  -0.920  37.000  1.00  0.00     0.002 A 
HETATM    4  C2  UNK     1      18.782  -0.436  35.722  1.00  0.00     0.123 A 
HETATM    5  C3  UNK     1      19.747  -2.950  36.500  1.00  0.00     0.108 A 
HETATM    6  C4  UNK     1      19.038  -2.228  37.375  1.00  0.00     0.037 A 
HETATM    7  C5  UNK     1      18.318   0.809  35.301  1.00  0.00     0.102 A 
HETATM    8  C6  UNK     1      17.780  -0.132  37.882  1.00  0.00     0.014 A 
HETATM    9  C8  UNK     1      20.035  -2.455  35.135  1.00  0.00     0.304 A 
HETATM   10  C10 UNK     1      17.577   1.588  36.187  1.00  0.00     0.040 A 
HETATM   11  C11 UNK     1      17.308   1.119  37.474  1.00  0.00     0.004 A 
ENDROOT
BRANCH   5  12
HETATM   12  C7  UNK     1      20.223  -4.257  36.970  1.00  0.00     0.262 C 
HETATM   13  O3  UNK     1      21.430  -4.459  37.090  1.00  0.00    -0.267 OA
HETATM   14  N1  UNK     1      19.177  -5.134  37.224  1.00  0.00    -0.321 N 
HETATM   15  H3  UNK     1      18.228  -4.818  37.052  1.00  0.00     0.169 HD
BRANCH  14  16
HETATM   16  C9  UNK     1      19.264  -6.470  37.686  1.00  0.00     0.058 A 
HETATM   17  C12 UNK     1      18.856  -7.526  36.936  1.00  0.00     0.106 A 
HETATM   18  S1  UNK     1      19.096  -8.999  37.776  1.00  0.00    -0.094 SA
HETATM   19  C14 UNK     1      19.748  -8.181  39.132  1.00  0.00     0.053 A 
HETATM   20  C13 UNK     1      19.779  -6.816  38.947  1.00  0.00     0.038 A 
BRANCH  17  21
HETATM   21  C15 UNK     1      18.290  -7.573  35.625  1.00  0.00     0.302 C 
HETATM   22  O6  UNK     1      17.171  -8.055  35.334  1.00  0.00    -0.259 OA
BRANCH  21  23
HETATM   23  O5  UNK     1      19.118  -7.020  34.671  1.00  0.00    -0.322 OA
HETATM   24  C17 UNK     1      20.465  -7.497  34.595  1.00  0.00     0.213 C 
ENDBRANCH  21  23
ENDBRANCH  17  21
ENDBRANCH  14  16
ENDBRANCH   5  12
BRANCH   7  25
HETATM   25  O2  UNK     1      18.578   1.269  34.048  1.00  0.00    -0.353 OA
HETATM   26  C16 UNK     1      18.249   2.631  33.774  1.00  0.00     0.210 C 
ENDBRANCH   7  25
TORSDOF 5
ENDMDL
MODEL 2
REMARK VINA RESULT:      -8.9      6.328     11.104
REMARK  5 active torsions:
REMARK  status: ('A' for Active; 'I' for Inactive)
REMARK    1  A    between atoms: C5_13  and  O2_3 
REMARK    2  A    between atoms: C15_23  and  O5_6 
REMARK       I    between atoms: C7_15  and  N1_8 
REMARK    3  A    between atoms: C9_17  and  N1_8 
REMARK    4  A    between atoms: C3_11  and  C7_15 
REMARK    5  A    between atoms: C12_20  and  C15_23 
ROOT
HETATM    1  O1  UNK     1      18.720   0.852  32.666  1.00  0.00    -0.271 OA
HETATM    2  O4  UNK     1      17.915   2.750  33.651  1.00  0.00    -0.259 OA
HETATM    3  C1  UNK     1      19.436   0.917  30.344  1.00  0.00     0.002 A 
HETATM    4  C2  UNK     1      19.246   0.211  31.528  1.00  0.00     0.123 A 
HETATM    5  C3  UNK     1      18.583   2.931  31.385  1.00  0.00     0.108 A 
HETATM    6  C4  UNK     1      19.082   2.327  30.301  1.00  0.00     0.037 A 
HETATM    7  C5  UNK     1      19.565  -1.141  31.635  1.00  0.00     0.102 A 
HETATM    8  C6  UNK     1      19.962   0.247  29.236  1.00  0.00     0.014 A 
HETATM    9  C8  UNK     1      18.373   2.200  32.655  1.00  0.00     0.304 A 
HETATM   10  C10 UNK     1      20.088  -1.801  30.525  1.00  0.00     0.040 A 
HETATM   11  C11 UNK     1      20.286  -1.109  29.329  1.00  0.00     0.004 A 
ENDROOT
BRANCH   5  12
HETATM   12  C7  UNK     1      18.255   4.355  31.243  1.00  0.00     0.262 C 
HETATM   13  O3  UNK     1      18.612   4.965  30.237  1.00  0.00    -0.267 OA
HETATM   14  N1  UNK     1      17.548   4.841  32.334  1.00  0.00    -0.321 N 
HETATM   15  H3  UNK     1      17.349   4.209  33.103  1.00  0.00     0.169 HD
BRANCH  14  16
HETATM   16  C9  UNK     1      17.072   6.160  32.536  1.00  0.00     0.058 A 
HETATM   17  C12 UNK     1      17.710   7.047  33.343  1.00  0.00     0.106 A 
HETATM   18  S1  UNK     1      16.885   8.547  33.371  1.00  0.00    -0.094 SA
HETATM   19  C14 UNK     1      15.686   7.969  32.292  1.00  0.00     0.053 A 
HETATM   20  C13 UNK     1      15.912   6.661  31.923  1.00  0.00     0.038 A 
BRANCH  17  21
HETATM   21  C15 UNK     1      18.900   6.909  34.121  1.00  0.00     0.302 C 
HETATM   22  O6  UNK     1      19.158   7.543  35.171  1.00  0.00    -0.259 OA
BRANCH  21  23
HETATM   23  O5  UNK     1      19.772   5.981  33.595  1.00  0.00    -0.322 OA
HETATM   24  C17 UNK     1      20.856   6.460  32.792  1.00  0.00     0.213 C 
ENDBRANCH  21  23
ENDBRANCH  17  21
ENDBRANCH  14  16
ENDBRANCH   5  12
BRANCH   7  25
HETATM   25  O2  UNK     1      19.374  -1.818  32.798  1.00  0.00    -0.353 OA
HETATM   26  C16 UNK     1      20.499  -2.508  33.342  1.00  0.00     0.210 C 
ENDBRANCH   7  25
TORSDOF 5
ENDMDL
MODEL 3
REMARK VINA RESULT:      -8.6      2.708      7.553
REMARK  5 active torsions:
REMARK  status: ('A' for Active; 'I' for Inactive)
REMARK    1  A    between atoms: C5_13  and  O2_3 
REMARK    2  A    between atoms: C15_23  and  O5_6 
REMARK       I    between atoms: C7_15  and  N1_8 
REMARK    3  A    between atoms: C9_17  and  N1_8 
REMARK    4  A    between atoms: C3_11  and  C7_15 
REMARK    5  A    between atoms: C12_20  and  C15_23 
ROOT
HETATM    1  O1  UNK     1      20.358  -7.236  35.832  1.00  0.00    -0.271 OA
HETATM    2  O4  UNK     1      20.306  -5.237  34.728  1.00  0.00    -0.259 OA
HETATM    3  C1  UNK     1      20.112  -7.279  38.250  1.00  0.00     0.002 A 
HETATM    4  C2  UNK     1      20.293  -7.950  37.045  1.00  0.00     0.123 A 
HETATM    5  C3  UNK     1      20.056  -5.157  37.083  1.00  0.00     0.108 A 
HETATM    6  C4  UNK     1      19.992  -5.829  38.238  1.00  0.00     0.037 A 
HETATM    7  C5  UNK     1      20.414  -9.336  36.988  1.00  0.00     0.102 A 
HETATM    8  C6  UNK     1      20.050  -8.021  39.432  1.00  0.00     0.014 A 
HETATM    9  C8  UNK     1      20.247  -5.849  35.789  1.00  0.00     0.304 A 
HETATM   10  C10 UNK     1      20.351 -10.069  38.172  1.00  0.00     0.040 A 
HETATM   11  C11 UNK     1      20.170  -9.413  39.391  1.00  0.00     0.004 A 
ENDROOT
BRANCH   5  12
HETATM   12  C7  UNK     1      19.926  -3.697  37.173  1.00  0.00     0.262 C 
HETATM   13  O3  UNK     1      20.816  -3.038  37.707  1.00  0.00    -0.267 OA
HETATM   14  N1  UNK     1      18.742  -3.241  36.610  1.00  0.00    -0.321 N 
HETATM   15  H3  UNK     1      18.095  -3.922  36.225  1.00  0.00     0.169 HD
BRANCH  14  16
HETATM   16  C9  UNK     1      18.289  -1.902  36.520  1.00  0.00     0.058 A 
HETATM   17  C12 UNK     1      18.469  -1.148  35.405  1.00  0.00     0.106 A 
HETATM   18  S1  UNK     1      17.806   0.418  35.615  1.00  0.00    -0.094 SA
HETATM   19  C14 UNK     1      17.289   0.043  37.205  1.00  0.00     0.053 A 
HETATM   20  C13 UNK     1      17.617  -1.246  37.564  1.00  0.00     0.038 A 
BRANCH  17  21
HETATM   21  C15 UNK     1      19.094  -1.461  34.159  1.00  0.00     0.302 C 
HETATM   22  O6  UNK     1      20.181  -2.069  34.025  1.00  0.00    -0.259 OA
BRANCH  21  23
HETATM   23  O5  UNK     1      18.366  -1.019  33.076  1.00  0.00    -0.322 OA
HETATM   24  C17 UNK     1      19.086  -0.521  31.943  1.00  0.00     0.213 C 
ENDBRANCH  21  23
ENDBRANCH  17  21
ENDBRANCH  14  16
ENDBRANCH   5  12
BRANCH   7  25
HETATM   25  O2  UNK     1      20.591  -9.979  35.803  1.00  0.00    -0.353 OA
HETATM   26  C16 UNK     1      21.784 -10.748  35.651  1.00  0.00     0.210 C 
ENDBRANCH   7  25
TORSDOF 5
ENDMDL
MODEL 4
REMARK VINA RESULT:      -8.6     18.146     20.177
REMARK  5 active torsions:
REMARK  status: ('A' for Active; 'I' for Inactive)
REMARK    1  A    between atoms: C5_13  and  O2_3 
REMARK    2  A    between atoms: C15_23  and  O5_6 
REMARK       I    between atoms: C7_15  and  N1_8 
REMARK    3  A    between atoms: C9_17  and  N1_8 
REMARK    4  A    between atoms: C3_11  and  C7_15 
REMARK    5  A    between atoms: C12_20  and  C15_23 
ROOT
HETATM    1  O1  UNK     1      19.372   1.813  17.237  1.00  0.00    -0.271 OA
HETATM    2  O4  UNK     1      19.126   1.025  15.107  1.00  0.00    -0.259 OA
HETATM    3  C1  UNK     1      19.191   0.278  19.113  1.00  0.00     0.002 A 
HETATM    4  C2  UNK     1      19.395   1.564  18.623  1.00  0.00     0.123 A 
HETATM    5  C3  UNK     1      18.930  -0.562  16.856  1.00  0.00     0.108 A 
HETATM    6  C4  UNK     1      18.952  -0.804  18.171  1.00  0.00     0.037 A 
HETATM    7  C5  UNK     1      19.629   2.644  19.471  1.00  0.00     0.102 A 
HETATM    8  C6  UNK     1      19.223   0.070  20.494  1.00  0.00     0.014 A 
HETATM    9  C8  UNK     1      19.146   0.798  16.311  1.00  0.00     0.304 A 
HETATM   10  C10 UNK     1      19.660   2.427  20.847  1.00  0.00     0.040 A 
HETATM   11  C11 UNK     1      19.457   1.143  21.357  1.00  0.00     0.004 A 
ENDROOT
BRANCH   5  12
HETATM   12  C7  UNK     1      18.680  -1.718  15.985  1.00  0.00     0.262 C 
HETATM   13  O3  UNK     1      17.701  -2.434  16.189  1.00  0.00    -0.267 OA
HETATM   14  N1  UNK     1      19.646  -1.848  14.997  1.00  0.00    -0.321 N 
HETATM   15  H3  UNK     1      20.412  -1.181  14.977  1.00  0.00     0.169 HD
BRANCH  14  16
HETATM   16  C9  UNK     1      19.723  -2.840  13.990  1.00  0.00     0.058 A 
HETATM   17  C12 UNK     1      20.533  -3.925  14.100  1.00  0.00     0.106 A 
HETATM   18  S1  UNK     1      20.392  -4.932  12.722  1.00  0.00    -0.094 SA
HETATM   19  C14 UNK     1      19.240  -3.885  12.008  1.00  0.00     0.053 A 
HETATM   20  C13 UNK     1      18.972  -2.793  12.804  1.00  0.00     0.038 A 
BRANCH  17  21
HETATM   21  C15 UNK     1      21.428  -4.317  15.142  1.00  0.00     0.302 C 
HETATM   22  O6  UNK     1      21.791  -5.492  15.384  1.00  0.00    -0.259 OA
BRANCH  21  23
HETATM   23  O5  UNK     1      21.877  -3.247  15.885  1.00  0.00    -0.322 OA
HETATM   24  C17 UNK     1      21.964  -3.406  17.305  1.00  0.00     0.213 C 
ENDBRANCH  21  23
ENDBRANCH  17  21
ENDBRANCH  14  16
ENDBRANCH   5  12
BRANCH   7  25
HETATM   25  O2  UNK     1      19.827   3.896  18.978  1.00  0.00    -0.353 OA
HETATM   26  C16 UNK     1      21.148   4.223  18.545  1.00  0.00     0.210 C 
ENDBRANCH   7  25
TORSDOF 5
ENDMDL
MODEL 5
REMARK VINA RESULT:      -8.5      1.221      2.060
REMARK  5 active torsions:
REMARK  status: ('A' for Active; 'I' for Inactive)
REMARK    1  A    between atoms: C5_13  and  O2_3 
REMARK    2  A    between atoms: C15_23  and  O5_6 
REMARK       I    between atoms: C7_15  and  N1_8 
REMARK    3  A    between atoms: C9_17  and  N1_8 
REMARK    4  A    between atoms: C3_11  and  C7_15 
REMARK    5  A    between atoms: C12_20  and  C15_23 
ROOT
HETATM    1  O1  UNK     1      19.449  -1.121  34.494  1.00  0.00    -0.271 OA
HETATM    2  O4  UNK     1      20.673  -2.921  33.801  1.00  0.00    -0.259 OA
HETATM    3  C1  UNK     1      18.501  -1.104  36.733  1.00  0.00     0.002 A 
HETATM    4  C2  UNK     1      18.697  -0.486  35.501  1.00  0.00     0.123 A 
HETATM    5  C3  UNK     1      19.799  -3.015  36.001  1.00  0.00     0.108 A 
HETATM    6  C4  UNK     1      19.086  -2.416  36.962  1.00  0.00     0.037 A 
HETATM    7  C5  UNK     1      18.164   0.769  35.218  1.00  0.00     0.102 A 
HETATM    8  C6  UNK     1      17.751  -0.442  37.707  1.00  0.00     0.014 A 
HETATM    9  C8  UNK     1      20.021  -2.376  34.685  1.00  0.00     0.304 A 
HETATM   10  C10 UNK     1      17.416   1.422  36.196  1.00  0.00     0.040 A 
HETATM   11  C11 UNK     1      17.210   0.818  37.437  1.00  0.00     0.004 A 
ENDROOT
BRANCH   5  12
HETATM   12  C7  UNK     1      20.348  -4.337  36.327  1.00  0.00     0.262 C 
HETATM   13  O3  UNK     1      21.220  -4.439  37.188  1.00  0.00    -0.267 OA
HETATM   14  N1  UNK     1      19.770  -5.345  35.569  1.00  0.00    -0.321 N 
HETATM   15  H3  UNK     1      19.072  -5.091  34.876  1.00  0.00     0.169 HD
BRANCH  14  16
HETATM   16  C9  UNK     1      20.055  -6.732  35.616  1.00  0.00     0.058 A 
HETATM   17  C12 UNK     1      19.529  -7.549  36.564  1.00  0.00     0.106 A 
HETATM   18  S1  UNK     1      20.064  -9.161  36.343  1.00  0.00    -0.094 SA
HETATM   19  C14 UNK     1      20.991  -8.722  34.972  1.00  0.00     0.053 A 
HETATM   20  C13 UNK     1      20.895  -7.377  34.693  1.00  0.00     0.038 A 
BRANCH  17  21
HETATM   21  C15 UNK     1      18.645  -7.267  37.651  1.00  0.00     0.302 C 
HETATM   22  O6  UNK     1      17.541  -6.684  37.556  1.00  0.00    -0.259 OA
BRANCH  21  23
HETATM   23  O5  UNK     1      19.135  -7.713  38.860  1.00  0.00    -0.322 OA
HETATM   24  C17 UNK     1      20.193  -6.966  39.470  1.00  0.00     0.213 C 
ENDBRANCH  21  23
ENDBRANCH  17  21
ENDBRANCH  14  16
ENDBRANCH   5  12
BRANCH   7  25
HETATM   25  O2  UNK     1      18.362   1.361  34.010  1.00  0.00    -0.353 OA
HETATM   26  C16 UNK     1      18.250   2.783  33.956  1.00  0.00     0.210 C 
ENDBRANCH   7  25
TORSDOF 5
ENDMDL
MODEL 6
REMARK VINA RESULT:      -8.5      1.566      2.579
REMARK  5 active torsions:
REMARK  status: ('A' for Active; 'I' for Inactive)
REMARK    1  A    between atoms: C5_13  and  O2_3 
REMARK    2  A    between atoms: C15_23  and  O5_6 
REMARK       I    between atoms: C7_15  and  N1_8 
REMARK    3  A    between atoms: C9_17  and  N1_8 
REMARK    4  A    between atoms: C3_11  and  C7_15 
REMARK    5  A    between atoms: C12_20  and  C15_23 
ROOT
HETATM    1  O1  UNK     1      19.684  -1.107  34.873  1.00  0.00    -0.271 OA
HETATM    2  O4  UNK     1      20.655  -2.959  33.953  1.00  0.00    -0.259 OA
HETATM    3  C1  UNK     1      18.529  -1.291  37.005  1.00  0.00     0.002 A 
HETATM    4  C2  UNK     1      18.949  -0.523  35.923  1.00  0.00     0.123 A 
HETATM    5  C3  UNK     1      19.558  -3.257  36.032  1.00  0.00     0.108 A 
HETATM    6  C4  UNK     1      18.860  -2.707  37.033  1.00  0.00     0.037 A 
HETATM    7  C5  UNK     1      18.665   0.838  35.836  1.00  0.00     0.102 A 
HETATM    8  C6  UNK     1      17.804  -0.675  38.028  1.00  0.00     0.014 A 
HETATM    9  C8  UNK     1      20.016  -2.459  34.873  1.00  0.00     0.304 A 
HETATM   10  C10 UNK     1      17.941   1.444  36.861  1.00  0.00     0.040 A 
HETATM   11  C11 UNK     1      17.511   0.689  37.954  1.00  0.00     0.004 A 
ENDROOT
BRANCH   5  12
HETATM   12  C7  UNK     1      19.842  -4.692  36.150  1.00  0.00     0.262 C 
HETATM   13  O3  UNK     1      20.257  -5.314  35.174  1.00  0.00    -0.267 OA
HETATM   14  N1  UNK     1      19.583  -5.175  37.426  1.00  0.00    -0.321 N 
HETATM   15  H3  UNK     1      19.218  -4.532  38.121  1.00  0.00     0.169 HD
BRANCH  14  16
HETATM   16  C9  UNK     1      19.741  -6.501  37.895  1.00  0.00     0.058 A 
HETATM   17  C12 UNK     1      20.919  -6.959  38.394  1.00  0.00     0.106 A 
HETATM   18  S1  UNK     1      20.780  -8.597  38.877  1.00  0.00    -0.094 SA
HETATM   19  C14 UNK     1      19.134  -8.651  38.405  1.00  0.00     0.053 A 
HETATM   20  C13 UNK     1      18.704  -7.448  37.891  1.00  0.00     0.038 A 
BRANCH  17  21
HETATM   21  C15 UNK     1      22.177  -6.304  38.561  1.00  0.00     0.302 C 
HETATM   22  O6  UNK     1      22.537  -5.261  37.967  1.00  0.00    -0.259 OA
BRANCH  21  23
HETATM   23  O5  UNK     1      22.991  -6.947  39.469  1.00  0.00    -0.322 OA
HETATM   24  C17 UNK     1      24.177  -7.578  38.975  1.00  0.00     0.213 C 
ENDBRANCH  21  23
ENDBRANCH  17  21
ENDBRANCH  14  16
ENDBRANCH   5  12
BRANCH   7  25
HETATM   25  O2  UNK     1      19.082   1.577  34.773  1.00  0.00    -0.353 OA
HETATM   26  C16 UNK     1      18.108   1.894  33.779  1.00  0.00     0.210 C 
ENDBRANCH   7  25
TORSDOF 5
ENDMDL
MODEL 7
REMARK VINA RESULT:      -8.4     19.057     20.979
REMARK  5 active torsions:
REMARK  status: ('A' for Active; 'I' for Inactive)
REMARK    1  A    between atoms: C5_13  and  O2_3 
REMARK    2  A    between atoms: C15_23  and  O5_6 
REMARK       I    between atoms: C7_15  and  N1_8 
REMARK    3  A    between atoms: C9_17  and  N1_8 
REMARK    4  A    between atoms: C3_11  and  C7_15 
REMARK    5  A    between atoms: C12_20  and  C15_23 
ROOT
HETATM    1  O1  UNK     1      19.389   1.246  16.309  1.00  0.00    -0.271 OA
HETATM    2  O4  UNK     1      19.474   0.124  14.321  1.00  0.00    -0.259 OA
HETATM    3  C1  UNK     1      18.757   0.055  18.333  1.00  0.00     0.002 A 
HETATM    4  C2  UNK     1      19.143   1.231  17.696  1.00  0.00     0.123 A 
HETATM    5  C3  UNK     1      18.846  -1.137  16.226  1.00  0.00     0.108 A 
HETATM    6  C4  UNK     1      18.612  -1.158  17.543  1.00  0.00     0.037 A 
HETATM    7  C5  UNK     1      19.301   2.425  18.395  1.00  0.00     0.102 A 
HETATM    8  C6  UNK     1      18.524   0.080  19.710  1.00  0.00     0.014 A 
HETATM    9  C8  UNK     1      19.259   0.101  15.528  1.00  0.00     0.304 A 
HETATM   10  C10 UNK     1      19.065   2.441  19.768  1.00  0.00     0.040 A 
HETATM   11  C11 UNK     1      18.678   1.271  20.424  1.00  0.00     0.004 A 
ENDROOT
BRANCH   5  12
HETATM   12  C7  UNK     1      18.672  -2.410  15.515  1.00  0.00     0.262 C 
HETATM   13  O3  UNK     1      17.540  -2.802  15.235  1.00  0.00    -0.267 OA
HETATM   14  N1  UNK     1      19.884  -3.031  15.247  1.00  0.00    -0.321 N 
HETATM   15  H3  UNK     1      20.738  -2.585  15.567  1.00  0.00     0.169 HD
BRANCH  14  16
HETATM   16  C9  UNK     1      20.094  -4.263  14.582  1.00  0.00     0.058 A 
HETATM   17  C12 UNK     1      20.001  -4.386  13.232  1.00  0.00     0.106 A 
HETATM   18  S1  UNK     1      20.313  -5.998  12.744  1.00  0.00    -0.094 SA
HETATM   19  C14 UNK     1      20.569  -6.495  14.362  1.00  0.00     0.053 A 
HETATM   20  C13 UNK     1      20.418  -5.454  15.252  1.00  0.00     0.038 A 
BRANCH  17  21
HETATM   21  C15 UNK     1      19.699  -3.416  12.228  1.00  0.00     0.302 C 
HETATM   22  O6  UNK     1      18.740  -3.478  11.423  1.00  0.00    -0.259 OA
BRANCH  21  23
HETATM   23  O5  UNK     1      20.590  -2.364  12.223  1.00  0.00    -0.322 OA
HETATM   24  C17 UNK     1      20.838  -1.703  10.978  1.00  0.00     0.213 C 
ENDBRANCH  21  23
ENDBRANCH  17  21
ENDBRANCH  14  16
ENDBRANCH   5  12
BRANCH   7  25
HETATM   25  O2  UNK     1      19.678   3.567  17.760  1.00  0.00    -0.353 OA
HETATM   26  C16 UNK     1      20.706   4.344  18.374  1.00  0.00     0.210 C 
ENDBRANCH   7  25
TORSDOF 5
ENDMDL
MODEL 8
REMARK VINA RESULT:      -8.3      6.552     11.298
REMARK  5 active torsions:
REMARK  status: ('A' for Active; 'I' for Inactive)
REMARK    1  A    between atoms: C5_13  and  O2_3 
REMARK    2  A    between atoms: C15_23  and  O5_6 
REMARK       I    between atoms: C7_15  and  N1_8 
REMARK    3  A    between atoms: C9_17  and  N1_8 
REMARK    4  A    between atoms: C3_11  and  C7_15 
REMARK    5  A    between atoms: C12_20  and  C15_23 
ROOT
HETATM    1  O1  UNK     1      18.217   1.865  32.177  1.00  0.00    -0.271 OA
HETATM    2  O4  UNK     1      18.073   3.730  30.865  1.00  0.00    -0.259 OA
HETATM    3  C1  UNK     1      18.374   2.105  34.591  1.00  0.00     0.002 A 
HETATM    4  C2  UNK     1      18.321   1.295  33.460  1.00  0.00     0.123 A 
HETATM    5  C3  UNK     1      18.221   4.085  33.204  1.00  0.00     0.108 A 
HETATM    6  C4  UNK     1      18.320   3.549  34.426  1.00  0.00     0.037 A 
HETATM    7  C5  UNK     1      18.368  -0.094  33.550  1.00  0.00     0.102 A 
HETATM    8  C6  UNK     1      18.475   1.502  35.847  1.00  0.00     0.014 A 
HETATM    9  C8  UNK     1      18.163   3.243  31.987  1.00  0.00     0.304 A 
HETATM   10  C10 UNK     1      18.470  -0.686  34.808  1.00  0.00     0.040 A 
HETATM   11  C11 UNK     1      18.524   0.110  35.953  1.00  0.00     0.004 A 
ENDROOT
BRANCH   5  12
HETATM   12  C7  UNK     1      18.174   5.551  33.139  1.00  0.00     0.262 C 
HETATM   13  O3  UNK     1      19.052   6.162  32.532  1.00  0.00    -0.267 OA
HETATM   14  N1  UNK     1      17.080   6.070  33.816  1.00  0.00    -0.321 N 
HETATM   15  H3  UNK     1      16.454   5.427  34.290  1.00  0.00     0.169 HD
BRANCH  14  16
HETATM   16  C9  UNK     1      16.722   7.433  33.961  1.00  0.00     0.058 A 
HETATM   17  C12 UNK     1      16.194   8.158  32.940  1.00  0.00     0.106 A 
HETATM   18  S1  UNK     1      15.870   9.764  33.438  1.00  0.00    -0.094 SA
HETATM   19  C14 UNK     1      16.445   9.447  35.020  1.00  0.00     0.053 A 
HETATM   20  C13 UNK     1      16.876   8.146  35.161  1.00  0.00     0.038 A 
BRANCH  17  21
HETATM   21  C15 UNK     1      15.891   7.787  31.594  1.00  0.00     0.302 C 
HETATM   22  O6  UNK     1      16.470   8.225  30.573  1.00  0.00    -0.259 OA
BRANCH  21  23
HETATM   23  O5  UNK     1      14.866   6.869  31.516  1.00  0.00    -0.322 OA
HETATM   24  C17 UNK     1      13.628   7.191  32.159  1.00  0.00     0.213 C 
ENDBRANCH  21  23
ENDBRANCH  17  21
ENDBRANCH  14  16
ENDBRANCH   5  12
BRANCH   7  25
HETATM   25  O2  UNK     1      18.316  -0.873  32.437  1.00  0.00    -0.353 OA
HETATM   26  C16 UNK     1      19.540  -1.463  31.998  1.00  0.00     0.210 C 
ENDBRANCH   7  25
TORSDOF 5
ENDMDL
MODEL 9
REMARK VINA RESULT:      -8.1      2.715      3.914
REMARK  5 active torsions:
REMARK  status: ('A' for Active; 'I' for Inactive)
REMARK    1  A    between atoms: C5_13  and  O2_3 
REMARK    2  A    between atoms: C15_23  and  O5_6 
REMARK       I    between atoms: C7_15  and  N1_8 
REMARK    3  A    between atoms: C9_17  and  N1_8 
REMARK    4  A    between atoms: C3_11  and  C7_15 
REMARK    5  A    between atoms: C12_20  and  C15_23 
ROOT
HETATM    1  O1  UNK     1      18.690  -0.065  33.067  1.00  0.00    -0.271 OA
HETATM    2  O4  UNK     1      18.164  -0.153  35.288  1.00  0.00    -0.259 OA
HETATM    3  C1  UNK     1      20.086  -1.801  32.094  1.00  0.00     0.002 A 
HETATM    4  C2  UNK     1      19.352  -0.627  31.958  1.00  0.00     0.123 A 
HETATM    5  C3  UNK     1      19.530  -1.898  34.450  1.00  0.00     0.108 A 
HETATM    6  C4  UNK     1      20.160  -2.437  33.400  1.00  0.00     0.037 A 
HETATM    7  C5  UNK     1      19.241   0.031  30.735  1.00  0.00     0.102 A 
HETATM    8  C6  UNK     1      20.727  -2.330  30.971  1.00  0.00     0.014 A 
HETATM    9  C8  UNK     1      18.742  -0.651  34.328  1.00  0.00     0.304 A 
HETATM   10  C10 UNK     1      19.884  -0.503  29.620  1.00  0.00     0.040 A 
HETATM   11  C11 UNK     1      20.625  -1.680  29.738  1.00  0.00     0.004 A 
ENDROOT
BRANCH   5  12
HETATM   12  C7  UNK     1      19.664  -2.613  35.726  1.00  0.00     0.262 C 
HETATM   13  O3  UNK     1      19.640  -1.983  36.782  1.00  0.00    -0.267 OA
HETATM   14  N1  UNK     1      19.811  -3.981  35.547  1.00  0.00    -0.321 N 
HETATM   15  H3  UNK     1      19.834  -4.346  34.600  1.00  0.00     0.169 HD
BRANCH  14  16
HETATM   16  C9  UNK     1      19.965  -4.971  36.548  1.00  0.00     0.058 A 
HETATM   17  C12 UNK     1      19.525  -6.245  36.383  1.00  0.00     0.106 A 
HETATM   18  S1  UNK     1      19.865  -7.191  37.770  1.00  0.00    -0.094 SA
HETATM   19  C14 UNK     1      20.600  -5.862  38.562  1.00  0.00     0.053 A 
HETATM   20  C13 UNK     1      20.584  -4.725  37.785  1.00  0.00     0.038 A 
BRANCH  17  21
HETATM   21  C15 UNK     1      18.861  -6.866  35.281  1.00  0.00     0.302 C 
HETATM   22  O6  UNK     1      17.690  -7.311  35.296  1.00  0.00    -0.259 OA
BRANCH  21  23
HETATM   23  O5  UNK     1      19.654  -6.934  34.155  1.00  0.00    -0.322 OA
HETATM   24  C17 UNK     1      20.839  -7.735  34.218  1.00  0.00     0.213 C 
ENDBRANCH  21  23
ENDBRANCH  17  21
ENDBRANCH  14  16
ENDBRANCH   5  12
BRANCH   7  25
HETATM   25  O2  UNK     1      18.520   1.178  30.617  1.00  0.00    -0.353 OA
HETATM   26  C16 UNK     1      18.335   1.697  29.300  1.00  0.00     0.210 C 
ENDBRANCH   7  25
TORSDOF 5
ENDMDL
MODEL 10
REMARK VINA RESULT:      -8.0      4.009      6.468
REMARK  5 active torsions:
REMARK  status: ('A' for Active; 'I' for Inactive)
REMARK    1  A    between atoms: C5_13  and  O2_3 
REMARK    2  A    between atoms: C15_23  and  O5_6 
REMARK       I    between atoms: C7_15  and  N1_8 
REMARK    3  A    between atoms: C9_17  and  N1_8 
REMARK    4  A    between atoms: C3_11  and  C7_15 
REMARK    5  A    between atoms: C12_20  and  C15_23 
ROOT
HETATM    1  O1  UNK     1      18.598   3.600  31.461  1.00  0.00    -0.271 OA
HETATM    2  O4  UNK     1      18.347   1.330  31.392  1.00  0.00    -0.259 OA
HETATM    3  C1  UNK     1      18.265   4.780  33.560  1.00  0.00     0.002 A 
HETATM    4  C2  UNK     1      18.572   4.797  32.203  1.00  0.00     0.123 A 
HETATM    5  C3  UNK     1      17.998   2.374  33.490  1.00  0.00     0.108 A 
HETATM    6  C4  UNK     1      17.972   3.508  34.200  1.00  0.00     0.037 A 
HETATM    7  C5  UNK     1      18.862   5.982  31.531  1.00  0.00     0.102 A 
HETATM    8  C6  UNK     1      18.251   5.988  34.263  1.00  0.00     0.014 A 
HETATM    9  C8  UNK     1      18.323   2.367  32.046  1.00  0.00     0.304 A 
HETATM   10  C10 UNK     1      18.845   7.182  32.239  1.00  0.00     0.040 A 
HETATM   11  C11 UNK     1      18.540   7.185  33.602  1.00  0.00     0.004 A 
ENDROOT
BRANCH   5  12
HETATM   12  C7  UNK     1      17.688   1.140  34.224  1.00  0.00     0.262 C 
HETATM   13  O3  UNK     1      16.568   0.641  34.131  1.00  0.00    -0.267 OA
HETATM   14  N1  UNK     1      18.769   0.686  34.967  1.00  0.00    -0.321 N 
HETATM   15  H3  UNK     1      19.626   1.230  34.956  1.00  0.00     0.169 HD
BRANCH  14  16
HETATM   16  C9  UNK     1      18.828  -0.464  35.790  1.00  0.00     0.058 A 
HETATM   17  C12 UNK     1      19.459  -1.603  35.403  1.00  0.00     0.106 A 
HETATM   18  S1  UNK     1      19.353  -2.803  36.621  1.00  0.00    -0.094 SA
HETATM   19  C14 UNK     1      18.460  -1.760  37.645  1.00  0.00     0.053 A 
HETATM   20  C13 UNK     1      18.248  -0.527  37.069  1.00  0.00     0.038 A 
BRANCH  17  21
HETATM   21  C15 UNK     1      20.156  -1.917  34.196  1.00  0.00     0.302 C 
HETATM   22  O6  UNK     1      21.301  -2.421  34.129  1.00  0.00    -0.259 OA
BRANCH  21  23
HETATM   23  O5  UNK     1      19.427  -1.606  33.068  1.00  0.00    -0.322 OA
HETATM   24  C17 UNK     1      20.078  -1.718  31.798  1.00  0.00     0.213 C 
ENDBRANCH  21  23
ENDBRANCH  17  21
ENDBRANCH  14  16
ENDBRANCH   5  12
BRANCH   7  25
HETATM   25  O2  UNK     1      19.160   5.983  30.204  1.00  0.00    -0.353 OA
HETATM   26  C16 UNK     1      20.542   5.956  29.847  1.00  0.00     0.210 C 
ENDBRANCH   7  25
TORSDOF 5
ENDMDL
