MODEL 1
REMARK VINA RESULT:      -8.4      0.000      0.000
REMARK  5 active torsions:
REMARK  status: ('A' for Active; 'I' for Inactive)
REMARK    1  A    between atoms: C11_17  and  O2_2 
REMARK    2  A    between atoms: C13_19  and  O3_3 
REMARK    3  A    between atoms: C12_18  and  O4_4 
REMARK    4  A    between atoms: C18_24  and  O4_4 
REMARK    5  A    between atoms: C1_7  and  C3_9 
ROOT
HETATM    1  O1  UNK     1      19.000   2.895  30.729  1.00  0.00    -0.274 OA
HETATM    2  O5  UNK     1      18.936   5.072  30.052  1.00  0.00    -0.259 OA
HETATM    3  C1  UNK     1      18.309   4.646  32.307  1.00  0.00     0.051 A 
HETATM    4  C2  UNK     1      18.355   2.311  32.995  1.00  0.00    -0.001 A 
HETATM    5  C4  UNK     1      18.120   3.721  33.261  1.00  0.00     0.032 A 
HETATM    6  C5  UNK     1      18.793   1.931  31.732  1.00  0.00     0.092 A 
HETATM    7  C6  UNK     1      18.771   4.251  30.948  1.00  0.00     0.299 A 
HETATM    8  C8  UNK     1      18.158   1.325  33.965  1.00  0.00     0.017 A 
HETATM    9  C10 UNK     1      19.041   0.598  31.412  1.00  0.00     0.075 A 
HETATM   10  C12 UNK     1      18.842  -0.380  32.385  1.00  0.00     0.081 A 
HETATM   11  C14 UNK     1      18.401  -0.016  33.659  1.00  0.00     0.038 A 
ENDROOT
BRANCH   3  12
HETATM   12  C3  UNK     1      18.072   6.065  32.630  1.00  0.00    -0.017 A 
HETATM   13  C7  UNK     1      16.834   6.645  32.357  1.00  0.00     0.052 A 
HETATM   14  C11 UNK     1      16.610   7.988  32.662  1.00  0.00     0.102 A 
HETATM   15  C13 UNK     1      17.625   8.749  33.241  1.00  0.00     0.101 A 
HETATM   16  C15 UNK     1      18.864   8.169  33.514  1.00  0.00     0.040 A 
HETATM   17  C9  UNK     1      19.088   6.826  33.209  1.00  0.00     0.015 A 
BRANCH  14  18
HETATM   18  O2  UNK     1      15.396   8.544  32.391  1.00  0.00    -0.353 OA
HETATM   19  C16 UNK     1      14.245   7.739  32.640  1.00  0.00     0.210 C 
ENDBRANCH  14  18
BRANCH  15  20
HETATM   20  O3  UNK     1      17.419  10.061  33.545  1.00  0.00    -0.353 OA
HETATM   21  C17 UNK     1      18.555  10.817  33.961  1.00  0.00     0.210 C 
ENDBRANCH  15  20
ENDBRANCH   3  12
BRANCH  10  22
HETATM   22  O4  UNK     1      19.078  -1.688  32.094  1.00  0.00    -0.279 OA
BRANCH  22  23
HETATM   23  C18 UNK     1      20.423  -1.980  31.816  1.00  0.00     0.260 C 
HETATM   24  O6  UNK     1      21.356  -1.873  32.601  1.00  0.00    -0.265 OA
HETATM   25  C19 UNK     1      20.565  -2.449  30.398  1.00  0.00     0.126 C 
ENDBRANCH  22  23
ENDBRANCH  10  22
TORSDOF 5
ENDMDL
MODEL 2
REMARK VINA RESULT:      -8.2      2.538      9.179
REMARK  5 active torsions:
REMARK  status: ('A' for Active; 'I' for Inactive)
REMARK    1  A    between atoms: C11_17  and  O2_2 
REMARK    2  A    between atoms: C13_19  and  O3_3 
REMARK    3  A    between atoms: C12_18  and  O4_4 
REMARK    4  A    between atoms: C18_24  and  O4_4 
REMARK    5  A    between atoms: C1_7  and  C3_9 
ROOT
HETATM    1  O1  UNK     1      18.622   8.951  33.828  1.00  0.00    -0.274 OA
HETATM    2  O5  UNK     1      20.068   7.234  33.426  1.00  0.00    -0.259 OA
HETATM    3  C1  UNK     1      17.903   7.042  32.461  1.00  0.00     0.051 A 
HETATM    4  C2  UNK     1      16.368   8.872  32.932  1.00  0.00    -0.001 A 
HETATM    5  C4  UNK     1      16.689   7.595  32.314  1.00  0.00     0.032 A 
HETATM    6  C5  UNK     1      17.345   9.523  33.674  1.00  0.00     0.092 A 
HETATM    7  C6  UNK     1      18.956   7.724  33.260  1.00  0.00     0.299 A 
HETATM    8  C8  UNK     1      15.111   9.468  32.802  1.00  0.00     0.017 A 
HETATM    9  C10 UNK     1      17.106  10.749  34.289  1.00  0.00     0.075 A 
HETATM   10  C12 UNK     1      15.849  11.338  34.155  1.00  0.00     0.081 A 
HETATM   11  C14 UNK     1      14.854  10.698  33.414  1.00  0.00     0.038 A 
ENDROOT
BRANCH   3  12
HETATM   12  C3  UNK     1      18.185   5.753  31.803  1.00  0.00    -0.017 A 
HETATM   13  C7  UNK     1      17.864   4.557  32.444  1.00  0.00     0.052 A 
HETATM   14  C11 UNK     1      18.132   3.338  31.821  1.00  0.00     0.102 A 
HETATM   15  C13 UNK     1      18.720   3.316  30.556  1.00  0.00     0.101 A 
HETATM   16  C15 UNK     1      19.041   4.513  29.915  1.00  0.00     0.040 A 
HETATM   17  C9  UNK     1      18.773   5.732  30.538  1.00  0.00     0.015 A 
BRANCH  14  18
HETATM   18  O2  UNK     1      17.814   2.175  32.457  1.00  0.00    -0.353 OA
HETATM   19  C16 UNK     1      18.124   2.091  33.846  1.00  0.00     0.210 C 
ENDBRANCH  14  18
BRANCH  15  20
HETATM   20  O3  UNK     1      18.986   2.132  29.937  1.00  0.00    -0.353 OA
HETATM   21  C17 UNK     1      18.225   1.826  28.770  1.00  0.00     0.210 C 
ENDBRANCH  15  20
ENDBRANCH   3  12
BRANCH  10  22
HETATM   22  O4  UNK     1      15.593  12.536  34.747  1.00  0.00    -0.279 OA
BRANCH  22  23
HETATM   23  C18 UNK     1      15.314  12.449  36.121  1.00  0.00     0.260 C 
HETATM   24  O6  UNK     1      14.658  11.570  36.664  1.00  0.00    -0.265 OA
HETATM   25  C19 UNK     1      15.941  13.603  36.847  1.00  0.00     0.126 C 
ENDBRANCH  22  23
ENDBRANCH  10  22
TORSDOF 5
ENDMDL
MODEL 3
REMARK VINA RESULT:      -8.1      1.746      2.165
REMARK  5 active torsions:
REMARK  status: ('A' for Active; 'I' for Inactive)
REMARK    1  A    between atoms: C11_17  and  O2_2 
REMARK    2  A    between atoms: C13_19  and  O3_3 
REMARK    3  A    between atoms: C12_18  and  O4_4 
REMARK    4  A    between atoms: C18_24  and  O4_4 
REMARK    5  A    between atoms: C1_7  and  C3_9 
ROOT
HETATM    1  O1  UNK     1      18.250   1.942  32.444  1.00  0.00    -0.274 OA
HETATM    2  O5  UNK     1      17.962   3.797  31.149  1.00  0.00    -0.259 OA
HETATM    3  C1  UNK     1      18.177   4.163  33.489  1.00  0.00     0.051 A 
HETATM    4  C2  UNK     1      18.450   2.165  34.853  1.00  0.00    -0.001 A 
HETATM    5  C4  UNK     1      18.333   3.606  34.701  1.00  0.00     0.032 A 
HETATM    6  C5  UNK     1      18.408   1.365  33.717  1.00  0.00     0.092 A 
HETATM    7  C6  UNK     1      18.122   3.317  32.266  1.00  0.00     0.299 A 
HETATM    8  C8  UNK     1      18.606   1.556  36.100  1.00  0.00     0.017 A 
HETATM    9  C10 UNK     1      18.517  -0.022  33.792  1.00  0.00     0.075 A 
HETATM   10  C12 UNK     1      18.672  -0.622  35.040  1.00  0.00     0.081 A 
HETATM   11  C14 UNK     1      18.716   0.166  36.192  1.00  0.00     0.038 A 
ENDROOT
BRANCH   3  12
HETATM   12  C3  UNK     1      18.078   5.631  33.385  1.00  0.00    -0.017 A 
HETATM   13  C7  UNK     1      16.870   6.225  33.023  1.00  0.00     0.052 A 
HETATM   14  C11 UNK     1      16.777   7.613  32.923  1.00  0.00     0.102 A 
HETATM   15  C13 UNK     1      17.894   8.407  33.188  1.00  0.00     0.101 A 
HETATM   16  C15 UNK     1      19.102   7.812  33.550  1.00  0.00     0.040 A 
HETATM   17  C9  UNK     1      19.195   6.424  33.649  1.00  0.00     0.015 A 
BRANCH  14  18
HETATM   18  O2  UNK     1      15.591   8.183  32.569  1.00  0.00    -0.353 OA
HETATM   19  C16 UNK     1      14.613   7.330  31.979  1.00  0.00     0.210 C 
ENDBRANCH  14  18
BRANCH  15  20
HETATM   20  O3  UNK     1      17.816   9.764  33.095  1.00  0.00    -0.353 OA
HETATM   21  C17 UNK     1      18.607  10.522  34.009  1.00  0.00     0.210 C 
ENDBRANCH  15  20
ENDBRANCH   3  12
BRANCH  10  22
HETATM   22  O4  UNK     1      18.781  -1.975  35.136  1.00  0.00    -0.279 OA
BRANCH  22  23
HETATM   23  C18 UNK     1      20.096  -2.432  35.324  1.00  0.00     0.260 C 
HETATM   24  O6  UNK     1      21.027  -2.274  34.544  1.00  0.00    -0.265 OA
HETATM   25  C19 UNK     1      20.207  -3.155  36.633  1.00  0.00     0.126 C 
ENDBRANCH  22  23
ENDBRANCH  10  22
TORSDOF 5
ENDMDL
MODEL 4
REMARK VINA RESULT:      -7.9      1.873      8.877
REMARK  5 active torsions:
REMARK  status: ('A' for Active; 'I' for Inactive)
REMARK    1  A    between atoms: C11_17  and  O2_2 
REMARK    2  A    between atoms: C13_19  and  O3_3 
REMARK    3  A    between atoms: C12_18  and  O4_4 
REMARK    4  A    between atoms: C18_24  and  O4_4 
REMARK    5  A    between atoms: C1_7  and  C3_9 
ROOT
HETATM    1  O1  UNK     1      16.783   7.994  32.905  1.00  0.00    -0.274 OA
HETATM    2  O5  UNK     1      15.876   6.107  32.002  1.00  0.00    -0.259 OA
HETATM    3  C1  UNK     1      18.170   5.988  32.620  1.00  0.00     0.051 A 
HETATM    4  C2  UNK     1      19.123   8.026  33.550  1.00  0.00    -0.001 A 
HETATM    5  C4  UNK     1      19.229   6.638  33.128  1.00  0.00     0.032 A 
HETATM    6  C5  UNK     1      17.899   8.672  33.431  1.00  0.00     0.092 A 
HETATM    7  C6  UNK     1      16.856   6.671  32.479  1.00  0.00     0.299 A 
HETATM    8  C8  UNK     1      20.209   8.730  34.075  1.00  0.00     0.017 A 
HETATM    9  C10 UNK     1      17.728   9.999  33.820  1.00  0.00     0.075 A 
HETATM   10  C12 UNK     1      18.816  10.695  34.342  1.00  0.00     0.081 A 
HETATM   11  C14 UNK     1      20.054  10.062  34.469  1.00  0.00     0.038 A 
ENDROOT
BRANCH   3  12
HETATM   12  C3  UNK     1      18.323   4.577  32.220  1.00  0.00    -0.017 A 
HETATM   13  C7  UNK     1      18.103   3.560  33.148  1.00  0.00     0.052 A 
HETATM   14  C11 UNK     1      18.248   2.226  32.770  1.00  0.00     0.102 A 
HETATM   15  C13 UNK     1      18.613   1.909  31.461  1.00  0.00     0.101 A 
HETATM   16  C15 UNK     1      18.835   2.926  30.533  1.00  0.00     0.040 A 
HETATM   17  C9  UNK     1      18.689   4.260  30.911  1.00  0.00     0.015 A 
BRANCH  14  18
HETATM   18  O2  UNK     1      18.029   1.241  33.685  1.00  0.00    -0.353 OA
HETATM   19  C16 UNK     1      18.286   1.558  35.052  1.00  0.00     0.210 C 
ENDBRANCH  14  18
BRANCH  15  20
HETATM   20  O3  UNK     1      18.758   0.609  31.079  1.00  0.00    -0.353 OA
HETATM   21  C17 UNK     1      19.956   0.267  30.383  1.00  0.00     0.210 C 
ENDBRANCH  15  20
ENDBRANCH   3  12
BRANCH  10  22
HETATM   22  O4  UNK     1      18.672  11.992  34.729  1.00  0.00    -0.279 OA
BRANCH  22  23
HETATM   23  C18 UNK     1      18.360  12.872  33.680  1.00  0.00     0.260 C 
HETATM   24  O6  UNK     1      19.026  13.043  32.667  1.00  0.00    -0.265 OA
HETATM   25  C19 UNK     1      17.076  13.589  33.975  1.00  0.00     0.126 C 
ENDBRANCH  22  23
ENDBRANCH  10  22
TORSDOF 5
ENDMDL
MODEL 5
REMARK VINA RESULT:      -7.7      1.054      2.060
REMARK  5 active torsions:
REMARK  status: ('A' for Active; 'I' for Inactive)
REMARK    1  A    between atoms: C11_17  and  O2_2 
REMARK    2  A    between atoms: C13_19  and  O3_3 
REMARK    3  A    between atoms: C12_18  and  O4_4 
REMARK    4  A    between atoms: C18_24  and  O4_4 
REMARK    5  A    between atoms: C1_7  and  C3_9 
ROOT
HETATM    1  O1  UNK     1      18.883   3.460  30.526  1.00  0.00    -0.274 OA
HETATM    2  O5  UNK     1      18.682   5.648  29.918  1.00  0.00    -0.259 OA
HETATM    3  C1  UNK     1      18.032   5.103  32.140  1.00  0.00     0.051 A 
HETATM    4  C2  UNK     1      18.226   2.755  32.754  1.00  0.00    -0.001 A 
HETATM    5  C4  UNK     1      17.885   4.136  33.059  1.00  0.00     0.032 A 
HETATM    6  C5  UNK     1      18.720   2.449  31.492  1.00  0.00     0.092 A 
HETATM    7  C6  UNK     1      18.553   4.788  30.783  1.00  0.00     0.299 A 
HETATM    8  C8  UNK     1      18.076   1.726  33.687  1.00  0.00     0.017 A 
HETATM    9  C10 UNK     1      19.070   1.149  31.136  1.00  0.00     0.075 A 
HETATM   10  C12 UNK     1      18.917   0.128  32.072  1.00  0.00     0.081 A 
HETATM   11  C14 UNK     1      18.420   0.416  33.345  1.00  0.00     0.038 A 
ENDROOT
BRANCH   3  12
HETATM   12  C3  UNK     1      17.687   6.491  32.502  1.00  0.00    -0.017 A 
HETATM   13  C7  UNK     1      18.607   7.281  33.190  1.00  0.00     0.052 A 
HETATM   14  C11 UNK     1      18.280   8.593  33.533  1.00  0.00     0.102 A 
HETATM   15  C13 UNK     1      17.033   9.114  33.186  1.00  0.00     0.101 A 
HETATM   16  C15 UNK     1      16.113   8.322  32.499  1.00  0.00     0.040 A 
HETATM   17  C9  UNK     1      16.440   7.010  32.156  1.00  0.00     0.015 A 
BRANCH  14  18
HETATM   18  O2  UNK     1      19.187   9.357  34.204  1.00  0.00    -0.353 OA
HETATM   19  C16 UNK     1      20.515   8.849  34.303  1.00  0.00     0.210 C 
ENDBRANCH  14  18
BRANCH  15  20
HETATM   20  O3  UNK     1      16.702  10.394  33.515  1.00  0.00    -0.353 OA
HETATM   21  C17 UNK     1      15.318  10.675  33.715  1.00  0.00     0.210 C 
ENDBRANCH  15  20
ENDBRANCH   3  12
BRANCH  10  22
HETATM   22  O4  UNK     1      19.252  -1.150  31.746  1.00  0.00    -0.279 OA
BRANCH  22  23
HETATM   23  C18 UNK     1      20.524  -1.279  31.164  1.00  0.00     0.260 C 
HETATM   24  O6  UNK     1      21.568  -0.831  31.619  1.00  0.00    -0.265 OA
HETATM   25  C19 UNK     1      20.427  -2.055  29.883  1.00  0.00     0.126 C 
ENDBRANCH  22  23
ENDBRANCH  10  22
TORSDOF 5
ENDMDL
MODEL 6
REMARK VINA RESULT:      -7.6      4.747     10.201
REMARK  5 active torsions:
REMARK  status: ('A' for Active; 'I' for Inactive)
REMARK    1  A    between atoms: C11_17  and  O2_2 
REMARK    2  A    between atoms: C13_19  and  O3_3 
REMARK    3  A    between atoms: C12_18  and  O4_4 
REMARK    4  A    between atoms: C18_24  and  O4_4 
REMARK    5  A    between atoms: C1_7  and  C3_9 
ROOT
HETATM    1  O1  UNK     1      18.890  -0.343  33.643  1.00  0.00    -0.274 OA
HETATM    2  O5  UNK     1      18.511  -0.992  35.797  1.00  0.00    -0.259 OA
HETATM    3  C1  UNK     1      19.847  -2.448  34.472  1.00  0.00     0.051 A 
HETATM    4  C2  UNK     1      20.209  -1.749  32.168  1.00  0.00    -0.001 A 
HETATM    5  C4  UNK     1      20.394  -2.681  33.269  1.00  0.00     0.032 A 
HETATM    6  C5  UNK     1      19.461  -0.598  32.382  1.00  0.00     0.092 A 
HETATM    7  C6  UNK     1      19.037  -1.222  34.713  1.00  0.00     0.299 A 
HETATM    8  C8  UNK     1      20.760  -1.969  30.903  1.00  0.00     0.017 A 
HETATM    9  C10 UNK     1      19.248   0.338  31.373  1.00  0.00     0.075 A 
HETATM   10  C12 UNK     1      19.800   0.111  30.114  1.00  0.00     0.081 A 
HETATM   11  C14 UNK     1      20.554  -1.041  29.879  1.00  0.00     0.038 A 
ENDROOT
BRANCH   3  12
HETATM   12  C3  UNK     1      20.076  -3.415  35.561  1.00  0.00    -0.017 A 
HETATM   13  C7  UNK     1      19.831  -4.772  35.352  1.00  0.00     0.052 A 
HETATM   14  C11 UNK     1      20.046  -5.687  36.382  1.00  0.00     0.102 A 
HETATM   15  C13 UNK     1      20.509  -5.244  37.622  1.00  0.00     0.101 A 
HETATM   16  C15 UNK     1      20.753  -3.887  37.831  1.00  0.00     0.040 A 
HETATM   17  C9  UNK     1      20.537  -2.972  36.800  1.00  0.00     0.015 A 
BRANCH  14  18
HETATM   18  O2  UNK     1      19.805  -7.010  36.166  1.00  0.00    -0.353 OA
HETATM   19  C16 UNK     1      20.770  -7.729  35.402  1.00  0.00     0.210 C 
ENDBRANCH  14  18
BRANCH  15  20
HETATM   20  O3  UNK     1      20.724  -6.128  38.636  1.00  0.00    -0.353 OA
HETATM   21  C17 UNK     1      22.069  -6.550  38.853  1.00  0.00     0.210 C 
ENDBRANCH  15  20
ENDBRANCH   3  12
BRANCH  10  22
HETATM   22  O4  UNK     1      19.605   1.012  29.113  1.00  0.00    -0.279 OA
BRANCH  22  23
HETATM   23  C18 UNK     1      18.411   1.744  29.224  1.00  0.00     0.260 C 
HETATM   24  O6  UNK     1      17.294   1.340  28.929  1.00  0.00    -0.265 OA
HETATM   25  C19 UNK     1      18.697   3.114  29.763  1.00  0.00     0.126 C 
ENDBRANCH  22  23
ENDBRANCH  10  22
TORSDOF 5
ENDMDL
MODEL 7
REMARK VINA RESULT:      -7.5     15.566     19.581
REMARK  5 active torsions:
REMARK  status: ('A' for Active; 'I' for Inactive)
REMARK    1  A    between atoms: C11_17  and  O2_2 
REMARK    2  A    between atoms: C13_19  and  O3_3 
REMARK    3  A    between atoms: C12_18  and  O4_4 
REMARK    4  A    between atoms: C18_24  and  O4_4 
REMARK    5  A    between atoms: C1_7  and  C3_9 
ROOT
HETATM    1  O1  UNK     1      19.372   0.160  14.650  1.00  0.00    -0.274 OA
HETATM    2  O5  UNK     1      19.591  -1.259  12.878  1.00  0.00    -0.259 OA
HETATM    3  C1  UNK     1      19.199  -2.265  14.998  1.00  0.00     0.051 A 
HETATM    4  C2  UNK     1      19.002  -0.730  16.878  1.00  0.00    -0.001 A 
HETATM    5  C4  UNK     1      19.011  -2.070  16.313  1.00  0.00     0.032 A 
HETATM    6  C5  UNK     1      19.181   0.356  16.030  1.00  0.00     0.092 A 
HETATM    7  C6  UNK     1      19.399  -1.110  14.081  1.00  0.00     0.299 A 
HETATM    8  C8  UNK     1      18.817  -0.497  18.243  1.00  0.00     0.017 A 
HETATM    9  C10 UNK     1      19.180   1.666  16.505  1.00  0.00     0.075 A 
HETATM   10  C12 UNK     1      18.995   1.891  17.868  1.00  0.00     0.081 A 
HETATM   11  C14 UNK     1      18.815   0.811  18.735  1.00  0.00     0.038 A 
ENDROOT
BRANCH   3  12
HETATM   12  C3  UNK     1      19.184  -3.642  14.471  1.00  0.00    -0.017 A 
HETATM   13  C7  UNK     1      17.981  -4.339  14.373  1.00  0.00     0.052 A 
HETATM   14  C11 UNK     1      17.968  -5.642  13.875  1.00  0.00     0.102 A 
HETATM   15  C13 UNK     1      19.159  -6.246  13.473  1.00  0.00     0.101 A 
HETATM   16  C15 UNK     1      20.363  -5.548  13.571  1.00  0.00     0.040 A 
HETATM   17  C9  UNK     1      20.376  -4.246  14.070  1.00  0.00     0.015 A 
BRANCH  14  18
HETATM   18  O2  UNK     1      16.786  -6.313  13.783  1.00  0.00    -0.353 OA
HETATM   19  C16 UNK     1      16.313  -6.957  14.965  1.00  0.00     0.210 C 
ENDBRANCH  14  18
BRANCH  15  20
HETATM   20  O3  UNK     1      19.159  -7.518  12.984  1.00  0.00    -0.353 OA
HETATM   21  C17 UNK     1      19.249  -7.667  11.568  1.00  0.00     0.210 C 
ENDBRANCH  15  20
ENDBRANCH   3  12
BRANCH  10  22
HETATM   22  O4  UNK     1      18.990   3.162  18.354  1.00  0.00    -0.279 OA
BRANCH  22  23
HETATM   23  C18 UNK     1      20.149   3.507  19.068  1.00  0.00     0.260 C 
HETATM   24  O6  UNK     1      20.503   3.024  20.135  1.00  0.00    -0.265 OA
HETATM   25  C19 UNK     1      20.907   4.572  18.332  1.00  0.00     0.126 C 
ENDBRANCH  22  23
ENDBRANCH  10  22
TORSDOF 5
ENDMDL
MODEL 8
REMARK VINA RESULT:      -7.4      1.998      8.836
REMARK  5 active torsions:
REMARK  status: ('A' for Active; 'I' for Inactive)
REMARK    1  A    between atoms: C11_17  and  O2_2 
REMARK    2  A    between atoms: C13_19  and  O3_3 
REMARK    3  A    between atoms: C12_18  and  O4_4 
REMARK    4  A    between atoms: C18_24  and  O4_4 
REMARK    5  A    between atoms: C1_7  and  C3_9 
ROOT
HETATM    1  O1  UNK     1      19.006   8.026  33.409  1.00  0.00    -0.274 OA
HETATM    2  O5  UNK     1      20.404   6.396  32.642  1.00  0.00    -0.259 OA
HETATM    3  C1  UNK     1      18.091   5.848  32.737  1.00  0.00     0.051 A 
HETATM    4  C2  UNK     1      16.624   7.594  33.590  1.00  0.00    -0.001 A 
HETATM    5  C4  UNK     1      16.855   6.260  33.059  1.00  0.00     0.032 A 
HETATM    6  C5  UNK     1      17.708   8.448  33.751  1.00  0.00     0.092 A 
HETATM    7  C6  UNK     1      19.261   6.751  32.912  1.00  0.00     0.299 A 
HETATM    8  C8  UNK     1      15.350   8.047  33.941  1.00  0.00     0.017 A 
HETATM    9  C10 UNK     1      17.556   9.740  34.250  1.00  0.00     0.075 A 
HETATM   10  C12 UNK     1      16.282  10.185  34.599  1.00  0.00     0.081 A 
HETATM   11  C14 UNK     1      15.182   9.339  34.445  1.00  0.00     0.038 A 
ENDROOT
BRANCH   3  12
HETATM   12  C3  UNK     1      18.273   4.492  32.187  1.00  0.00    -0.017 A 
HETATM   13  C7  UNK     1      18.275   3.389  33.040  1.00  0.00     0.052 A 
HETATM   14  C11 UNK     1      18.448   2.106  32.520  1.00  0.00     0.102 A 
HETATM   15  C13 UNK     1      18.616   1.927  31.147  1.00  0.00     0.101 A 
HETATM   16  C15 UNK     1      18.613   3.031  30.295  1.00  0.00     0.040 A 
HETATM   17  C9  UNK     1      18.441   4.314  30.814  1.00  0.00     0.015 A 
BRANCH  14  18
HETATM   18  O2  UNK     1      18.448   1.035  33.363  1.00  0.00    -0.353 OA
HETATM   19  C16 UNK     1      17.575   1.096  34.488  1.00  0.00     0.210 C 
ENDBRANCH  14  18
BRANCH  15  20
HETATM   20  O3  UNK     1      18.784   0.679  30.627  1.00  0.00    -0.353 OA
HETATM   21  C17 UNK     1      20.044   0.394  30.021  1.00  0.00     0.210 C 
ENDBRANCH  15  20
ENDBRANCH   3  12
BRANCH  10  22
HETATM   22  O4  UNK     1      16.111  11.443  35.089  1.00  0.00    -0.279 OA
BRANCH  22  23
HETATM   23  C18 UNK     1      16.238  12.456  34.125  1.00  0.00     0.260 C 
HETATM   24  O6  UNK     1      17.285  12.986  33.776  1.00  0.00    -0.265 OA
HETATM   25  C19 UNK     1      14.890  12.808  33.570  1.00  0.00     0.126 C 
ENDBRANCH  22  23
ENDBRANCH  10  22
TORSDOF 5
ENDMDL
MODEL 9
REMARK VINA RESULT:      -7.4     13.736     15.957
REMARK  5 active torsions:
REMARK  status: ('A' for Active; 'I' for Inactive)
REMARK    1  A    between atoms: C11_17  and  O2_2 
REMARK    2  A    between atoms: C13_19  and  O3_3 
REMARK    3  A    between atoms: C12_18  and  O4_4 
REMARK    4  A    between atoms: C18_24  and  O4_4 
REMARK    5  A    between atoms: C1_7  and  C3_9 
ROOT
HETATM    1  O1  UNK     1      25.701  -5.347  38.775  1.00  0.00    -0.274 OA
HETATM    2  O5  UNK     1      23.423  -5.236  38.770  1.00  0.00    -0.259 OA
HETATM    3  C1  UNK     1      24.378  -7.412  38.643  1.00  0.00     0.051 A 
HETATM    4  C2  UNK     1      26.810  -7.501  38.617  1.00  0.00    -0.001 A 
HETATM    5  C4  UNK     1      25.504  -8.139  38.589  1.00  0.00     0.032 A 
HETATM    6  C5  UNK     1      26.878  -6.116  38.712  1.00  0.00     0.092 A 
HETATM    7  C6  UNK     1      24.436  -5.928  38.737  1.00  0.00     0.299 A 
HETATM    8  C8  UNK     1      27.999  -8.231  38.554  1.00  0.00     0.017 A 
HETATM    9  C10 UNK     1      28.097  -5.442  38.747  1.00  0.00     0.075 A 
HETATM   10  C12 UNK     1      29.278  -6.177  38.683  1.00  0.00     0.081 A 
HETATM   11  C14 UNK     1      29.230  -7.570  38.587  1.00  0.00     0.038 A 
ENDROOT
BRANCH   3  12
HETATM   12  C3  UNK     1      23.077  -8.106  38.628  1.00  0.00    -0.017 A 
HETATM   13  C7  UNK     1      22.527  -8.530  37.418  1.00  0.00     0.052 A 
HETATM   14  C11 UNK     1      21.296  -9.186  37.404  1.00  0.00     0.102 A 
HETATM   15  C13 UNK     1      20.616  -9.419  38.600  1.00  0.00     0.101 A 
HETATM   16  C15 UNK     1      21.167  -8.995  39.809  1.00  0.00     0.040 A 
HETATM   17  C9  UNK     1      22.397  -8.338  39.824  1.00  0.00     0.015 A 
BRANCH  14  18
HETATM   18  O2  UNK     1      20.768  -9.597  36.217  1.00  0.00    -0.353 OA
HETATM   19  C16 UNK     1      21.644 -10.276  35.319  1.00  0.00     0.210 C 
ENDBRANCH  14  18
BRANCH  15  20
HETATM   20  O3  UNK     1      19.414 -10.060  38.599  1.00  0.00    -0.353 OA
HETATM   21  C17 UNK     1      19.431 -11.471  38.809  1.00  0.00     0.210 C 
ENDBRANCH  15  20
ENDBRANCH   3  12
BRANCH  10  22
HETATM   22  O4  UNK     1      30.480  -5.539  38.716  1.00  0.00    -0.279 OA
BRANCH  22  23
HETATM   23  C18 UNK     1      30.704  -4.682  37.626  1.00  0.00     0.260 C 
HETATM   24  O6  UNK     1      30.494  -3.477  37.607  1.00  0.00    -0.265 OA
HETATM   25  C19 UNK     1      31.246  -5.461  36.463  1.00  0.00     0.126 C 
ENDBRANCH  22  23
ENDBRANCH  10  22
TORSDOF 5
ENDMDL
MODEL 10
REMARK VINA RESULT:      -7.4      2.097      8.980
REMARK  5 active torsions:
REMARK  status: ('A' for Active; 'I' for Inactive)
REMARK    1  A    between atoms: C11_17  and  O2_2 
REMARK    2  A    between atoms: C13_19  and  O3_3 
REMARK    3  A    between atoms: C12_18  and  O4_4 
REMARK    4  A    between atoms: C18_24  and  O4_4 
REMARK    5  A    between atoms: C1_7  and  C3_9 
ROOT
HETATM    1  O1  UNK     1      19.280   8.084  33.588  1.00  0.00    -0.274 OA
HETATM    2  O5  UNK     1      20.519   6.195  33.271  1.00  0.00    -0.259 OA
HETATM    3  C1  UNK     1      18.167   5.899  33.465  1.00  0.00     0.051 A 
HETATM    4  C2  UNK     1      16.871   7.926  33.835  1.00  0.00    -0.001 A 
HETATM    5  C4  UNK     1      16.975   6.487  33.656  1.00  0.00     0.032 A 
HETATM    6  C5  UNK     1      18.029   8.693  33.794  1.00  0.00     0.092 A 
HETATM    7  C6  UNK     1      19.415   6.708  33.427  1.00  0.00     0.299 A 
HETATM    8  C8  UNK     1      15.646   8.565  34.044  1.00  0.00     0.017 A 
HETATM    9  C10 UNK     1      17.999  10.077  33.954  1.00  0.00     0.075 A 
HETATM   10  C12 UNK     1      16.774  10.707  34.163  1.00  0.00     0.081 A 
HETATM   11  C14 UNK     1      15.600   9.952  34.208  1.00  0.00     0.038 A 
ENDROOT
BRANCH   3  12
HETATM   12  C3  UNK     1      18.220   4.437  33.273  1.00  0.00    -0.017 A 
HETATM   13  C7  UNK     1      18.177   3.901  31.987  1.00  0.00     0.052 A 
HETATM   14  C11 UNK     1      18.226   2.519  31.806  1.00  0.00     0.102 A 
HETATM   15  C13 UNK     1      18.320   1.674  32.913  1.00  0.00     0.101 A 
HETATM   16  C15 UNK     1      18.362   2.211  34.199  1.00  0.00     0.040 A 
HETATM   17  C9  UNK     1      18.313   3.594  34.380  1.00  0.00     0.015 A 
BRANCH  14  18
HETATM   18  O2  UNK     1      18.185   2.005  30.545  1.00  0.00    -0.353 OA
HETATM   19  C16 UNK     1      18.595   2.863  29.482  1.00  0.00     0.210 C 
ENDBRANCH  14  18
BRANCH  15  20
HETATM   20  O3  UNK     1      18.369   0.322  32.749  1.00  0.00    -0.353 OA
HETATM   21  C17 UNK     1      18.234  -0.478  33.922  1.00  0.00     0.210 C 
ENDBRANCH  15  20
ENDBRANCH   3  12
BRANCH  10  22
HETATM   22  O4  UNK     1      16.721  12.057  34.322  1.00  0.00    -0.279 OA
BRANCH  22  23
HETATM   23  C18 UNK     1      15.750  12.489  35.240  1.00  0.00     0.260 C 
HETATM   24  O6  UNK     1      15.755  12.269  36.444  1.00  0.00    -0.265 OA
HETATM   25  C19 UNK     1      14.684  13.271  34.531  1.00  0.00     0.126 C 
ENDBRANCH  22  23
ENDBRANCH  10  22
TORSDOF 5
ENDMDL
