MODEL 1
REMARK VINA RESULT:      -8.1      0.000      0.000
REMARK  3 active torsions:
REMARK  status: ('A' for Active; 'I' for Inactive)
REMARK    1  A    between atoms: C15_19  and  O2_2 
REMARK    2  A    between atoms: C11_15  and  O4_4 
REMARK    3  A    between atoms: C2_6  and  C4_8 
ROOT
HETATM    1  O1  UNK     1      19.209   2.114  30.451  1.00  0.00    -0.309 OA
HETATM    2  O3  UNK     1      18.670  -0.246  33.728  1.00  0.00    -0.287 OA
HETATM    3  C1  UNK     1      19.410  -0.073  31.491  1.00  0.00     0.051 A 
HETATM    4  C2  UNK     1      18.657   2.609  31.621  1.00  0.00     0.090 A 
HETATM    5  C3  UNK     1      19.569   0.790  30.407  1.00  0.00     0.090 A 
HETATM    6  C5  UNK     1      18.834   0.453  32.738  1.00  0.00     0.187 A 
HETATM    7  C6  UNK     1      18.461   1.882  32.732  1.00  0.00     0.093 A 
HETATM    8  C7  UNK     1      19.795  -1.412  31.390  1.00  0.00     0.054 A 
HETATM    9  C8  UNK     1      20.114   0.317  29.214  1.00  0.00     0.041 A 
HETATM   10  C11 UNK     1      20.340  -1.882  30.195  1.00  0.00     0.066 A 
HETATM   11  C12 UNK     1      20.499  -1.020  29.109  1.00  0.00     0.039 A 
ENDROOT
BRANCH   4  12
HETATM   12  C4  UNK     1      18.312   4.044  31.562  1.00  0.00    -0.002 A 
HETATM   13  C10 UNK     1      17.546   4.624  32.577  1.00  0.00     0.017 A 
HETATM   14  C14 UNK     1      17.221   5.979  32.521  1.00  0.00     0.037 A 
HETATM   15  C15 UNK     1      17.659   6.759  31.451  1.00  0.00     0.068 A 
HETATM   16  C13 UNK     1      18.424   6.183  30.436  1.00  0.00     0.037 A 
HETATM   17  C9  UNK     1      18.750   4.828  30.491  1.00  0.00     0.017 A 
BRANCH  15  18
HETATM   18  O2  UNK     1      17.340   8.080  31.396  1.00  0.00    -0.356 OA
HETATM   19  C16 UNK     1      16.017   8.446  31.785  1.00  0.00     0.210 C 
ENDBRANCH  15  18
ENDBRANCH   4  12
BRANCH  10  20
HETATM   20  O4  UNK     1      20.717  -3.186  30.087  1.00  0.00    -0.361 OA
HETATM   21  H9  UNK     1      20.468  -3.655  30.902  1.00  0.00     0.217 HD
ENDBRANCH  10  20
TORSDOF 3
ENDMDL
MODEL 2
REMARK VINA RESULT:      -7.7      2.674      3.957
REMARK  3 active torsions:
REMARK  status: ('A' for Active; 'I' for Inactive)
REMARK    1  A    between atoms: C15_19  and  O2_2 
REMARK    2  A    between atoms: C11_15  and  O4_4 
REMARK    3  A    between atoms: C2_6  and  C4_8 
ROOT
HETATM    1  O1  UNK     1      18.338   3.817  34.470  1.00  0.00    -0.309 OA
HETATM    2  O3  UNK     1      18.219   1.656  31.018  1.00  0.00    -0.287 OA
HETATM    3  C1  UNK     1      18.350   1.647  33.378  1.00  0.00     0.051 A 
HETATM    4  C2  UNK     1      18.261   4.430  33.230  1.00  0.00     0.090 A 
HETATM    5  C3  UNK     1      18.385   2.446  34.519  1.00  0.00     0.090 A 
HETATM    6  C5  UNK     1      18.258   2.295  32.060  1.00  0.00     0.187 A 
HETATM    7  C6  UNK     1      18.213   3.771  32.061  1.00  0.00     0.093 A 
HETATM    8  C7  UNK     1      18.401   0.255  33.487  1.00  0.00     0.054 A 
HETATM    9  C8  UNK     1      18.471   1.857  35.780  1.00  0.00     0.041 A 
HETATM   10  C11 UNK     1      18.487  -0.332  34.750  1.00  0.00     0.066 A 
HETATM   11  C12 UNK     1      18.522   0.468  35.894  1.00  0.00     0.039 A 
ENDROOT
BRANCH   4  12
HETATM   12  C4  UNK     1      18.210   5.905  33.292  1.00  0.00    -0.002 A 
HETATM   13  C10 UNK     1      17.107   6.591  32.775  1.00  0.00     0.017 A 
HETATM   14  C14 UNK     1      17.058   7.983  32.834  1.00  0.00     0.037 A 
HETATM   15  C15 UNK     1      18.111   8.695  33.410  1.00  0.00     0.068 A 
HETATM   16  C13 UNK     1      19.213   8.013  33.926  1.00  0.00     0.037 A 
HETATM   17  C9  UNK     1      19.263   6.621  33.868  1.00  0.00     0.017 A 
BRANCH  15  18
HETATM   18  O2  UNK     1      18.063  10.054  33.465  1.00  0.00    -0.356 OA
HETATM   19  C16 UNK     1      16.934  10.639  34.112  1.00  0.00     0.210 C 
ENDBRANCH  15  18
ENDBRANCH   4  12
BRANCH  10  20
HETATM   20  O4  UNK     1      18.537  -1.687  34.867  1.00  0.00    -0.361 OA
HETATM   21  H9  UNK     1      19.356  -1.934  35.328  1.00  0.00     0.217 HD
ENDBRANCH  10  20
TORSDOF 3
ENDMDL
MODEL 3
REMARK VINA RESULT:      -7.7     13.359     16.457
REMARK  3 active torsions:
REMARK  status: ('A' for Active; 'I' for Inactive)
REMARK    1  A    between atoms: C15_19  and  O2_2 
REMARK    2  A    between atoms: C11_15  and  O4_4 
REMARK    3  A    between atoms: C2_6  and  C4_8 
ROOT
HETATM    1  O1  UNK     1      19.050  -0.653  17.441  1.00  0.00    -0.309 OA
HETATM    2  O3  UNK     1      19.356   3.349  16.747  1.00  0.00    -0.287 OA
HETATM    3  C1  UNK     1      19.222   1.601  18.330  1.00  0.00     0.051 A 
HETATM    4  C2  UNK     1      19.077  -0.138  16.155  1.00  0.00     0.090 A 
HETATM    5  C3  UNK     1      19.118   0.221  18.497  1.00  0.00     0.090 A 
HETATM    6  C5  UNK     1      19.262   2.150  16.966  1.00  0.00     0.187 A 
HETATM    7  C6  UNK     1      19.182   1.168  15.865  1.00  0.00     0.093 A 
HETATM    8  C7  UNK     1      19.288   2.444  19.442  1.00  0.00     0.054 A 
HETATM    9  C8  UNK     1      19.080  -0.326  19.779  1.00  0.00     0.041 A 
HETATM   10  C11 UNK     1      19.249   1.894  20.724  1.00  0.00     0.066 A 
HETATM   11  C12 UNK     1      19.145   0.512  20.892  1.00  0.00     0.039 A 
ENDROOT
BRANCH   4  12
HETATM   12  C4  UNK     1      19.004  -1.165  15.095  1.00  0.00    -0.002 A 
HETATM   13  C10 UNK     1      18.557  -2.454  15.398  1.00  0.00     0.017 A 
HETATM   14  C14 UNK     1      18.488  -3.423  14.398  1.00  0.00     0.037 A 
HETATM   15  C15 UNK     1      18.864  -3.108  13.092  1.00  0.00     0.068 A 
HETATM   16  C13 UNK     1      19.311  -1.822  12.787  1.00  0.00     0.037 A 
HETATM   17  C9  UNK     1      19.381  -0.852  13.787  1.00  0.00     0.017 A 
BRANCH  15  18
HETATM   18  O2  UNK     1      18.798  -4.055  12.117  1.00  0.00    -0.356 OA
HETATM   19  C16 UNK     1      19.063  -3.632  10.781  1.00  0.00     0.210 C 
ENDBRANCH  15  18
ENDBRANCH   4  12
BRANCH  10  20
HETATM   20  O4  UNK     1      19.313   2.708  21.814  1.00  0.00    -0.361 OA
HETATM   21  H9  UNK     1      18.854   3.542  21.613  1.00  0.00     0.217 HD
ENDBRANCH  10  20
TORSDOF 3
ENDMDL
MODEL 4
REMARK VINA RESULT:      -7.6     13.617     16.888
REMARK  3 active torsions:
REMARK  status: ('A' for Active; 'I' for Inactive)
REMARK    1  A    between atoms: C15_19  and  O2_2 
REMARK    2  A    between atoms: C11_15  and  O4_4 
REMARK    3  A    between atoms: C2_6  and  C4_8 
ROOT
HETATM    1  O1  UNK     1      19.079  -0.066  15.813  1.00  0.00    -0.309 OA
HETATM    2  O3  UNK     1      18.668  -0.456  19.847  1.00  0.00    -0.287 OA
HETATM    3  C1  UNK     1      19.105   0.966  18.011  1.00  0.00     0.051 A 
HETATM    4  C2  UNK     1      18.797  -1.289  16.400  1.00  0.00     0.090 A 
HETATM    5  C3  UNK     1      19.230   1.030  16.625  1.00  0.00     0.090 A 
HETATM    6  C5  UNK     1      18.796  -0.329  18.637  1.00  0.00     0.187 A 
HETATM    7  C6  UNK     1      18.646  -1.477  17.720  1.00  0.00     0.093 A 
HETATM    8  C7  UNK     1      19.269   2.115  18.789  1.00  0.00     0.054 A 
HETATM    9  C8  UNK     1      19.521   2.245  16.006  1.00  0.00     0.041 A 
HETATM   10  C11 UNK     1      19.560   3.329  18.168  1.00  0.00     0.066 A 
HETATM   11  C12 UNK     1      19.687   3.395  16.779  1.00  0.00     0.039 A 
ENDROOT
BRANCH   4  12
HETATM   12  C4  UNK     1      18.649  -2.398  15.436  1.00  0.00    -0.002 A 
HETATM   13  C10 UNK     1      19.223  -2.303  14.165  1.00  0.00     0.017 A 
HETATM   14  C14 UNK     1      19.083  -3.351  13.255  1.00  0.00     0.037 A 
HETATM   15  C15 UNK     1      18.371  -4.496  13.611  1.00  0.00     0.068 A 
HETATM   16  C13 UNK     1      17.797  -4.593  14.879  1.00  0.00     0.037 A 
HETATM   17  C9  UNK     1      17.936  -3.546  15.790  1.00  0.00     0.017 A 
BRANCH  15  18
HETATM   18  O2  UNK     1      18.234  -5.516  12.721  1.00  0.00    -0.356 OA
HETATM   19  C16 UNK     1      17.825  -6.780  13.240  1.00  0.00     0.210 C 
ENDBRANCH  15  18
ENDBRANCH   4  12
BRANCH  10  20
HETATM   20  O4  UNK     1      19.722   4.454  18.918  1.00  0.00    -0.361 OA
HETATM   21  H9  UNK     1      18.867   4.910  18.992  1.00  0.00     0.217 HD
ENDBRANCH  10  20
TORSDOF 3
ENDMDL
MODEL 5
REMARK VINA RESULT:      -7.6      2.329      7.866
REMARK  3 active torsions:
REMARK  status: ('A' for Active; 'I' for Inactive)
REMARK    1  A    between atoms: C15_19  and  O2_2 
REMARK    2  A    between atoms: C11_15  and  O4_4 
REMARK    3  A    between atoms: C2_6  and  C4_8 
ROOT
HETATM    1  O1  UNK     1      16.716   5.802  32.373  1.00  0.00    -0.309 OA
HETATM    2  O3  UNK     1      19.411   7.396  34.978  1.00  0.00    -0.287 OA
HETATM    3  C1  UNK     1      17.216   7.430  34.105  1.00  0.00     0.051 A 
HETATM    4  C2  UNK     1      18.017   5.332  32.451  1.00  0.00     0.090 A 
HETATM    5  C3  UNK     1      16.344   6.838  33.193  1.00  0.00     0.090 A 
HETATM    6  C5  UNK     1      18.595   6.927  34.198  1.00  0.00     0.187 A 
HETATM    7  C6  UNK     1      18.946   5.814  33.292  1.00  0.00     0.093 A 
HETATM    8  C7  UNK     1      16.783   8.482  34.916  1.00  0.00     0.054 A 
HETATM    9  C8  UNK     1      15.031   7.295  33.086  1.00  0.00     0.041 A 
HETATM   10  C11 UNK     1      15.469   8.937  34.807  1.00  0.00     0.066 A 
HETATM   11  C12 UNK     1      14.594   8.346  33.893  1.00  0.00     0.039 A 
ENDROOT
BRANCH   4  12
HETATM   12  C4  UNK     1      18.308   4.214  31.531  1.00  0.00    -0.002 A 
HETATM   13  C10 UNK     1      18.279   2.897  31.997  1.00  0.00     0.017 A 
HETATM   14  C14 UNK     1      18.553   1.841  31.127  1.00  0.00     0.037 A 
HETATM   15  C15 UNK     1      18.858   2.098  29.791  1.00  0.00     0.068 A 
HETATM   16  C13 UNK     1      18.887   3.412  29.323  1.00  0.00     0.037 A 
HETATM   17  C9  UNK     1      18.613   4.468  30.191  1.00  0.00     0.017 A 
BRANCH  15  18
HETATM   18  O2  UNK     1      19.127   1.068  28.944  1.00  0.00    -0.356 OA
HETATM   19  C16 UNK     1      20.154   0.158  29.333  1.00  0.00     0.210 C 
ENDBRANCH  15  18
ENDBRANCH   4  12
BRANCH  10  20
HETATM   20  O4  UNK     1      15.038   9.962  35.593  1.00  0.00    -0.361 OA
HETATM   21  H9  UNK     1      14.068   9.926  35.655  1.00  0.00     0.217 HD
ENDBRANCH  10  20
TORSDOF 3
ENDMDL
MODEL 6
REMARK VINA RESULT:      -7.6      2.765      8.628
REMARK  3 active torsions:
REMARK  status: ('A' for Active; 'I' for Inactive)
REMARK    1  A    between atoms: C15_19  and  O2_2 
REMARK    2  A    between atoms: C11_15  and  O4_4 
REMARK    3  A    between atoms: C2_6  and  C4_8 
ROOT
HETATM    1  O1  UNK     1      16.989   7.445  32.364  1.00  0.00    -0.309 OA
HETATM    2  O3  UNK     1      19.900   9.224  34.591  1.00  0.00    -0.287 OA
HETATM    3  C1  UNK     1      17.687   9.302  33.767  1.00  0.00     0.051 A 
HETATM    4  C2  UNK     1      18.247   6.881  32.501  1.00  0.00     0.090 A 
HETATM    5  C3  UNK     1      16.736   8.639  32.993  1.00  0.00     0.090 A 
HETATM    6  C5  UNK     1      19.020   8.700  33.923  1.00  0.00     0.187 A 
HETATM    7  C6  UNK     1      19.242   7.417  33.225  1.00  0.00     0.093 A 
HETATM    8  C7  UNK     1      17.374  10.515  34.385  1.00  0.00     0.054 A 
HETATM    9  C8  UNK     1      15.464   9.187  32.830  1.00  0.00     0.041 A 
HETATM   10  C11 UNK     1      16.101  11.061  34.221  1.00  0.00     0.066 A 
HETATM   11  C12 UNK     1      15.148  10.399  33.444  1.00  0.00     0.039 A 
ENDROOT
BRANCH   4  12
HETATM   12  C4  UNK     1      18.409   5.596  31.790  1.00  0.00    -0.002 A 
HETATM   13  C10 UNK     1      18.057   4.398  32.418  1.00  0.00     0.017 A 
HETATM   14  C14 UNK     1      18.209   3.186  31.747  1.00  0.00     0.037 A 
HETATM   15  C15 UNK     1      18.714   3.166  30.447  1.00  0.00     0.068 A 
HETATM   16  C13 UNK     1      19.066   4.360  29.817  1.00  0.00     0.037 A 
HETATM   17  C9  UNK     1      18.914   5.573  30.487  1.00  0.00     0.017 A 
BRANCH  15  18
HETATM   18  O2  UNK     1      18.864   1.981  29.793  1.00  0.00    -0.356 OA
HETATM   19  C16 UNK     1      17.990   1.731  28.694  1.00  0.00     0.210 C 
ENDBRANCH  15  18
ENDBRANCH   4  12
BRANCH  10  20
HETATM   20  O4  UNK     1      15.787  12.244  34.818  1.00  0.00    -0.361 OA
HETATM   21  H9  UNK     1      14.998  12.615  34.388  1.00  0.00     0.217 HD
ENDBRANCH  10  20
TORSDOF 3
ENDMDL
MODEL 7
REMARK VINA RESULT:      -7.4      2.565      8.251
REMARK  3 active torsions:
REMARK  status: ('A' for Active; 'I' for Inactive)
REMARK    1  A    between atoms: C15_19  and  O2_2 
REMARK    2  A    between atoms: C11_15  and  O4_4 
REMARK    3  A    between atoms: C2_6  and  C4_8 
ROOT
HETATM    1  O1  UNK     1      19.103   6.372  33.293  1.00  0.00    -0.309 OA
HETATM    2  O3  UNK     1      15.718   8.451  32.390  1.00  0.00    -0.287 OA
HETATM    3  C1  UNK     1      17.903   8.485  33.288  1.00  0.00     0.051 A 
HETATM    4  C2  UNK     1      18.003   5.756  32.717  1.00  0.00     0.090 A 
HETATM    5  C3  UNK     1      19.031   7.715  33.569  1.00  0.00     0.090 A 
HETATM    6  C5  UNK     1      16.738   7.836  32.667  1.00  0.00     0.187 A 
HETATM    7  C6  UNK     1      16.865   6.390  32.394  1.00  0.00     0.093 A 
HETATM    8  C7  UNK     1      17.885   9.848  33.590  1.00  0.00     0.054 A 
HETATM    9  C8  UNK     1      20.150   8.305  34.155  1.00  0.00     0.041 A 
HETATM   10  C11 UNK     1      19.006  10.437  34.176  1.00  0.00     0.066 A 
HETATM   11  C12 UNK     1      20.136   9.667  34.459  1.00  0.00     0.039 A 
ENDROOT
BRANCH   4  12
HETATM   12  C4  UNK     1      18.190   4.314  32.458  1.00  0.00    -0.002 A 
HETATM   13  C10 UNK     1      18.407   3.859  31.154  1.00  0.00     0.017 A 
HETATM   14  C14 UNK     1      18.583   2.498  30.909  1.00  0.00     0.037 A 
HETATM   15  C15 UNK     1      18.544   1.587  31.965  1.00  0.00     0.068 A 
HETATM   16  C13 UNK     1      18.329   2.039  33.267  1.00  0.00     0.037 A 
HETATM   17  C9  UNK     1      18.151   3.400  33.514  1.00  0.00     0.017 A 
BRANCH  15  18
HETATM   18  O2  UNK     1      18.715   0.259  31.725  1.00  0.00    -0.356 OA
HETATM   19  C16 UNK     1      19.826  -0.117  30.913  1.00  0.00     0.210 C 
ENDBRANCH  15  18
ENDBRANCH   4  12
BRANCH  10  20
HETATM   20  O4  UNK     1      18.998  11.765  34.475  1.00  0.00    -0.361 OA
HETATM   21  H9  UNK     1      18.239  11.954  35.054  1.00  0.00     0.217 HD
ENDBRANCH  10  20
TORSDOF 3
ENDMDL
MODEL 8
REMARK VINA RESULT:      -7.4      1.734      2.547
REMARK  3 active torsions:
REMARK  status: ('A' for Active; 'I' for Inactive)
REMARK    1  A    between atoms: C15_19  and  O2_2 
REMARK    2  A    between atoms: C11_15  and  O4_4 
REMARK    3  A    between atoms: C2_6  and  C4_8 
ROOT
HETATM    1  O1  UNK     1      18.277   4.182  31.248  1.00  0.00    -0.309 OA
HETATM    2  O3  UNK     1      18.612   1.437  34.240  1.00  0.00    -0.287 OA
HETATM    3  C1  UNK     1      18.703   1.887  31.922  1.00  0.00     0.051 A 
HETATM    4  C2  UNK     1      18.086   4.527  32.576  1.00  0.00     0.090 A 
HETATM    5  C3  UNK     1      18.576   2.876  30.948  1.00  0.00     0.090 A 
HETATM    6  C5  UNK     1      18.511   2.253  33.334  1.00  0.00     0.187 A 
HETATM    7  C6  UNK     1      18.188   3.669  33.603  1.00  0.00     0.093 A 
HETATM    8  C7  UNK     1      19.010   0.574  31.559  1.00  0.00     0.054 A 
HETATM    9  C8  UNK     1      18.754   2.557  29.602  1.00  0.00     0.041 A 
HETATM   10  C11 UNK     1      19.188   0.257  30.212  1.00  0.00     0.066 A 
HETATM   11  C12 UNK     1      19.060   1.246  29.235  1.00  0.00     0.039 A 
ENDROOT
BRANCH   4  12
HETATM   12  C4  UNK     1      17.775   5.955  32.786  1.00  0.00    -0.002 A 
HETATM   13  C10 UNK     1      18.719   6.798  33.380  1.00  0.00     0.017 A 
HETATM   14  C14 UNK     1      18.425   8.147  33.578  1.00  0.00     0.037 A 
HETATM   15  C15 UNK     1      17.189   8.658  33.184  1.00  0.00     0.068 A 
HETATM   16  C13 UNK     1      16.245   7.820  32.591  1.00  0.00     0.037 A 
HETATM   17  C9  UNK     1      16.537   6.471  32.393  1.00  0.00     0.017 A 
BRANCH  15  18
HETATM   18  O2  UNK     1      16.903   9.974  33.379  1.00  0.00    -0.356 OA
HETATM   19  C16 UNK     1      15.862  10.283  34.304  1.00  0.00     0.210 C 
ENDBRANCH  15  18
ENDBRANCH   4  12
BRANCH  10  20
HETATM   20  O4  UNK     1      19.486  -1.021  29.849  1.00  0.00    -0.361 OA
HETATM   21  H9  UNK     1      18.663  -1.536  29.798  1.00  0.00     0.217 HD
ENDBRANCH  10  20
TORSDOF 3
ENDMDL
MODEL 9
REMARK VINA RESULT:      -7.3      7.005      9.353
REMARK  3 active torsions:
REMARK  status: ('A' for Active; 'I' for Inactive)
REMARK    1  A    between atoms: C15_19  and  O2_2 
REMARK    2  A    between atoms: C11_15  and  O4_4 
REMARK    3  A    between atoms: C2_6  and  C4_8 
ROOT
HETATM    1  O1  UNK     1      19.044  -5.191  36.981  1.00  0.00    -0.309 OA
HETATM    2  O3  UNK     1      22.832  -5.241  38.478  1.00  0.00    -0.287 OA
HETATM    3  C1  UNK     1      20.796  -6.396  38.154  1.00  0.00     0.051 A 
HETATM    4  C2  UNK     1      19.882  -4.092  36.876  1.00  0.00     0.090 A 
HETATM    5  C3  UNK     1      19.513  -6.312  37.618  1.00  0.00     0.090 A 
HETATM    6  C5  UNK     1      21.693  -5.236  38.034  1.00  0.00     0.187 A 
HETATM    7  C6  UNK     1      21.139  -4.053  37.344  1.00  0.00     0.093 A 
HETATM    8  C7  UNK     1      21.221  -7.564  38.791  1.00  0.00     0.054 A 
HETATM    9  C8  UNK     1      18.644  -7.399  37.716  1.00  0.00     0.041 A 
HETATM   10  C11 UNK     1      20.350  -8.649  38.889  1.00  0.00     0.066 A 
HETATM   11  C12 UNK     1      19.064  -8.567  38.353  1.00  0.00     0.039 A 
ENDROOT
BRANCH   4  12
HETATM   12  C4  UNK     1      19.280  -2.944  36.169  1.00  0.00    -0.002 A 
HETATM   13  C10 UNK     1      19.845  -2.480  34.977  1.00  0.00     0.017 A 
HETATM   14  C14 UNK     1      19.276  -1.396  34.309  1.00  0.00     0.037 A 
HETATM   15  C15 UNK     1      18.143  -0.771  34.829  1.00  0.00     0.068 A 
HETATM   16  C13 UNK     1      17.577  -1.232  36.018  1.00  0.00     0.037 A 
HETATM   17  C9  UNK     1      18.145  -2.316  36.687  1.00  0.00     0.017 A 
BRANCH  15  18
HETATM   18  O2  UNK     1      17.590   0.288  34.178  1.00  0.00    -0.356 OA
HETATM   19  C16 UNK     1      18.248   1.547  34.308  1.00  0.00     0.210 C 
ENDBRANCH  15  18
ENDBRANCH   4  12
BRANCH  10  20
HETATM   20  O4  UNK     1      20.755  -9.792  39.508  1.00  0.00    -0.361 OA
HETATM   21  H9  UNK     1      21.064 -10.423  38.837  1.00  0.00     0.217 HD
ENDBRANCH  10  20
TORSDOF 3
ENDMDL
MODEL 10
REMARK VINA RESULT:      -7.3     23.628     24.859
REMARK  3 active torsions:
REMARK  status: ('A' for Active; 'I' for Inactive)
REMARK    1  A    between atoms: C15_19  and  O2_2 
REMARK    2  A    between atoms: C11_15  and  O4_4 
REMARK    3  A    between atoms: C2_6  and  C4_8 
ROOT
HETATM    1  O1  UNK     1       9.702   5.238   9.584  1.00  0.00    -0.309 OA
HETATM    2  O3  UNK     1       8.791   6.668   5.879  1.00  0.00    -0.287 OA
HETATM    3  C1  UNK     1      10.467   6.119   7.453  1.00  0.00     0.051 A 
HETATM    4  C2  UNK     1       8.391   5.362   9.155  1.00  0.00     0.090 A 
HETATM    5  C3  UNK     1      10.708   5.620   8.732  1.00  0.00     0.090 A 
HETATM    6  C5  UNK     1       9.076   6.242   6.990  1.00  0.00     0.187 A 
HETATM    7  C6  UNK     1       8.031   5.821   7.945  1.00  0.00     0.093 A 
HETATM    8  C7  UNK     1      11.530   6.492   6.627  1.00  0.00     0.054 A 
HETATM    9  C8  UNK     1      12.017   5.491   9.194  1.00  0.00     0.041 A 
HETATM   10  C11 UNK     1      12.839   6.363   7.092  1.00  0.00     0.066 A 
HETATM   11  C12 UNK     1      13.082   5.864   8.373  1.00  0.00     0.039 A 
ENDROOT
BRANCH   4  12
HETATM   12  C4  UNK     1       7.390   4.918  10.146  1.00  0.00    -0.002 A 
HETATM   13  C10 UNK     1       7.073   5.734  11.236  1.00  0.00     0.017 A 
HETATM   14  C14 UNK     1       6.128   5.315  12.172  1.00  0.00     0.037 A 
HETATM   15  C15 UNK     1       5.497   4.080  12.022  1.00  0.00     0.068 A 
HETATM   16  C13 UNK     1       5.811   3.264  10.935  1.00  0.00     0.037 A 
HETATM   17  C9  UNK     1       6.756   3.682   9.999  1.00  0.00     0.017 A 
BRANCH  15  18
HETATM   18  O2  UNK     1       4.576   3.672  12.937  1.00  0.00    -0.356 OA
HETATM   19  C16 UNK     1       4.766   2.384  13.521  1.00  0.00     0.210 C 
ENDBRANCH  15  18
ENDBRANCH   4  12
BRANCH  10  20
HETATM   20  O4  UNK     1      13.882   6.724   6.295  1.00  0.00    -0.361 OA
HETATM   21  H9  UNK     1      14.577   7.123   6.846  1.00  0.00     0.217 HD
ENDBRANCH  10  20
TORSDOF 3
ENDMDL
