MODEL 1
REMARK VINA RESULT:      -8.7      0.000      0.000
REMARK  2 active torsions:
REMARK  status: ('A' for Active; 'I' for Inactive)
REMARK    1  A    between atoms: C8_14  and  N1_5 
REMARK    2  A    between atoms: C1_7  and  C4_10 
ROOT
HETATM    1  O1  UNK     1      31.784  -4.958  36.007  1.00  0.00    -0.291 OA
HETATM    2  O2  UNK     1      32.818  -9.002  36.290  1.00  0.00    -0.274 OA
HETATM    3  O3  UNK     1      31.579  -9.188  38.196  1.00  0.00    -0.259 OA
HETATM    4  N2  UNK     1      29.358  -3.657  39.960  1.00  0.00    -0.191 NA
HETATM    5  C1  UNK     1      30.625  -6.474  38.160  1.00  0.00     0.108 C 
HETATM    6  C2  UNK     1      31.583  -7.060  37.135  1.00  0.00     0.066 A 
HETATM    7  C3  UNK     1      32.079  -6.302  36.145  1.00  0.00     0.104 A 
HETATM    8  C5  UNK     1      30.553  -4.949  38.058  1.00  0.00     0.086 C 
HETATM    9  C6  UNK     1      32.972  -6.865  35.137  1.00  0.00     0.033 A 
HETATM   10  C7  UNK     1      31.975  -8.487  37.270  1.00  0.00     0.298 A 
HETATM   11  C8  UNK     1      31.103  -4.281  37.018  1.00  0.00     0.159 C 
HETATM   12  C9  UNK     1      33.314  -8.210  35.237  1.00  0.00     0.092 A 
HETATM   13  C12 UNK     1      33.501  -6.128  34.071  1.00  0.00     0.017 A 
HETATM   14  C13 UNK     1      34.157  -8.832  34.315  1.00  0.00     0.038 A 
HETATM   15  C16 UNK     1      34.348  -6.736  33.139  1.00  0.00     0.001 A 
HETATM   16  C17 UNK     1      29.893  -4.236  39.109  1.00  0.00     0.100 C 
HETATM   17  C18 UNK     1      34.675  -8.087  33.261  1.00  0.00     0.003 A 
ENDROOT
BRANCH   5  18
HETATM   18  C4  UNK     1      29.257  -7.070  38.007  1.00  0.00    -0.044 A 
HETATM   19  C10 UNK     1      28.684  -7.164  36.744  1.00  0.00     0.010 A 
HETATM   20  C14 UNK     1      27.411  -7.717  36.601  1.00  0.00     0.024 A 
HETATM   21  C19 UNK     1      26.719  -8.172  37.724  1.00  0.00     0.034 A 
HETATM   22  C15 UNK     1      27.299  -8.073  38.989  1.00  0.00     0.024 A 
HETATM   23 Cl1  UNK     1      25.149  -8.853  37.549  1.00  0.00    -0.084 Cl
HETATM   24  C11 UNK     1      28.573  -7.520  39.130  1.00  0.00     0.010 A 
ENDBRANCH   5  18
BRANCH  11  25
HETATM   25  N1  UNK     1      31.065  -2.926  36.842  1.00  0.00    -0.379 N 
HETATM   26  H10 UNK     1      31.282  -2.325  37.627  1.00  0.00     0.158 HD
HETATM   27  H11 UNK     1      30.825  -2.523  35.945  1.00  0.00     0.158 HD
ENDBRANCH  11  25
TORSDOF 2
ENDMDL
MODEL 2
REMARK VINA RESULT:      -7.7      3.696      4.476
REMARK  2 active torsions:
REMARK  status: ('A' for Active; 'I' for Inactive)
REMARK    1  A    between atoms: C8_14  and  N1_5 
REMARK    2  A    between atoms: C1_7  and  C4_10 
ROOT
HETATM    1  O1  UNK     1      30.103  -5.901  33.988  1.00  0.00    -0.291 OA
HETATM    2  O2  UNK     1      28.912  -9.664  32.601  1.00  0.00    -0.274 OA
HETATM    3  O3  UNK     1      30.088 -10.658  34.283  1.00  0.00    -0.259 OA
HETATM    4  N2  UNK     1      33.311  -6.456  37.537  1.00  0.00    -0.191 NA
HETATM    5  C1  UNK     1      30.941  -8.197  35.504  1.00  0.00     0.108 C 
HETATM    6  C2  UNK     1      30.100  -8.281  34.240  1.00  0.00     0.066 A 
HETATM    7  C3  UNK     1      29.730  -7.170  33.585  1.00  0.00     0.104 A 
HETATM    8  C5  UNK     1      31.489  -6.784  35.724  1.00  0.00     0.086 C 
HETATM    9  C6  UNK     1      28.893  -7.240  32.391  1.00  0.00     0.033 A 
HETATM   10  C7  UNK     1      29.718  -9.625  33.735  1.00  0.00     0.298 A 
HETATM   11  C8  UNK     1      31.053  -5.733  34.993  1.00  0.00     0.159 C 
HETATM   12  C9  UNK     1      28.502  -8.495  31.933  1.00  0.00     0.092 A 
HETATM   13  C12 UNK     1      28.459  -6.114  31.681  1.00  0.00     0.017 A 
HETATM   14  C13 UNK     1      27.699  -8.655  30.803  1.00  0.00     0.038 A 
HETATM   15  C16 UNK     1      27.655  -6.258  30.546  1.00  0.00     0.001 A 
HETATM   16  C17 UNK     1      32.496  -6.603  36.725  1.00  0.00     0.100 C 
HETATM   17  C18 UNK     1      27.275  -7.527  30.109  1.00  0.00     0.003 A 
ENDROOT
BRANCH   5  18
HETATM   18  C4  UNK     1      30.148  -8.638  36.698  1.00  0.00    -0.044 A 
HETATM   19  C10 UNK     1      30.706  -9.532  37.604  1.00  0.00     0.010 A 
HETATM   20  C14 UNK     1      29.967  -9.943  38.714  1.00  0.00     0.024 A 
HETATM   21  C19 UNK     1      28.675  -9.457  38.910  1.00  0.00     0.034 A 
HETATM   22  C15 UNK     1      28.120  -8.561  37.996  1.00  0.00     0.024 A 
HETATM   23 Cl1  UNK     1      27.763  -9.965  40.278  1.00  0.00    -0.084 Cl
HETATM   24  C11 UNK     1      28.860  -8.149  36.886  1.00  0.00     0.010 A 
ENDBRANCH   5  18
BRANCH  11  25
HETATM   25  N1  UNK     1      31.475  -4.441  35.142  1.00  0.00    -0.379 N 
HETATM   26  H10 UNK     1      32.086  -4.043  34.440  1.00  0.00     0.158 HD
HETATM   27  H11 UNK     1      31.183  -3.886  35.936  1.00  0.00     0.158 HD
ENDBRANCH  11  25
TORSDOF 2
ENDMDL
MODEL 3
REMARK VINA RESULT:      -7.7      3.575      4.890
REMARK  2 active torsions:
REMARK  status: ('A' for Active; 'I' for Inactive)
REMARK    1  A    between atoms: C8_14  and  N1_5 
REMARK    2  A    between atoms: C1_7  and  C4_10 
ROOT
HETATM    1  O1  UNK     1      29.528  -7.790  35.281  1.00  0.00    -0.291 OA
HETATM    2  O2  UNK     1      29.971  -5.011  38.376  1.00  0.00    -0.274 OA
HETATM    3  O3  UNK     1      28.420  -6.136  39.612  1.00  0.00    -0.259 OA
HETATM    4  N2  UNK     1      25.906 -10.784  36.338  1.00  0.00    -0.191 NA
HETATM    5  C1  UNK     1      28.023  -8.241  37.691  1.00  0.00     0.108 C 
HETATM    6  C2  UNK     1      28.957  -7.058  37.487  1.00  0.00     0.066 A 
HETATM    7  C3  UNK     1      29.642  -6.912  36.343  1.00  0.00     0.104 A 
HETATM    8  C5  UNK     1      27.792  -9.009  36.387  1.00  0.00     0.086 C 
HETATM    9  C6  UNK     1      30.567  -5.799  36.152  1.00  0.00     0.033 A 
HETATM   10  C7  UNK     1      29.075  -6.056  38.578  1.00  0.00     0.298 A 
HETATM   11  C8  UNK     1      28.536  -8.769  35.282  1.00  0.00     0.159 C 
HETATM   12  C9  UNK     1      30.709  -4.876  37.184  1.00  0.00     0.092 A 
HETATM   13  C12 UNK     1      31.323  -5.609  34.989  1.00  0.00     0.017 A 
HETATM   14  C13 UNK     1      31.573  -3.785  37.091  1.00  0.00     0.038 A 
HETATM   15  C16 UNK     1      32.194  -4.520  34.880  1.00  0.00     0.001 A 
HETATM   16  C17 UNK     1      26.750  -9.989  36.361  1.00  0.00     0.100 C 
HETATM   17  C18 UNK     1      32.319  -3.610  35.929  1.00  0.00     0.003 A 
ENDROOT
BRANCH   5  18
HETATM   18  C4  UNK     1      28.558  -9.161  38.748  1.00  0.00    -0.044 A 
HETATM   19  C10 UNK     1      29.834  -9.694  38.616  1.00  0.00     0.010 A 
HETATM   20  C14 UNK     1      30.331 -10.551  39.599  1.00  0.00     0.024 A 
HETATM   21  C19 UNK     1      29.546 -10.869  40.707  1.00  0.00     0.034 A 
HETATM   22  C15 UNK     1      28.265 -10.333  40.832  1.00  0.00     0.024 A 
HETATM   23 Cl1  UNK     1      30.158 -11.927  41.919  1.00  0.00    -0.084 Cl
HETATM   24  C11 UNK     1      27.769  -9.475  39.849  1.00  0.00     0.010 A 
ENDBRANCH   5  18
BRANCH  11  25
HETATM   25  N1  UNK     1      28.407  -9.424  34.089  1.00  0.00    -0.379 N 
HETATM   26  H10 UNK     1      28.155  -8.893  33.266  1.00  0.00     0.158 HD
HETATM   27  H11 UNK     1      28.563 -10.423  34.023  1.00  0.00     0.158 HD
ENDBRANCH  11  25
TORSDOF 2
ENDMDL
MODEL 4
REMARK VINA RESULT:      -7.7      4.218      7.954
REMARK  2 active torsions:
REMARK  status: ('A' for Active; 'I' for Inactive)
REMARK    1  A    between atoms: C8_14  and  N1_5 
REMARK    2  A    between atoms: C1_7  and  C4_10 
ROOT
HETATM    1  O1  UNK     1      25.608  -9.294  38.588  1.00  0.00    -0.291 OA
HETATM    2  O2  UNK     1      24.922  -5.180  38.918  1.00  0.00    -0.274 OA
HETATM    3  O3  UNK     1      27.169  -4.798  38.859  1.00  0.00    -0.259 OA
HETATM    4  N2  UNK     1      30.340 -10.144  38.869  1.00  0.00    -0.191 NA
HETATM    5  C1  UNK     1      27.900  -7.558  38.502  1.00  0.00     0.108 C 
HETATM    6  C2  UNK     1      26.471  -7.062  38.661  1.00  0.00     0.066 A 
HETATM    7  C3  UNK     1      25.443  -7.924  38.680  1.00  0.00     0.104 A 
HETATM    8  C5  UNK     1      27.989  -9.079  38.645  1.00  0.00     0.086 C 
HETATM    9  C6  UNK     1      24.065  -7.454  38.797  1.00  0.00     0.033 A 
HETATM   10  C7  UNK     1      26.243  -5.602  38.819  1.00  0.00     0.298 A 
HETATM   11  C8  UNK     1      26.881  -9.855  38.667  1.00  0.00     0.159 C 
HETATM   12  C9  UNK     1      23.843  -6.085  38.909  1.00  0.00     0.092 A 
HETATM   13  C12 UNK     1      22.953  -8.305  38.801  1.00  0.00     0.017 A 
HETATM   14  C13 UNK     1      22.560  -5.548  39.021  1.00  0.00     0.038 A 
HETATM   15  C16 UNK     1      21.661  -7.782  38.913  1.00  0.00     0.001 A 
HETATM   16  C17 UNK     1      29.288  -9.667  38.769  1.00  0.00     0.100 C 
HETATM   17  C18 UNK     1      21.465  -6.406  39.022  1.00  0.00     0.003 A 
ENDROOT
BRANCH   5  18
HETATM   18  C4  UNK     1      28.465  -7.127  37.181  1.00  0.00    -0.044 A 
HETATM   19  C10 UNK     1      27.814  -7.479  36.005  1.00  0.00     0.010 A 
HETATM   20  C14 UNK     1      28.341  -7.079  34.776  1.00  0.00     0.024 A 
HETATM   21  C19 UNK     1      29.516  -6.328  34.734  1.00  0.00     0.034 A 
HETATM   22  C15 UNK     1      30.165  -5.979  35.918  1.00  0.00     0.024 A 
HETATM   23 Cl1  UNK     1      30.167  -5.835  33.218  1.00  0.00    -0.084 Cl
HETATM   24  C11 UNK     1      29.637  -6.380  37.146  1.00  0.00     0.010 A 
ENDBRANCH   5  18
BRANCH  11  25
HETATM   25  N1  UNK     1      26.875 -11.218  38.770  1.00  0.00    -0.379 N 
HETATM   26  H10 UNK     1      27.622 -11.672  39.280  1.00  0.00     0.158 HD
HETATM   27  H11 UNK     1      26.139 -11.770  38.348  1.00  0.00     0.158 HD
ENDBRANCH  11  25
TORSDOF 2
ENDMDL
MODEL 5
REMARK VINA RESULT:      -7.6      2.905      5.956
REMARK  2 active torsions:
REMARK  status: ('A' for Active; 'I' for Inactive)
REMARK    1  A    between atoms: C8_14  and  N1_5 
REMARK    2  A    between atoms: C1_7  and  C4_10 
ROOT
HETATM    1  O1  UNK     1      29.359  -5.941  38.814  1.00  0.00    -0.291 OA
HETATM    2  O2  UNK     1      28.566  -8.865  35.929  1.00  0.00    -0.274 OA
HETATM    3  O3  UNK     1      29.716  -7.651  34.379  1.00  0.00    -0.259 OA
HETATM    4  N2  UNK     1      31.496  -2.171  36.711  1.00  0.00    -0.191 NA
HETATM    5  C1  UNK     1      30.500  -5.566  36.200  1.00  0.00     0.108 C 
HETATM    6  C2  UNK     1      29.633  -6.756  36.580  1.00  0.00     0.066 A 
HETATM    7  C3  UNK     1      29.141  -6.880  37.822  1.00  0.00     0.104 A 
HETATM    8  C5  UNK     1      30.481  -4.486  37.284  1.00  0.00     0.086 C 
HETATM    9  C6  UNK     1      28.337  -8.037  38.205  1.00  0.00     0.033 A 
HETATM   10  C7  UNK     1      29.325  -7.767  35.535  1.00  0.00     0.298 A 
HETATM   11  C8  UNK     1      29.944  -4.714  38.504  1.00  0.00     0.159 C 
HETATM   12  C9  UNK     1      28.075  -9.005  37.241  1.00  0.00     0.092 A 
HETATM   13  C12 UNK     1      27.817  -8.228  39.491  1.00  0.00     0.017 A 
HETATM   14  C13 UNK     1      27.320 -10.145  37.520  1.00  0.00     0.038 A 
HETATM   15  C16 UNK     1      27.058  -9.365  39.786  1.00  0.00     0.001 A 
HETATM   16  C17 UNK     1      31.041  -3.207  36.967  1.00  0.00     0.100 C 
HETATM   17  C18 UNK     1      26.810 -10.322  38.802  1.00  0.00     0.003 A 
ENDROOT
BRANCH   5  18
HETATM   18  C4  UNK     1      31.909  -6.003  35.927  1.00  0.00    -0.044 A 
HETATM   19  C10 UNK     1      32.595  -6.750  36.877  1.00  0.00     0.010 A 
HETATM   20  C14 UNK     1      33.905  -7.155  36.624  1.00  0.00     0.024 A 
HETATM   21  C19 UNK     1      34.521  -6.811  35.420  1.00  0.00     0.034 A 
HETATM   22  C15 UNK     1      33.827  -6.061  34.471  1.00  0.00     0.024 A 
HETATM   23 Cl1  UNK     1      36.138  -7.310  35.107  1.00  0.00    -0.084 Cl
HETATM   24  C11 UNK     1      32.516  -5.656  34.725  1.00  0.00     0.010 A 
ENDBRANCH   5  18
BRANCH  11  25
HETATM   25  N1  UNK     1      29.906  -3.812  39.531  1.00  0.00    -0.379 N 
HETATM   26  H10 UNK     1      29.152  -3.139  39.562  1.00  0.00     0.158 HD
HETATM   27  H11 UNK     1      30.617  -3.814  40.252  1.00  0.00     0.158 HD
ENDBRANCH  11  25
TORSDOF 2
ENDMDL
MODEL 6
REMARK VINA RESULT:      -7.5      2.996      6.101
REMARK  2 active torsions:
REMARK  status: ('A' for Active; 'I' for Inactive)
REMARK    1  A    between atoms: C8_14  and  N1_5 
REMARK    2  A    between atoms: C1_7  and  C4_10 
ROOT
HETATM    1  O1  UNK     1      30.780  -6.577  38.063  1.00  0.00    -0.291 OA
HETATM    2  O2  UNK     1      27.364  -7.411  35.796  1.00  0.00    -0.274 OA
HETATM    3  O3  UNK     1      28.316  -6.401  33.987  1.00  0.00    -0.259 OA
HETATM    4  N2  UNK     1      33.757  -3.798  35.491  1.00  0.00    -0.191 NA
HETATM    5  C1  UNK     1      30.815  -5.819  35.288  1.00  0.00     0.108 C 
HETATM    6  C2  UNK     1      29.632  -6.497  35.964  1.00  0.00     0.066 A 
HETATM    7  C3  UNK     1      29.685  -6.838  37.261  1.00  0.00     0.104 A 
HETATM    8  C5  UNK     1      31.865  -5.370  36.307  1.00  0.00     0.086 C 
HETATM    9  C6  UNK     1      28.568  -7.520  37.908  1.00  0.00     0.033 A 
HETATM   10  C7  UNK     1      28.410  -6.750  35.159  1.00  0.00     0.298 A 
HETATM   11  C8  UNK     1      31.813  -5.764  37.600  1.00  0.00     0.159 C 
HETATM   12  C9  UNK     1      27.433  -7.793  37.150  1.00  0.00     0.092 A 
HETATM   13  C12 UNK     1      28.575  -7.918  39.250  1.00  0.00     0.017 A 
HETATM   14  C13 UNK     1      26.322  -8.444  37.685  1.00  0.00     0.038 A 
HETATM   15  C16 UNK     1      27.469  -8.572  39.802  1.00  0.00     0.001 A 
HETATM   16  C17 UNK     1      32.910  -4.502  35.856  1.00  0.00     0.100 C 
HETATM   17  C18 UNK     1      26.344  -8.835  39.020  1.00  0.00     0.003 A 
ENDROOT
BRANCH   5  18
HETATM   18  C4  UNK     1      31.435  -6.729  34.270  1.00  0.00    -0.044 A 
HETATM   19  C10 UNK     1      31.518  -6.323  32.944  1.00  0.00     0.010 A 
HETATM   20  C14 UNK     1      32.094  -7.170  31.996  1.00  0.00     0.024 A 
HETATM   21  C19 UNK     1      32.582  -8.419  32.383  1.00  0.00     0.034 A 
HETATM   22  C15 UNK     1      32.494  -8.820  33.715  1.00  0.00     0.024 A 
HETATM   23 Cl1  UNK     1      33.291  -9.464  31.214  1.00  0.00    -0.084 Cl
HETATM   24  C11 UNK     1      31.919  -7.972  34.662  1.00  0.00     0.010 A 
ENDBRANCH   5  18
BRANCH  11  25
HETATM   25  N1  UNK     1      32.721  -5.426  38.564  1.00  0.00    -0.379 N 
HETATM   26  H10 UNK     1      32.468  -5.547  39.537  1.00  0.00     0.158 HD
HETATM   27  H11 UNK     1      33.633  -5.062  38.317  1.00  0.00     0.158 HD
ENDBRANCH  11  25
TORSDOF 2
ENDMDL
MODEL 7
REMARK VINA RESULT:      -7.3      4.399      6.969
REMARK  2 active torsions:
REMARK  status: ('A' for Active; 'I' for Inactive)
REMARK    1  A    between atoms: C8_14  and  N1_5 
REMARK    2  A    between atoms: C1_7  and  C4_10 
ROOT
HETATM    1  O1  UNK     1      33.546  -8.757  34.177  1.00  0.00    -0.291 OA
HETATM    2  O2  UNK     1      30.718  -5.778  34.975  1.00  0.00    -0.274 OA
HETATM    3  O3  UNK     1      30.638  -5.257  32.757  1.00  0.00    -0.259 OA
HETATM    4  N2  UNK     1      34.852  -8.509  29.548  1.00  0.00    -0.191 NA
HETATM    5  C1  UNK     1      32.471  -7.315  31.931  1.00  0.00     0.108 C 
HETATM    6  C2  UNK     1      32.070  -7.051  33.375  1.00  0.00     0.066 A 
HETATM    7  C3  UNK     1      32.599  -7.769  34.377  1.00  0.00     0.104 A 
HETATM    8  C5  UNK     1      33.680  -8.249  31.844  1.00  0.00     0.086 C 
HETATM    9  C6  UNK     1      32.193  -7.546  35.762  1.00  0.00     0.033 A 
HETATM   10  C7  UNK     1      31.095  -5.963  33.649  1.00  0.00     0.298 A 
HETATM   11  C8  UNK     1      34.141  -8.916  32.927  1.00  0.00     0.159 C 
HETATM   12  C9  UNK     1      31.254  -6.553  36.022  1.00  0.00     0.092 A 
HETATM   13  C12 UNK     1      32.695  -8.278  36.844  1.00  0.00     0.017 A 
HETATM   14  C13 UNK     1      30.806  -6.274  37.313  1.00  0.00     0.038 A 
HETATM   15  C16 UNK     1      32.257  -8.011  38.145  1.00  0.00     0.001 A 
HETATM   16  C17 UNK     1      34.327  -8.392  30.575  1.00  0.00     0.100 C 
HETATM   17  C18 UNK     1      31.313  -7.011  38.379  1.00  0.00     0.003 A 
ENDROOT
BRANCH   5  18
HETATM   18  C4  UNK     1      31.318  -7.883  31.158  1.00  0.00    -0.044 A 
HETATM   19  C10 UNK     1      30.683  -9.032  31.612  1.00  0.00     0.010 A 
HETATM   20  C14 UNK     1      29.611  -9.561  30.892  1.00  0.00     0.024 A 
HETATM   21  C19 UNK     1      29.183  -8.936  29.720  1.00  0.00     0.034 A 
HETATM   22  C15 UNK     1      29.827  -7.784  29.269  1.00  0.00     0.024 A 
HETATM   23 Cl1  UNK     1      27.863  -9.588  28.830  1.00  0.00    -0.084 Cl
HETATM   24  C11 UNK     1      30.898  -7.255  29.990  1.00  0.00     0.010 A 
ENDBRANCH   5  18
BRANCH  11  25
HETATM   25  N1  UNK     1      35.198  -9.783  32.928  1.00  0.00    -0.379 N 
HETATM   26  H10 UNK     1      36.039  -9.527  32.426  1.00  0.00     0.158 HD
HETATM   27  H11 UNK     1      35.148 -10.666  33.421  1.00  0.00     0.158 HD
ENDBRANCH  11  25
TORSDOF 2
ENDMDL
MODEL 8
REMARK VINA RESULT:      -7.3     35.382     36.833
REMARK  2 active torsions:
REMARK  status: ('A' for Active; 'I' for Inactive)
REMARK    1  A    between atoms: C8_14  and  N1_5 
REMARK    2  A    between atoms: C1_7  and  C4_10 
ROOT
HETATM    1  O1  UNK     1      12.891   6.743   7.908  1.00  0.00    -0.291 OA
HETATM    2  O2  UNK     1      12.202   9.198  11.225  1.00  0.00    -0.274 OA
HETATM    3  O3  UNK     1      10.008   9.388  10.632  1.00  0.00    -0.259 OA
HETATM    4  N2  UNK     1       8.924   6.607   5.180  1.00  0.00    -0.191 NA
HETATM    5  C1  UNK     1      10.192   7.630   8.362  1.00  0.00     0.108 C 
HETATM    6  C2  UNK     1      11.366   8.006   9.254  1.00  0.00     0.066 A 
HETATM    7  C3  UNK     1      12.599   7.547   8.995  1.00  0.00     0.104 A 
HETATM    8  C5  UNK     1      10.658   6.945   7.075  1.00  0.00     0.086 C 
HETATM    9  C6  UNK     1      13.725   7.873   9.866  1.00  0.00     0.033 A 
HETATM   10  C7  UNK     1      11.116   8.912  10.405  1.00  0.00     0.298 A 
HETATM   11  C8  UNK     1      11.937   6.533   6.914  1.00  0.00     0.159 C 
HETATM   12  C9  UNK     1      13.490   8.692  10.967  1.00  0.00     0.092 A 
HETATM   13  C12 UNK     1      15.028   7.406   9.658  1.00  0.00     0.017 A 
HETATM   14  C13 UNK     1      14.505   9.051  11.854  1.00  0.00     0.038 A 
HETATM   15  C16 UNK     1      16.056   7.757  10.538  1.00  0.00     0.001 A 
HETATM   16  C17 UNK     1       9.700   6.759   6.029  1.00  0.00     0.100 C 
HETATM   17  C18 UNK     1      15.795   8.579  11.635  1.00  0.00     0.003 A 
ENDROOT
BRANCH   5  18
HETATM   18  C4  UNK     1       9.227   6.751   9.099  1.00  0.00    -0.044 A 
HETATM   19  C10 UNK     1       9.602   5.460   9.450  1.00  0.00     0.010 A 
HETATM   20  C14 UNK     1       8.704   4.640  10.135  1.00  0.00     0.024 A 
HETATM   21  C19 UNK     1       7.436   5.120  10.464  1.00  0.00     0.034 A 
HETATM   22  C15 UNK     1       7.065   6.416  10.107  1.00  0.00     0.024 A 
HETATM   23 Cl1  UNK     1       6.327   4.110  11.308  1.00  0.00    -0.084 Cl
HETATM   24  C11 UNK     1       7.965   7.235   9.423  1.00  0.00     0.010 A 
ENDBRANCH   5  18
BRANCH  11  25
HETATM   25  N1  UNK     1      12.426   5.896   5.808  1.00  0.00    -0.379 N 
HETATM   26  H10 UNK     1      13.251   6.268   5.355  1.00  0.00     0.158 HD
HETATM   27  H11 UNK     1      11.978   5.064   5.445  1.00  0.00     0.158 HD
ENDBRANCH  11  25
TORSDOF 2
ENDMDL
MODEL 9
REMARK VINA RESULT:      -7.3      4.895      6.118
REMARK  2 active torsions:
REMARK  status: ('A' for Active; 'I' for Inactive)
REMARK    1  A    between atoms: C8_14  and  N1_5 
REMARK    2  A    between atoms: C1_7  and  C4_10 
ROOT
HETATM    1  O1  UNK     1      30.753 -10.239  33.519  1.00  0.00    -0.291 OA
HETATM    2  O2  UNK     1      27.839  -7.577  32.133  1.00  0.00    -0.274 OA
HETATM    3  O3  UNK     1      27.673  -6.668  34.218  1.00  0.00    -0.259 OA
HETATM    4  N2  UNK     1      31.160  -9.803  38.299  1.00  0.00    -0.191 NA
HETATM    5  C1  UNK     1      29.736  -8.300  35.385  1.00  0.00     0.108 C 
HETATM    6  C2  UNK     1      29.272  -8.406  33.940  1.00  0.00     0.066 A 
HETATM    7  C3  UNK     1      29.797  -9.325  33.116  1.00  0.00     0.104 A 
HETATM    8  C5  UNK     1      30.608  -9.492  35.786  1.00  0.00     0.086 C 
HETATM    9  C6  UNK     1      29.383  -9.411  31.718  1.00  0.00     0.033 A 
HETATM   10  C7  UNK     1      28.208  -7.482  33.471  1.00  0.00     0.298 A 
HETATM   11  C8  UNK     1      31.074 -10.371  34.869  1.00  0.00     0.159 C 
HETATM   12  C9  UNK     1      28.412  -8.524  31.263  1.00  0.00     0.092 A 
HETATM   13  C12 UNK     1      29.911 -10.335  30.808  1.00  0.00     0.017 A 
HETATM   14  C13 UNK     1      27.960  -8.532  29.943  1.00  0.00     0.038 A 
HETATM   15  C16 UNK     1      29.468 -10.355  29.482  1.00  0.00     0.001 A 
HETATM   16  C17 UNK     1      30.913  -9.664  37.174  1.00  0.00     0.100 C 
HETATM   17  C18 UNK     1      28.495  -9.455  29.050  1.00  0.00     0.003 A 
ENDROOT
BRANCH   5  18
HETATM   18  C4  UNK     1      30.477  -7.015  35.610  1.00  0.00    -0.044 A 
HETATM   19  C10 UNK     1      30.081  -6.162  36.632  1.00  0.00     0.010 A 
HETATM   20  C14 UNK     1      30.769  -4.966  36.840  1.00  0.00     0.024 A 
HETATM   21  C19 UNK     1      31.850  -4.633  36.023  1.00  0.00     0.034 A 
HETATM   22  C15 UNK     1      32.241  -5.493  34.998  1.00  0.00     0.024 A 
HETATM   23 Cl1  UNK     1      32.699  -3.157  36.279  1.00  0.00    -0.084 Cl
HETATM   24  C11 UNK     1      31.553  -6.689  34.791  1.00  0.00     0.010 A 
ENDBRANCH   5  18
BRANCH  11  25
HETATM   25  N1  UNK     1      31.873 -11.445  35.142  1.00  0.00    -0.379 N 
HETATM   26  H10 UNK     1      31.679 -12.002  35.965  1.00  0.00     0.158 HD
HETATM   27  H11 UNK     1      32.647 -11.687  34.535  1.00  0.00     0.158 HD
ENDBRANCH  11  25
TORSDOF 2
ENDMDL
MODEL 10
REMARK VINA RESULT:      -7.3      4.648      5.703
REMARK  2 active torsions:
REMARK  status: ('A' for Active; 'I' for Inactive)
REMARK    1  A    between atoms: C8_14  and  N1_5 
REMARK    2  A    between atoms: C1_7  and  C4_10 
ROOT
HETATM    1  O1  UNK     1      29.583  -6.926  31.601  1.00  0.00    -0.291 OA
HETATM    2  O2  UNK     1      31.395 -10.638  30.939  1.00  0.00    -0.274 OA
HETATM    3  O3  UNK     1      32.925 -10.184  32.568  1.00  0.00    -0.259 OA
HETATM    4  N2  UNK     1      32.239  -4.393  34.720  1.00  0.00    -0.191 NA
HETATM    5  C1  UNK     1      31.791  -7.642  33.299  1.00  0.00     0.108 C 
HETATM    6  C2  UNK     1      31.258  -8.532  32.186  1.00  0.00     0.066 A 
HETATM    7  C3  UNK     1      30.214  -8.145  31.438  1.00  0.00     0.104 A 
HETATM    8  C5  UNK     1      31.184  -6.239  33.239  1.00  0.00     0.086 C 
HETATM    9  C6  UNK     1      29.673  -9.008  30.392  1.00  0.00     0.033 A 
HETATM   10  C7  UNK     1      31.936  -9.830  31.934  1.00  0.00     0.298 A 
HETATM   11  C8  UNK     1      30.136  -5.954  32.433  1.00  0.00     0.159 C 
HETATM   12  C9  UNK     1      30.281 -10.241  30.174  1.00  0.00     0.092 A 
HETATM   13  C12 UNK     1      28.574  -8.665  29.595  1.00  0.00     0.017 A 
HETATM   14  C13 UNK     1      29.829 -11.130  29.200  1.00  0.00     0.038 A 
HETATM   15  C16 UNK     1      28.108  -9.546  28.613  1.00  0.00     0.001 A 
HETATM   16  C17 UNK     1      31.767  -5.219  34.057  1.00  0.00     0.100 C 
HETATM   17  C18 UNK     1      28.735 -10.776  28.416  1.00  0.00     0.003 A 
ENDROOT
BRANCH   5  18
HETATM   18  C4  UNK     1      31.536  -8.262  34.641  1.00  0.00    -0.044 A 
HETATM   19  C10 UNK     1      30.259  -8.704  34.963  1.00  0.00     0.010 A 
HETATM   20  C14 UNK     1      30.021  -9.279  36.212  1.00  0.00     0.024 A 
HETATM   21  C19 UNK     1      31.064  -9.408  37.129  1.00  0.00     0.034 A 
HETATM   22  C15 UNK     1      32.343  -8.962  36.800  1.00  0.00     0.024 A 
HETATM   23 Cl1  UNK     1      30.771 -10.117  38.670  1.00  0.00    -0.084 Cl
HETATM   24  C11 UNK     1      32.580  -8.387  35.550  1.00  0.00     0.010 A 
ENDBRANCH   5  18
BRANCH  11  25
HETATM   25  N1  UNK     1      29.523  -4.735  32.337  1.00  0.00    -0.379 N 
HETATM   26  H10 UNK     1      29.663  -4.059  33.077  1.00  0.00     0.158 HD
HETATM   27  H11 UNK     1      28.940  -4.506  31.542  1.00  0.00     0.158 HD
ENDBRANCH  11  25
TORSDOF 2
ENDMDL
