MODEL 1
REMARK VINA RESULT:      -8.1      0.000      0.000
REMARK  3 active torsions:
REMARK  status: ('A' for Active; 'I' for Inactive)
REMARK    1  A    between atoms: C7_11  and  O2_2 
REMARK    2  A    between atoms: C15_19  and  O4_4 
REMARK    3  A    between atoms: C3_7  and  C4_8 
ROOT
HETATM    1  O1  UNK     1      19.397   1.997  31.304  1.00  0.00    -0.309 OA
HETATM    2  O3  UNK     1      17.848   1.647  27.552  1.00  0.00    -0.287 OA
HETATM    3  C1  UNK     1      19.105   0.663  29.296  1.00  0.00     0.081 A 
HETATM    4  C2  UNK     1      19.605   0.849  30.584  1.00  0.00     0.093 A 
HETATM    5  C3  UNK     1      18.666   3.021  30.720  1.00  0.00     0.090 A 
HETATM    6  C5  UNK     1      18.320   1.742  28.677  1.00  0.00     0.190 A 
HETATM    7  C6  UNK     1      18.129   2.959  29.492  1.00  0.00     0.094 A 
HETATM    8  C7  UNK     1      19.346  -0.529  28.609  1.00  0.00     0.082 A 
HETATM    9  C8  UNK     1      20.350  -0.161  31.194  1.00  0.00     0.038 A 
HETATM   10  C11 UNK     1      20.092  -1.536  29.222  1.00  0.00     0.037 A 
HETATM   11  C12 UNK     1      20.593  -1.353  30.511  1.00  0.00     0.006 A 
ENDROOT
BRANCH   5  12
HETATM   12  C4  UNK     1      18.500   4.207  31.583  1.00  0.00    -0.002 A 
HETATM   13  C10 UNK     1      18.667   5.490  31.055  1.00  0.00     0.017 A 
HETATM   14  C14 UNK     1      18.511   6.610  31.870  1.00  0.00     0.037 A 
HETATM   15  C15 UNK     1      18.184   6.452  33.216  1.00  0.00     0.065 A 
HETATM   16  C13 UNK     1      18.016   5.173  33.748  1.00  0.00     0.037 A 
HETATM   17  C9  UNK     1      18.174   4.052  32.933  1.00  0.00     0.017 A 
BRANCH  15  18
HETATM   18  O4  UNK     1      18.031   7.545  34.012  1.00  0.00    -0.361 OA
HETATM   19  H10 UNK     1      17.985   8.339  33.452  1.00  0.00     0.217 HD
ENDBRANCH  15  18
ENDBRANCH   5  12
BRANCH   8  20
HETATM   20  O2  UNK     1      18.879  -0.758  27.350  1.00  0.00    -0.360 OA
HETATM   21  H9  UNK     1      18.411  -1.606  27.309  1.00  0.00     0.217 HD
ENDBRANCH   8  20
TORSDOF 3
ENDMDL
MODEL 2
REMARK VINA RESULT:      -8.0     12.175     15.895
REMARK  3 active torsions:
REMARK  status: ('A' for Active; 'I' for Inactive)
REMARK    1  A    between atoms: C7_11  and  O2_2 
REMARK    2  A    between atoms: C15_19  and  O4_4 
REMARK    3  A    between atoms: C3_7  and  C4_8 
ROOT
HETATM    1  O1  UNK     1      19.144   0.378  16.027  1.00  0.00    -0.309 OA
HETATM    2  O3  UNK     1      18.632  -0.349  20.003  1.00  0.00    -0.287 OA
HETATM    3  C1  UNK     1      19.087   1.228  18.302  1.00  0.00     0.081 A 
HETATM    4  C2  UNK     1      19.249   1.406  16.928  1.00  0.00     0.093 A 
HETATM    5  C3  UNK     1      18.873  -0.896  16.505  1.00  0.00     0.090 A 
HETATM    6  C5  UNK     1      18.790  -0.120  18.811  1.00  0.00     0.190 A 
HETATM    7  C6  UNK     1      18.690  -1.192  17.801  1.00  0.00     0.094 A 
HETATM    8  C7  UNK     1      19.205   2.312  19.174  1.00  0.00     0.082 A 
HETATM    9  C8  UNK     1      19.530   2.674  16.419  1.00  0.00     0.038 A 
HETATM   10  C11 UNK     1      19.486   3.579  18.661  1.00  0.00     0.037 A 
HETATM   11  C12 UNK     1      19.648   3.760  17.288  1.00  0.00     0.006 A 
ENDROOT
BRANCH   5  12
HETATM   12  C4  UNK     1      18.776  -1.924  15.450  1.00  0.00    -0.002 A 
HETATM   13  C10 UNK     1      18.168  -3.153  15.720  1.00  0.00     0.017 A 
HETATM   14  C14 UNK     1      18.077  -4.124  14.724  1.00  0.00     0.037 A 
HETATM   15  C15 UNK     1      18.593  -3.870  13.453  1.00  0.00     0.065 A 
HETATM   16  C13 UNK     1      19.201  -2.645  13.179  1.00  0.00     0.037 A 
HETATM   17  C9  UNK     1      19.293  -1.673  14.177  1.00  0.00     0.017 A 
BRANCH  15  18
HETATM   18  O4  UNK     1      18.504  -4.817  12.481  1.00  0.00    -0.361 OA
HETATM   19  H10 UNK     1      17.784  -4.578  11.872  1.00  0.00     0.217 HD
ENDBRANCH  15  18
ENDBRANCH   5  12
BRANCH   8  20
HETATM   20  O2  UNK     1      19.055   2.188  20.522  1.00  0.00    -0.360 OA
HETATM   21  H9  UNK     1      18.143   2.386  20.783  1.00  0.00     0.217 HD
ENDBRANCH   8  20
TORSDOF 3
ENDMDL
MODEL 3
REMARK VINA RESULT:      -8.0      4.556      7.718
REMARK  3 active torsions:
REMARK  status: ('A' for Active; 'I' for Inactive)
REMARK    1  A    between atoms: C7_11  and  O2_2 
REMARK    2  A    between atoms: C15_19  and  O4_4 
REMARK    3  A    between atoms: C3_7  and  C4_8 
ROOT
HETATM    1  O1  UNK     1      18.683  -0.600  33.952  1.00  0.00    -0.309 OA
HETATM    2  O3  UNK     1      20.608  -3.516  36.047  1.00  0.00    -0.287 OA
HETATM    3  C1  UNK     1      19.082  -1.711  36.075  1.00  0.00     0.081 A 
HETATM    4  C2  UNK     1      18.457  -0.737  35.298  1.00  0.00     0.093 A 
HETATM    5  C3  UNK     1      19.580  -1.464  33.341  1.00  0.00     0.090 A 
HETATM    6  C5  UNK     1      20.027  -2.635  35.429  1.00  0.00     0.190 A 
HETATM    7  C6  UNK     1      20.238  -2.444  33.980  1.00  0.00     0.094 A 
HETATM    8  C7  UNK     1      18.813  -1.805  37.442  1.00  0.00     0.082 A 
HETATM    9  C8  UNK     1      17.556   0.151  35.886  1.00  0.00     0.038 A 
HETATM   10  C11 UNK     1      17.911  -0.916  38.027  1.00  0.00     0.037 A 
HETATM   11  C12 UNK     1      17.284   0.060  37.252  1.00  0.00     0.006 A 
ENDROOT
BRANCH   5  12
HETATM   12  C4  UNK     1      19.745  -1.231  31.892  1.00  0.00    -0.002 A 
HETATM   13  C10 UNK     1      19.397   0.002  31.335  1.00  0.00     0.017 A 
HETATM   14  C14 UNK     1      19.552   0.222  29.967  1.00  0.00     0.037 A 
HETATM   15  C15 UNK     1      20.057  -0.791  29.151  1.00  0.00     0.065 A 
HETATM   16  C13 UNK     1      20.406  -2.023  29.704  1.00  0.00     0.037 A 
HETATM   17  C9  UNK     1      20.249  -2.244  31.073  1.00  0.00     0.017 A 
BRANCH  15  18
HETATM   18  O4  UNK     1      20.209  -0.577  27.816  1.00  0.00    -0.361 OA
HETATM   19  H10 UNK     1      20.011  -1.402  27.340  1.00  0.00     0.217 HD
ENDBRANCH  15  18
ENDBRANCH   5  12
BRANCH   8  20
HETATM   20  O2  UNK     1      19.398  -2.739  38.242  1.00  0.00    -0.360 OA
HETATM   21  H9  UNK     1      19.465  -2.414  39.153  1.00  0.00     0.217 HD
ENDBRANCH   8  20
TORSDOF 3
ENDMDL
MODEL 4
REMARK VINA RESULT:      -7.9      4.947      8.287
REMARK  3 active torsions:
REMARK  status: ('A' for Active; 'I' for Inactive)
REMARK    1  A    between atoms: C7_11  and  O2_2 
REMARK    2  A    between atoms: C15_19  and  O4_4 
REMARK    3  A    between atoms: C3_7  and  C4_8 
ROOT
HETATM    1  O1  UNK     1      17.719   8.584  33.024  1.00  0.00    -0.309 OA
HETATM    2  O3  UNK     1      14.309   7.063  31.395  1.00  0.00    -0.287 OA
HETATM    3  C1  UNK     1      15.309   8.720  32.752  1.00  0.00     0.081 A 
HETATM    4  C2  UNK     1      16.513   9.188  33.276  1.00  0.00     0.093 A 
HETATM    5  C3  UNK     1      17.737   7.454  32.220  1.00  0.00     0.090 A 
HETATM    6  C5  UNK     1      15.326   7.527  31.891  1.00  0.00     0.190 A 
HETATM    7  C6  UNK     1      16.648   6.913  31.654  1.00  0.00     0.094 A 
HETATM    8  C7  UNK     1      14.110   9.375  33.041  1.00  0.00     0.082 A 
HETATM    9  C8  UNK     1      16.525  10.318  34.093  1.00  0.00     0.038 A 
HETATM   10  C11 UNK     1      14.125  10.505  33.859  1.00  0.00     0.037 A 
HETATM   11  C12 UNK     1      15.329  10.976  34.384  1.00  0.00     0.006 A 
ENDROOT
BRANCH   5  12
HETATM   12  C4  UNK     1      19.086   6.889  32.011  1.00  0.00    -0.002 A 
HETATM   13  C10 UNK     1      19.405   6.262  30.804  1.00  0.00     0.017 A 
HETATM   14  C14 UNK     1      20.678   5.729  30.607  1.00  0.00     0.037 A 
HETATM   15  C15 UNK     1      21.636   5.821  31.616  1.00  0.00     0.065 A 
HETATM   16  C13 UNK     1      21.321   6.446  32.823  1.00  0.00     0.037 A 
HETATM   17  C9  UNK     1      20.047   6.978  33.021  1.00  0.00     0.017 A 
BRANCH  15  18
HETATM   18  O4  UNK     1      22.879   5.300  31.424  1.00  0.00    -0.361 OA
HETATM   19  H10 UNK     1      22.946   4.973  30.510  1.00  0.00     0.217 HD
ENDBRANCH  15  18
ENDBRANCH   5  12
BRANCH   8  20
HETATM   20  O2  UNK     1      12.909   8.957  32.553  1.00  0.00    -0.360 OA
HETATM   21  H9  UNK     1      12.198   9.157  33.180  1.00  0.00     0.217 HD
ENDBRANCH   8  20
TORSDOF 3
ENDMDL
MODEL 5
REMARK VINA RESULT:      -7.9     12.008     15.731
REMARK  3 active torsions:
REMARK  status: ('A' for Active; 'I' for Inactive)
REMARK    1  A    between atoms: C7_11  and  O2_2 
REMARK    2  A    between atoms: C15_19  and  O4_4 
REMARK    3  A    between atoms: C3_7  and  C4_8 
ROOT
HETATM    1  O1  UNK     1      18.939  -1.199  17.748  1.00  0.00    -0.309 OA
HETATM    2  O3  UNK     1      19.267   2.049  15.310  1.00  0.00    -0.287 OA
HETATM    3  C1  UNK     1      19.023   1.217  17.509  1.00  0.00     0.081 A 
HETATM    4  C2  UNK     1      18.916   0.063  18.284  1.00  0.00     0.093 A 
HETATM    5  C3  UNK     1      19.064  -1.331  16.373  1.00  0.00     0.090 A 
HETATM    6  C5  UNK     1      19.165   1.081  16.051  1.00  0.00     0.190 A 
HETATM    7  C6  UNK     1      19.180  -0.298  15.523  1.00  0.00     0.094 A 
HETATM    8  C7  UNK     1      18.995   2.477  18.109  1.00  0.00     0.082 A 
HETATM    9  C8  UNK     1      18.782   0.165  19.669  1.00  0.00     0.038 A 
HETATM   10  C11 UNK     1      18.860   2.576  19.495  1.00  0.00     0.037 A 
HETATM   11  C12 UNK     1      18.754   1.423  20.273  1.00  0.00     0.006 A 
ENDROOT
BRANCH   5  12
HETATM   12  C4  UNK     1      19.081  -2.731  15.904  1.00  0.00    -0.002 A 
HETATM   13  C10 UNK     1      17.906  -3.334  15.451  1.00  0.00     0.017 A 
HETATM   14  C14 UNK     1      17.922  -4.656  15.008  1.00  0.00     0.037 A 
HETATM   15  C15 UNK     1      19.115  -5.379  15.016  1.00  0.00     0.065 A 
HETATM   16  C13 UNK     1      20.291  -4.780  15.467  1.00  0.00     0.037 A 
HETATM   17  C9  UNK     1      20.274  -3.458  15.912  1.00  0.00     0.017 A 
BRANCH  15  18
HETATM   18  O4  UNK     1      19.132  -6.669  14.583  1.00  0.00    -0.361 OA
HETATM   19  H10 UNK     1      19.777  -7.171  15.112  1.00  0.00     0.217 HD
ENDBRANCH  15  18
ENDBRANCH   5  12
BRANCH   8  20
HETATM   20  O2  UNK     1      19.096   3.633  17.394  1.00  0.00    -0.360 OA
HETATM   21  H9  UNK     1      19.166   4.396  17.988  1.00  0.00     0.217 HD
ENDBRANCH   8  20
TORSDOF 3
ENDMDL
MODEL 6
REMARK VINA RESULT:      -7.7      3.436      4.254
REMARK  3 active torsions:
REMARK  status: ('A' for Active; 'I' for Inactive)
REMARK    1  A    between atoms: C7_11  and  O2_2 
REMARK    2  A    between atoms: C15_19  and  O4_4 
REMARK    3  A    between atoms: C3_7  and  C4_8 
ROOT
HETATM    1  O1  UNK     1      19.300  -0.294  32.797  1.00  0.00    -0.309 OA
HETATM    2  O3  UNK     1      17.936   2.632  30.312  1.00  0.00    -0.287 OA
HETATM    3  C1  UNK     1      19.092   0.584  30.542  1.00  0.00     0.081 A 
HETATM    4  C2  UNK     1      19.529  -0.381  31.448  1.00  0.00     0.093 A 
HETATM    5  C3  UNK     1      18.611   0.809  33.280  1.00  0.00     0.090 A 
HETATM    6  C5  UNK     1      18.352   1.749  31.049  1.00  0.00     0.190 A 
HETATM    7  C6  UNK     1      18.134   1.799  32.509  1.00  0.00     0.094 A 
HETATM    8  C7  UNK     1      19.353   0.442  29.177  1.00  0.00     0.082 A 
HETATM    9  C8  UNK     1      20.232  -1.497  30.992  1.00  0.00     0.038 A 
HETATM   10  C11 UNK     1      20.056  -0.675  28.725  1.00  0.00     0.037 A 
HETATM   11  C12 UNK     1      20.495  -1.642  29.629  1.00  0.00     0.006 A 
ENDROOT
BRANCH   5  12
HETATM   12  C4  UNK     1      18.416   0.800  34.744  1.00  0.00    -0.002 A 
HETATM   13  C10 UNK     1      18.386   2.001  35.456  1.00  0.00     0.017 A 
HETATM   14  C14 UNK     1      18.202   1.993  36.838  1.00  0.00     0.037 A 
HETATM   15  C15 UNK     1      18.046   0.782  37.513  1.00  0.00     0.065 A 
HETATM   16  C13 UNK     1      18.074  -0.420  36.806  1.00  0.00     0.037 A 
HETATM   17  C9  UNK     1      18.260  -0.411  35.423  1.00  0.00     0.017 A 
BRANCH  15  18
HETATM   18  O4  UNK     1      17.866   0.774  38.862  1.00  0.00    -0.361 OA
HETATM   19  H10 UNK     1      18.684   1.077  39.292  1.00  0.00     0.217 HD
ENDBRANCH  15  18
ENDBRANCH   5  12
BRANCH   8  20
HETATM   20  O2  UNK     1      18.947   1.358  28.254  1.00  0.00    -0.360 OA
HETATM   21  H9  UNK     1      19.696   1.892  27.950  1.00  0.00     0.217 HD
ENDBRANCH   8  20
TORSDOF 3
ENDMDL
MODEL 7
REMARK VINA RESULT:      -7.7      2.734      3.716
REMARK  3 active torsions:
REMARK  status: ('A' for Active; 'I' for Inactive)
REMARK    1  A    between atoms: C7_11  and  O2_2 
REMARK    2  A    between atoms: C15_19  and  O4_4 
REMARK    3  A    between atoms: C3_7  and  C4_8 
ROOT
HETATM    1  O1  UNK     1      18.319   3.603  34.326  1.00  0.00    -0.309 OA
HETATM    2  O3  UNK     1      18.269   1.491  30.842  1.00  0.00    -0.287 OA
HETATM    3  C1  UNK     1      18.355   1.448  33.204  1.00  0.00     0.081 A 
HETATM    4  C2  UNK     1      18.368   2.232  34.357  1.00  0.00     0.093 A 
HETATM    5  C3  UNK     1      18.264   4.235  33.093  1.00  0.00     0.090 A 
HETATM    6  C5  UNK     1      18.287   2.115  31.894  1.00  0.00     0.190 A 
HETATM    7  C6  UNK     1      18.240   3.591  31.915  1.00  0.00     0.094 A 
HETATM    8  C7  UNK     1      18.406   0.056  33.295  1.00  0.00     0.082 A 
HETATM    9  C8  UNK     1      18.430   1.625  35.612  1.00  0.00     0.038 A 
HETATM   10  C11 UNK     1      18.468  -0.548  34.551  1.00  0.00     0.037 A 
HETATM   11  C12 UNK     1      18.481   0.233  35.706  1.00  0.00     0.006 A 
ENDROOT
BRANCH   5  12
HETATM   12  C4  UNK     1      18.210   5.708  33.176  1.00  0.00    -0.002 A 
HETATM   13  C10 UNK     1      17.093   6.398  32.699  1.00  0.00     0.017 A 
HETATM   14  C14 UNK     1      17.042   7.789  32.778  1.00  0.00     0.037 A 
HETATM   15  C15 UNK     1      18.108   8.495  33.335  1.00  0.00     0.065 A 
HETATM   16  C13 UNK     1      19.225   7.810  33.812  1.00  0.00     0.037 A 
HETATM   17  C9  UNK     1      19.277   6.418  33.732  1.00  0.00     0.017 A 
BRANCH  15  18
HETATM   18  O4  UNK     1      18.059   9.853  33.412  1.00  0.00    -0.361 OA
HETATM   19  H10 UNK     1      18.936  10.214  33.194  1.00  0.00     0.217 HD
ENDBRANCH  15  18
ENDBRANCH   5  12
BRANCH   8  20
HETATM   20  O2  UNK     1      18.396  -0.751  32.198  1.00  0.00    -0.360 OA
HETATM   21  H9  UNK     1      17.922  -0.327  31.467  1.00  0.00     0.217 HD
ENDBRANCH   8  20
TORSDOF 3
ENDMDL
MODEL 8
REMARK VINA RESULT:      -7.6      3.679      4.841
REMARK  3 active torsions:
REMARK  status: ('A' for Active; 'I' for Inactive)
REMARK    1  A    between atoms: C7_11  and  O2_2 
REMARK    2  A    between atoms: C15_19  and  O4_4 
REMARK    3  A    between atoms: C3_7  and  C4_8 
ROOT
HETATM    1  O1  UNK     1      18.580   0.504  32.459  1.00  0.00    -0.309 OA
HETATM    2  O3  UNK     1      20.466  -3.107  32.473  1.00  0.00    -0.287 OA
HETATM    3  C1  UNK     1      19.834  -1.187  31.247  1.00  0.00     0.081 A 
HETATM    4  C2  UNK     1      19.173   0.039  31.313  1.00  0.00     0.093 A 
HETATM    5  C3  UNK     1      18.633  -0.285  33.598  1.00  0.00     0.090 A 
HETATM    6  C5  UNK     1      19.900  -2.022  32.456  1.00  0.00     0.190 A 
HETATM    7  C6  UNK     1      19.244  -1.478  33.662  1.00  0.00     0.094 A 
HETATM    8  C7  UNK     1      20.422  -1.610  30.054  1.00  0.00     0.082 A 
HETATM    9  C8  UNK     1      19.098   0.851  30.181  1.00  0.00     0.038 A 
HETATM   10  C11 UNK     1      20.344  -0.796  28.923  1.00  0.00     0.037 A 
HETATM   11  C12 UNK     1      19.684   0.431  28.986  1.00  0.00     0.006 A 
ENDROOT
BRANCH   5  12
HETATM   12  C4  UNK     1      17.967   0.313  34.773  1.00  0.00    -0.002 A 
HETATM   13  C10 UNK     1      18.664   1.197  35.600  1.00  0.00     0.017 A 
HETATM   14  C14 UNK     1      18.036   1.761  36.710  1.00  0.00     0.037 A 
HETATM   15  C15 UNK     1      16.708   1.445  36.995  1.00  0.00     0.065 A 
HETATM   16  C13 UNK     1      16.009   0.564  36.171  1.00  0.00     0.037 A 
HETATM   17  C9  UNK     1      16.637  -0.003  35.061  1.00  0.00     0.017 A 
BRANCH  15  18
HETATM   18  O4  UNK     1      16.094   1.996  38.077  1.00  0.00    -0.361 OA
HETATM   19  H10 UNK     1      16.771   2.243  38.732  1.00  0.00     0.217 HD
ENDBRANCH  15  18
ENDBRANCH   5  12
BRANCH   8  20
HETATM   20  O2  UNK     1      21.078  -2.799  29.940  1.00  0.00    -0.360 OA
HETATM   21  H9  UNK     1      21.217  -3.023  29.007  1.00  0.00     0.217 HD
ENDBRANCH   8  20
TORSDOF 3
ENDMDL
MODEL 9
REMARK VINA RESULT:      -7.6      3.793      5.351
REMARK  3 active torsions:
REMARK  status: ('A' for Active; 'I' for Inactive)
REMARK    1  A    between atoms: C7_11  and  O2_2 
REMARK    2  A    between atoms: C15_19  and  O4_4 
REMARK    3  A    between atoms: C3_7  and  C4_8 
ROOT
HETATM    1  O1  UNK     1      18.057   2.488  34.517  1.00  0.00    -0.309 OA
HETATM    2  O3  UNK     1      18.517  -1.417  33.450  1.00  0.00    -0.287 OA
HETATM    3  C1  UNK     1      18.089   0.148  35.169  1.00  0.00     0.081 A 
HETATM    4  C2  UNK     1      17.943   1.503  35.464  1.00  0.00     0.093 A 
HETATM    5  C3  UNK     1      18.340   2.119  33.210  1.00  0.00     0.090 A 
HETATM    6  C5  UNK     1      18.380  -0.247  33.782  1.00  0.00     0.190 A 
HETATM    7  C6  UNK     1      18.497   0.850  32.801  1.00  0.00     0.094 A 
HETATM    8  C7  UNK     1      17.960  -0.812  36.174  1.00  0.00     0.082 A 
HETATM    9  C8  UNK     1      17.665   1.905  36.771  1.00  0.00     0.038 A 
HETATM   10  C11 UNK     1      17.683  -0.407  37.480  1.00  0.00     0.037 A 
HETATM   11  C12 UNK     1      17.536   0.948  37.778  1.00  0.00     0.006 A 
ENDROOT
BRANCH   5  12
HETATM   12  C4  UNK     1      18.437   3.257  32.274  1.00  0.00    -0.002 A 
HETATM   13  C10 UNK     1      18.738   3.034  30.928  1.00  0.00     0.017 A 
HETATM   14  C14 UNK     1      18.830   4.108  30.043  1.00  0.00     0.037 A 
HETATM   15  C15 UNK     1      18.620   5.409  30.502  1.00  0.00     0.065 A 
HETATM   16  C13 UNK     1      18.319   5.635  31.845  1.00  0.00     0.037 A 
HETATM   17  C9  UNK     1      18.229   4.560  32.730  1.00  0.00     0.017 A 
BRANCH  15  18
HETATM   18  O4  UNK     1      18.709   6.457  29.639  1.00  0.00    -0.361 OA
HETATM   19  H10 UNK     1      18.180   6.259  28.846  1.00  0.00     0.217 HD
ENDBRANCH  15  18
ENDBRANCH   5  12
BRANCH   8  20
HETATM   20  O2  UNK     1      18.095  -2.147  35.935  1.00  0.00    -0.360 OA
HETATM   21  H9  UNK     1      18.347  -2.304  35.012  1.00  0.00     0.217 HD
ENDBRANCH   8  20
TORSDOF 3
ENDMDL
MODEL 10
REMARK VINA RESULT:      -7.6     23.915     24.907
REMARK  3 active torsions:
REMARK  status: ('A' for Active; 'I' for Inactive)
REMARK    1  A    between atoms: C7_11  and  O2_2 
REMARK    2  A    between atoms: C15_19  and  O4_4 
REMARK    3  A    between atoms: C3_7  and  C4_8 
ROOT
HETATM    1  O1  UNK     1       7.555   4.331   9.294  1.00  0.00    -0.309 OA
HETATM    2  O3  UNK     1       5.625   7.430  11.101  1.00  0.00    -0.287 OA
HETATM    3  C1  UNK     1       5.816   5.092  10.810  1.00  0.00     0.081 A 
HETATM    4  C2  UNK     1       6.519   4.080  10.158  1.00  0.00     0.093 A 
HETATM    5  C3  UNK     1       7.909   5.649   9.051  1.00  0.00     0.090 A 
HETATM    6  C5  UNK     1       6.195   6.492  10.562  1.00  0.00     0.190 A 
HETATM    7  C6  UNK     1       7.312   6.708   9.621  1.00  0.00     0.094 A 
HETATM    8  C7  UNK     1       4.771   4.779  11.681  1.00  0.00     0.082 A 
HETATM    9  C8  UNK     1       6.181   2.744  10.377  1.00  0.00     0.038 A 
HETATM   10  C11 UNK     1       4.434   3.442  11.897  1.00  0.00     0.037 A 
HETATM   11  C12 UNK     1       5.137   2.427  11.248  1.00  0.00     0.006 A 
ENDROOT
BRANCH   5  12
HETATM   12  C4  UNK     1       9.036   5.804   8.110  1.00  0.00    -0.002 A 
HETATM   13  C10 UNK     1      10.351   5.663   8.560  1.00  0.00     0.017 A 
HETATM   14  C14 UNK     1      11.416   5.809   7.671  1.00  0.00     0.037 A 
HETATM   15  C15 UNK     1      11.168   6.095   6.329  1.00  0.00     0.065 A 
HETATM   16  C13 UNK     1       9.857   6.235   5.875  1.00  0.00     0.037 A 
HETATM   17  C9  UNK     1       8.792   6.090   6.764  1.00  0.00     0.017 A 
BRANCH  15  18
HETATM   18  O4  UNK     1      12.207   6.237   5.461  1.00  0.00    -0.361 OA
HETATM   19  H10 UNK     1      12.773   5.447   5.514  1.00  0.00     0.217 HD
ENDBRANCH  15  18
ENDBRANCH   5  12
BRANCH   8  20
HETATM   20  O2  UNK     1       4.054   5.732  12.340  1.00  0.00    -0.360 OA
HETATM   21  H9  UNK     1       4.287   5.743  13.281  1.00  0.00     0.217 HD
ENDBRANCH   8  20
TORSDOF 3
ENDMDL
