MODEL 1
REMARK VINA RESULT:      -9.0      0.000      0.000
REMARK  6 active torsions:
REMARK  status: ('A' for Active; 'I' for Inactive)
REMARK    1  A    between atoms: C6_11  and  O1_2 
REMARK    2  A    between atoms: C9_14  and  O2_3 
REMARK    3  A    between atoms: C2_7  and  N1_5 
REMARK       I    between atoms: C4_9  and  N1_5 
REMARK    4  A    between atoms: C1_6  and  C3_8 
REMARK    5  A    between atoms: C1_6  and  C4_9 
REMARK    6  A    between atoms: C5_10  and  C8_13 
ROOT
HETATM    1  O3  UNK     1      21.472  -2.498  36.179  1.00  0.00    -0.267 OA
HETATM    2  N1  UNK     1      19.186  -2.687  35.717  1.00  0.00    -0.320 N 
HETATM    3  C4  UNK     1      20.417  -3.123  36.192  1.00  0.00     0.257 C 
HETATM    4  H1  UNK     1      18.384  -3.307  35.775  1.00  0.00     0.169 HD
ENDROOT
BRANCH   3   5
HETATM    5  C1  UNK     1      20.367  -4.524  36.761  1.00  0.00     0.043 C 
HETATM    6  C5  UNK     1      21.234  -4.797  37.770  1.00  0.00     0.029 C 
BRANCH   5   7
HETATM    7  C3  UNK     1      19.402  -5.527  36.263  1.00  0.00    -0.021 A 
HETATM    8  C10 UNK     1      19.803  -6.421  35.287  1.00  0.00     0.012 A 
HETATM    9  C16 UNK     1      18.893  -7.368  34.817  1.00  0.00     0.001 A 
HETATM   10  C18 UNK     1      17.598  -7.407  35.331  1.00  0.00     0.000 A 
HETATM   11  C17 UNK     1      17.211  -6.496  36.316  1.00  0.00     0.001 A 
HETATM   12  C11 UNK     1      18.121  -5.549  36.786  1.00  0.00     0.012 A 
ENDBRANCH   5   7
BRANCH   6  13
HETATM   13  C8  UNK     1      21.345  -6.048  38.503  1.00  0.00    -0.035 A 
HETATM   14  C14 UNK     1      22.598  -6.630  38.704  1.00  0.00     0.011 A 
HETATM   15  C19 UNK     1      22.704  -7.830  39.407  1.00  0.00     0.001 A 
HETATM   16  C21 UNK     1      21.561  -8.448  39.910  1.00  0.00     0.000 A 
HETATM   17  C20 UNK     1      20.308  -7.867  39.710  1.00  0.00     0.001 A 
HETATM   18  C15 UNK     1      20.201  -6.667  39.006  1.00  0.00     0.011 A 
ENDBRANCH   6  13
ENDBRANCH   3   5
BRANCH   2  19
HETATM   19  C2  UNK     1      18.885  -1.435  35.126  1.00  0.00     0.071 A 
HETATM   20  C6  UNK     1      18.496  -0.370  35.920  1.00  0.00     0.096 A 
HETATM   21  C12 UNK     1      18.204   0.856  35.323  1.00  0.00     0.065 A 
HETATM   22  C13 UNK     1      18.305   0.999  33.939  1.00  0.00     0.070 A 
HETATM   23 Cl1  UNK     1      17.938   2.527  33.226  1.00  0.00    -0.081 Cl
HETATM   24  C9  UNK     1      18.699  -0.083  33.152  1.00  0.00     0.092 A 
HETATM   25  C7  UNK     1      18.991  -1.309  33.750  1.00  0.00     0.071 A 
BRANCH  20  26
HETATM   26  O1  UNK     1      18.391  -0.489  37.274  1.00  0.00    -0.354 OA
HETATM   27  C22 UNK     1      17.672   0.534  37.961  1.00  0.00     0.210 C 
ENDBRANCH  20  26
BRANCH  24  28
HETATM   28  O2  UNK     1      18.806   0.029  31.799  1.00  0.00    -0.354 OA
HETATM   29  C23 UNK     1      19.907  -0.634  31.179  1.00  0.00     0.210 C 
ENDBRANCH  24  28
ENDBRANCH   2  19
TORSDOF 6
ENDMDL
MODEL 2
REMARK VINA RESULT:      -8.2      3.253      8.026
REMARK  6 active torsions:
REMARK  status: ('A' for Active; 'I' for Inactive)
REMARK    1  A    between atoms: C6_11  and  O1_2 
REMARK    2  A    between atoms: C9_14  and  O2_3 
REMARK    3  A    between atoms: C2_7  and  N1_5 
REMARK       I    between atoms: C4_9  and  N1_5 
REMARK    4  A    between atoms: C1_6  and  C3_8 
REMARK    5  A    between atoms: C1_6  and  C4_9 
REMARK    6  A    between atoms: C5_10  and  C8_13 
ROOT
HETATM    1  O3  UNK     1      20.159  -2.935  37.645  1.00  0.00    -0.267 OA
HETATM    2  N1  UNK     1      19.571  -4.602  36.112  1.00  0.00    -0.320 N 
HETATM    3  C4  UNK     1      19.798  -3.296  36.529  1.00  0.00     0.257 C 
HETATM    4  H1  UNK     1      19.261  -4.772  35.160  1.00  0.00     0.169 HD
ENDROOT
BRANCH   3   5
HETATM    5  C1  UNK     1      19.544  -2.277  35.441  1.00  0.00     0.043 C 
HETATM    6  C5  UNK     1      20.087  -2.544  34.225  1.00  0.00     0.029 C 
BRANCH   5   7
HETATM    7  C3  UNK     1      18.722  -1.073  35.685  1.00  0.00    -0.021 A 
HETATM    8  C10 UNK     1      19.351   0.137  35.919  1.00  0.00     0.012 A 
HETATM    9  C16 UNK     1      18.575   1.273  36.149  1.00  0.00     0.001 A 
HETATM   10  C18 UNK     1      17.183   1.181  36.141  1.00  0.00     0.000 A 
HETATM   11  C17 UNK     1      16.567  -0.048  35.904  1.00  0.00     0.001 A 
HETATM   12  C11 UNK     1      17.342  -1.184  35.674  1.00  0.00     0.012 A 
ENDBRANCH   5   7
BRANCH   6  13
HETATM   13  C8  UNK     1      19.948  -1.744  33.019  1.00  0.00    -0.035 A 
HETATM   14  C14 UNK     1      20.859  -1.896  31.972  1.00  0.00     0.011 A 
HETATM   15  C19 UNK     1      20.725  -1.130  30.815  1.00  0.00     0.001 A 
HETATM   16  C21 UNK     1      19.682  -0.212  30.703  1.00  0.00     0.000 A 
HETATM   17  C20 UNK     1      18.772  -0.059  31.749  1.00  0.00     0.001 A 
HETATM   18  C15 UNK     1      18.905  -0.826  32.907  1.00  0.00     0.011 A 
ENDBRANCH   6  13
ENDBRANCH   3   5
BRANCH   2  19
HETATM   19  C2  UNK     1      19.712  -5.788  36.875  1.00  0.00     0.071 A 
HETATM   20  C6  UNK     1      18.595  -6.533  37.209  1.00  0.00     0.096 A 
HETATM   21  C12 UNK     1      18.751  -7.698  37.959  1.00  0.00     0.065 A 
HETATM   22  C13 UNK     1      20.023  -8.101  38.365  1.00  0.00     0.070 A 
HETATM   23 Cl1  UNK     1      20.187  -9.547  39.293  1.00  0.00    -0.081 Cl
HETATM   24  C9  UNK     1      21.140  -7.340  38.020  1.00  0.00     0.092 A 
HETATM   25  C7  UNK     1      20.983  -6.175  37.269  1.00  0.00     0.071 A 
BRANCH  20  26
HETATM   26  O1  UNK     1      17.342  -6.156  36.823  1.00  0.00    -0.354 OA
HETATM   27  C22 UNK     1      16.734  -6.910  35.776  1.00  0.00     0.210 C 
ENDBRANCH  20  26
BRANCH  24  28
HETATM   28  O2  UNK     1      22.394  -7.710  38.403  1.00  0.00    -0.354 OA
HETATM   29  C23 UNK     1      22.918  -7.100  39.581  1.00  0.00     0.210 C 
ENDBRANCH  24  28
ENDBRANCH   2  19
TORSDOF 6
ENDMDL
MODEL 3
REMARK VINA RESULT:      -8.2      5.503     11.436
REMARK  6 active torsions:
REMARK  status: ('A' for Active; 'I' for Inactive)
REMARK    1  A    between atoms: C6_11  and  O1_2 
REMARK    2  A    between atoms: C9_14  and  O2_3 
REMARK    3  A    between atoms: C2_7  and  N1_5 
REMARK       I    between atoms: C4_9  and  N1_5 
REMARK    4  A    between atoms: C1_6  and  C3_8 
REMARK    5  A    between atoms: C1_6  and  C4_9 
REMARK    6  A    between atoms: C5_10  and  C8_13 
ROOT
HETATM    1  O3  UNK     1      20.479   4.140  35.460  1.00  0.00    -0.267 OA
HETATM    2  N1  UNK     1      18.470   3.473  34.464  1.00  0.00    -0.320 N 
HETATM    3  C4  UNK     1      19.499   4.360  34.756  1.00  0.00     0.257 C 
HETATM    4  H1  UNK     1      17.702   3.780  33.874  1.00  0.00     0.169 HD
ENDROOT
BRANCH   3   5
HETATM    5  C1  UNK     1      19.312   5.713  34.107  1.00  0.00     0.043 C 
HETATM    6  C5  UNK     1      19.132   6.765  34.948  1.00  0.00     0.029 C 
BRANCH   5   7
HETATM    7  C3  UNK     1      19.356   5.881  32.640  1.00  0.00    -0.021 A 
HETATM    8  C10 UNK     1      20.577   5.824  31.991  1.00  0.00     0.012 A 
HETATM    9  C16 UNK     1      20.619   5.983  30.606  1.00  0.00     0.001 A 
HETATM   10  C18 UNK     1      19.439   6.195  29.892  1.00  0.00     0.000 A 
HETATM   11  C17 UNK     1      18.217   6.250  30.564  1.00  0.00     0.001 A 
HETATM   12  C11 UNK     1      18.176   6.092  31.949  1.00  0.00     0.012 A 
ENDBRANCH   5   7
BRANCH   6  13
HETATM   13  C8  UNK     1      18.976   8.161  34.570  1.00  0.00    -0.035 A 
HETATM   14  C14 UNK     1      17.709   8.665  34.271  1.00  0.00     0.011 A 
HETATM   15  C19 UNK     1      17.560  10.003  33.909  1.00  0.00     0.001 A 
HETATM   16  C21 UNK     1      18.675  10.838  33.845  1.00  0.00     0.000 A 
HETATM   17  C20 UNK     1      19.941  10.334  34.143  1.00  0.00     0.001 A 
HETATM   18  C15 UNK     1      20.091   8.995  34.505  1.00  0.00     0.011 A 
ENDBRANCH   6  13
ENDBRANCH   3   5
BRANCH   2  19
HETATM   19  C2  UNK     1      18.335   2.133  34.907  1.00  0.00     0.071 A 
HETATM   20  C6  UNK     1      18.297   1.100  33.986  1.00  0.00     0.096 A 
HETATM   21  C12 UNK     1      18.165  -0.212  34.438  1.00  0.00     0.065 A 
HETATM   22  C13 UNK     1      18.071  -0.473  35.805  1.00  0.00     0.070 A 
HETATM   23 Cl1  UNK     1      17.908  -2.107  36.337  1.00  0.00    -0.081 Cl
HETATM   24  C9  UNK     1      18.111   0.578  36.721  1.00  0.00     0.092 A 
HETATM   25  C7  UNK     1      18.244   1.891  36.268  1.00  0.00     0.071 A 
BRANCH  20  26
HETATM   26  O1  UNK     1      18.386   1.334  32.646  1.00  0.00    -0.354 OA
HETATM   27  C22 UNK     1      19.040   0.341  31.858  1.00  0.00     0.210 C 
ENDBRANCH  20  26
BRANCH  24  28
HETATM   28  O2  UNK     1      18.022   0.352  38.061  1.00  0.00    -0.354 OA
HETATM   29  C23 UNK     1      17.694   1.469  38.886  1.00  0.00     0.210 C 
ENDBRANCH  24  28
ENDBRANCH   2  19
TORSDOF 6
ENDMDL
MODEL 4
REMARK VINA RESULT:      -8.2      8.599     12.060
REMARK  6 active torsions:
REMARK  status: ('A' for Active; 'I' for Inactive)
REMARK    1  A    between atoms: C6_11  and  O1_2 
REMARK    2  A    between atoms: C9_14  and  O2_3 
REMARK    3  A    between atoms: C2_7  and  N1_5 
REMARK       I    between atoms: C4_9  and  N1_5 
REMARK    4  A    between atoms: C1_6  and  C3_8 
REMARK    5  A    between atoms: C1_6  and  C4_9 
REMARK    6  A    between atoms: C5_10  and  C8_13 
ROOT
HETATM    1  O3  UNK     1      16.857   7.757  30.856  1.00  0.00    -0.267 OA
HETATM    2  N1  UNK     1      17.100   7.528  33.172  1.00  0.00    -0.320 N 
HETATM    3  C4  UNK     1      17.295   7.173  31.843  1.00  0.00     0.257 C 
HETATM    4  H1  UNK     1      17.508   6.954  33.903  1.00  0.00     0.169 HD
ENDROOT
BRANCH   3   5
HETATM    5  C1  UNK     1      18.136   5.927  31.682  1.00  0.00     0.043 C 
HETATM    6  C5  UNK     1      17.462   4.767  31.469  1.00  0.00     0.029 C 
BRANCH   5   7
HETATM    7  C3  UNK     1      19.612   5.979  31.724  1.00  0.00    -0.021 A 
HETATM    8  C10 UNK     1      20.327   5.810  30.551  1.00  0.00     0.012 A 
HETATM    9  C16 UNK     1      21.720   5.859  30.590  1.00  0.00     0.001 A 
HETATM   10  C18 UNK     1      22.377   6.077  31.801  1.00  0.00     0.000 A 
HETATM   11  C17 UNK     1      21.640   6.245  32.974  1.00  0.00     0.001 A 
HETATM   12  C11 UNK     1      20.246   6.196  32.935  1.00  0.00     0.012 A 
ENDBRANCH   5   7
BRANCH   6  13
HETATM   13  C8  UNK     1      18.045   3.454  31.242  1.00  0.00    -0.035 A 
HETATM   14  C14 UNK     1      18.350   3.040  29.944  1.00  0.00     0.011 A 
HETATM   15  C19 UNK     1      18.909   1.782  29.728  1.00  0.00     0.001 A 
HETATM   16  C21 UNK     1      19.165   0.937  30.806  1.00  0.00     0.000 A 
HETATM   17  C20 UNK     1      18.860   1.349  32.104  1.00  0.00     0.001 A 
HETATM   18  C15 UNK     1      18.300   2.609  32.321  1.00  0.00     0.011 A 
ENDBRANCH   6  13
ENDBRANCH   3   5
BRANCH   2  19
HETATM   19  C2  UNK     1      16.366   8.633  33.670  1.00  0.00     0.071 A 
HETATM   20  C6  UNK     1      15.005   8.517  33.891  1.00  0.00     0.096 A 
HETATM   21  C12 UNK     1      14.297   9.613  34.383  1.00  0.00     0.065 A 
HETATM   22  C13 UNK     1      14.961  10.811  34.647  1.00  0.00     0.070 A 
HETATM   23 Cl1  UNK     1      14.060  12.151  35.256  1.00  0.00    -0.081 Cl
HETATM   24  C9  UNK     1      16.333  10.913  34.420  1.00  0.00     0.092 A 
HETATM   25  C7  UNK     1      17.041   9.816  33.928  1.00  0.00     0.071 A 
BRANCH  20  26
HETATM   26  O1  UNK     1      14.336   7.355  33.640  1.00  0.00    -0.354 OA
HETATM   27  C22 UNK     1      13.632   7.268  32.403  1.00  0.00     0.210 C 
ENDBRANCH  20  26
BRANCH  24  28
HETATM   28  O2  UNK     1      17.007  12.070  34.669  1.00  0.00    -0.354 OA
HETATM   29  C23 UNK     1      18.259  12.245  34.008  1.00  0.00     0.210 C 
ENDBRANCH  24  28
ENDBRANCH   2  19
TORSDOF 6
ENDMDL
MODEL 5
REMARK VINA RESULT:      -8.2      3.484      7.975
REMARK  6 active torsions:
REMARK  status: ('A' for Active; 'I' for Inactive)
REMARK    1  A    between atoms: C6_11  and  O1_2 
REMARK    2  A    between atoms: C9_14  and  O2_3 
REMARK    3  A    between atoms: C2_7  and  N1_5 
REMARK       I    between atoms: C4_9  and  N1_5 
REMARK    4  A    between atoms: C1_6  and  C3_8 
REMARK    5  A    between atoms: C1_6  and  C4_9 
REMARK    6  A    between atoms: C5_10  and  C8_13 
ROOT
HETATM    1  O3  UNK     1      21.141  -4.155  36.835  1.00  0.00    -0.267 OA
HETATM    2  N1  UNK     1      18.977  -5.001  36.563  1.00  0.00    -0.320 N 
HETATM    3  C4  UNK     1      19.963  -4.024  36.518  1.00  0.00     0.257 C 
HETATM    4  H1  UNK     1      18.030  -4.763  36.283  1.00  0.00     0.169 HD
ENDROOT
BRANCH   3   5
HETATM    5  C1  UNK     1      19.450  -2.690  36.023  1.00  0.00     0.043 C 
HETATM    6  C5  UNK     1      18.899  -1.872  36.956  1.00  0.00     0.029 C 
BRANCH   5   7
HETATM    7  C3  UNK     1      19.574  -2.291  34.605  1.00  0.00    -0.021 A 
HETATM    8  C10 UNK     1      20.689  -2.686  33.888  1.00  0.00     0.012 A 
HETATM    9  C16 UNK     1      20.806  -2.310  32.550  1.00  0.00     0.001 A 
HETATM   10  C18 UNK     1      19.805  -1.545  31.950  1.00  0.00     0.000 A 
HETATM   11  C17 UNK     1      18.687  -1.156  32.689  1.00  0.00     0.001 A 
HETATM   12  C11 UNK     1      18.571  -1.532  34.027  1.00  0.00     0.012 A 
ENDBRANCH   5   7
BRANCH   6  13
HETATM   13  C8  UNK     1      18.379  -0.531  36.736  1.00  0.00    -0.035 A 
HETATM   14  C14 UNK     1      17.048  -0.241  37.038  1.00  0.00     0.011 A 
HETATM   15  C19 UNK     1      16.549   1.044  36.827  1.00  0.00     0.001 A 
HETATM   16  C21 UNK     1      17.380   2.039  36.314  1.00  0.00     0.000 A 
HETATM   17  C20 UNK     1      18.711   1.750  36.012  1.00  0.00     0.001 A 
HETATM   18  C15 UNK     1      19.210   0.464  36.223  1.00  0.00     0.011 A 
ENDBRANCH   6  13
ENDBRANCH   3   5
BRANCH   2  19
HETATM   19  C2  UNK     1      19.117  -6.349  36.976  1.00  0.00     0.071 A 
HETATM   20  C6  UNK     1      18.606  -7.370  36.193  1.00  0.00     0.096 A 
HETATM   21  C12 UNK     1      18.753  -8.691  36.612  1.00  0.00     0.065 A 
HETATM   22  C13 UNK     1      19.409  -8.974  37.811  1.00  0.00     0.070 A 
HETATM   23 Cl1  UNK     1      19.578 -10.619  38.306  1.00  0.00    -0.081 Cl
HETATM   24  C9  UNK     1      19.919  -7.935  38.589  1.00  0.00     0.092 A 
HETATM   25  C7  UNK     1      19.772  -6.613  38.168  1.00  0.00     0.071 A 
BRANCH  20  26
HETATM   26  O1  UNK     1      17.961  -7.115  35.018  1.00  0.00    -0.354 OA
HETATM   27  C22 UNK     1      16.573  -7.438  34.959  1.00  0.00     0.210 C 
ENDBRANCH  20  26
BRANCH  24  28
HETATM   28  O2  UNK     1      20.564  -8.182  39.763  1.00  0.00    -0.354 OA
HETATM   29  C23 UNK     1      21.990  -8.212  39.725  1.00  0.00     0.210 C 
ENDBRANCH  24  28
ENDBRANCH   2  19
TORSDOF 6
ENDMDL
MODEL 6
REMARK VINA RESULT:      -8.1      4.924     11.147
REMARK  6 active torsions:
REMARK  status: ('A' for Active; 'I' for Inactive)
REMARK    1  A    between atoms: C6_11  and  O1_2 
REMARK    2  A    between atoms: C9_14  and  O2_3 
REMARK    3  A    between atoms: C2_7  and  N1_5 
REMARK       I    between atoms: C4_9  and  N1_5 
REMARK    4  A    between atoms: C1_6  and  C3_8 
REMARK    5  A    between atoms: C1_6  and  C4_9 
REMARK    6  A    between atoms: C5_10  and  C8_13 
ROOT
HETATM    1  O3  UNK     1      19.616   3.810  35.226  1.00  0.00    -0.267 OA
HETATM    2  N1  UNK     1      18.006   2.533  34.108  1.00  0.00    -0.320 N 
HETATM    3  C4  UNK     1      18.718   3.690  34.398  1.00  0.00     0.257 C 
HETATM    4  H1  UNK     1      17.274   2.564  33.404  1.00  0.00     0.169 HD
ENDROOT
BRANCH   3   5
HETATM    5  C1  UNK     1      18.276   4.878  33.572  1.00  0.00     0.043 C 
HETATM    6  C5  UNK     1      17.275   5.634  34.092  1.00  0.00     0.029 C 
BRANCH   5   7
HETATM    7  C3  UNK     1      18.924   5.210  32.287  1.00  0.00    -0.021 A 
HETATM    8  C10 UNK     1      18.374   4.732  31.111  1.00  0.00     0.012 A 
HETATM    9  C16 UNK     1      18.986   5.046  29.897  1.00  0.00     0.001 A 
HETATM   10  C18 UNK     1      20.137   5.833  29.879  1.00  0.00     0.000 A 
HETATM   11  C17 UNK     1      20.677   6.306  31.075  1.00  0.00     0.001 A 
HETATM   12  C11 UNK     1      20.066   5.993  32.289  1.00  0.00     0.012 A 
ENDBRANCH   5   7
BRANCH   6  13
HETATM   13  C8  UNK     1      16.711   6.843  33.512  1.00  0.00    -0.035 A 
HETATM   14  C14 UNK     1      17.095   8.094  33.996  1.00  0.00     0.011 A 
HETATM   15  C19 UNK     1      16.554   9.253  33.440  1.00  0.00     0.001 A 
HETATM   16  C21 UNK     1      15.631   9.162  32.399  1.00  0.00     0.000 A 
HETATM   17  C20 UNK     1      15.247   7.911  31.914  1.00  0.00     0.001 A 
HETATM   18  C15 UNK     1      15.788   6.752  32.472  1.00  0.00     0.011 A 
ENDBRANCH   6  13
ENDBRANCH   3   5
BRANCH   2  19
HETATM   19  C2  UNK     1      18.164   1.253  34.694  1.00  0.00     0.071 A 
HETATM   20  C6  UNK     1      18.510   0.168  33.906  1.00  0.00     0.096 A 
HETATM   21  C12 UNK     1      18.664  -1.085  34.498  1.00  0.00     0.065 A 
HETATM   22  C13 UNK     1      18.468  -1.236  35.871  1.00  0.00     0.070 A 
HETATM   23 Cl1  UNK     1      18.665  -2.798  36.578  1.00  0.00    -0.081 Cl
HETATM   24  C9  UNK     1      18.121  -0.134  36.652  1.00  0.00     0.092 A 
HETATM   25  C7  UNK     1      17.968   1.120  36.059  1.00  0.00     0.071 A 
BRANCH  20  26
HETATM   26  O1  UNK     1      18.705   0.294  32.562  1.00  0.00    -0.354 OA
HETATM   27  C22 UNK     1      19.287  -0.817  31.885  1.00  0.00     0.210 C 
ENDBRANCH  20  26
BRANCH  24  28
HETATM   28  O2  UNK     1      17.924  -0.253  37.995  1.00  0.00    -0.354 OA
HETATM   29  C23 UNK     1      17.724   0.954  38.730  1.00  0.00     0.210 C 
ENDBRANCH  24  28
ENDBRANCH   2  19
TORSDOF 6
ENDMDL
MODEL 7
REMARK VINA RESULT:      -8.1      6.562     10.005
REMARK  6 active torsions:
REMARK  status: ('A' for Active; 'I' for Inactive)
REMARK    1  A    between atoms: C6_11  and  O1_2 
REMARK    2  A    between atoms: C9_14  and  O2_3 
REMARK    3  A    between atoms: C2_7  and  N1_5 
REMARK       I    between atoms: C4_9  and  N1_5 
REMARK    4  A    between atoms: C1_6  and  C3_8 
REMARK    5  A    between atoms: C1_6  and  C4_9 
REMARK    6  A    between atoms: C5_10  and  C8_13 
ROOT
HETATM    1  O3  UNK     1      25.771  -9.110  39.522  1.00  0.00    -0.267 OA
HETATM    2  N1  UNK     1      24.798  -8.270  37.567  1.00  0.00    -0.320 N 
HETATM    3  C4  UNK     1      25.837  -8.499  38.460  1.00  0.00     0.257 C 
HETATM    4  H1  UNK     1      24.979  -7.736  36.721  1.00  0.00     0.169 HD
ENDROOT
BRANCH   3   5
HETATM    5  C1  UNK     1      27.148  -7.896  38.007  1.00  0.00     0.043 C 
HETATM    6  C5  UNK     1      27.830  -7.171  38.931  1.00  0.00     0.029 C 
BRANCH   5   7
HETATM    7  C3  UNK     1      27.670  -8.114  36.641  1.00  0.00    -0.021 A 
HETATM    8  C10 UNK     1      27.843  -7.027  35.804  1.00  0.00     0.012 A 
HETATM    9  C16 UNK     1      28.335  -7.232  34.515  1.00  0.00     0.001 A 
HETATM   10  C18 UNK     1      28.647  -8.522  34.085  1.00  0.00     0.000 A 
HETATM   11  C17 UNK     1      28.466  -9.607  34.943  1.00  0.00     0.001 A 
HETATM   12  C11 UNK     1      27.974  -9.401  36.232  1.00  0.00     0.012 A 
ENDBRANCH   5   7
BRANCH   6  13
HETATM   13  C8  UNK     1      29.125  -6.533  38.750  1.00  0.00    -0.035 A 
HETATM   14  C14 UNK     1      30.259  -7.312  38.514  1.00  0.00     0.011 A 
HETATM   15  C19 UNK     1      31.500  -6.700  38.340  1.00  0.00     0.001 A 
HETATM   16  C21 UNK     1      31.608  -5.312  38.402  1.00  0.00     0.000 A 
HETATM   17  C20 UNK     1      30.475  -4.533  38.638  1.00  0.00     0.001 A 
HETATM   18  C15 UNK     1      29.233  -5.145  38.813  1.00  0.00     0.011 A 
ENDBRANCH   6  13
ENDBRANCH   3   5
BRANCH   2  19
HETATM   19  C2  UNK     1      23.451  -8.693  37.685  1.00  0.00     0.071 A 
HETATM   20  C6  UNK     1      22.978  -9.727  36.896  1.00  0.00     0.096 A 
HETATM   21  C12 UNK     1      21.650 -10.132  37.025  1.00  0.00     0.065 A 
HETATM   22  C13 UNK     1      20.813  -9.496  37.941  1.00  0.00     0.070 A 
HETATM   23 Cl1  UNK     1      19.174 -10.018  38.080  1.00  0.00    -0.081 Cl
HETATM   24  C9  UNK     1      21.303  -8.456  38.730  1.00  0.00     0.092 A 
HETATM   25  C7  UNK     1      22.632  -8.051  38.601  1.00  0.00     0.071 A 
BRANCH  20  26
HETATM   26  O1  UNK     1      23.780 -10.362  35.994  1.00  0.00    -0.354 OA
HETATM   27  C22 UNK     1      23.510 -11.740  35.745  1.00  0.00     0.210 C 
ENDBRANCH  20  26
BRANCH  24  28
HETATM   28  O2  UNK     1      20.508  -7.817  39.632  1.00  0.00    -0.354 OA
HETATM   29  C23 UNK     1      20.065  -6.504  39.291  1.00  0.00     0.210 C 
ENDBRANCH  24  28
ENDBRANCH   2  19
TORSDOF 6
ENDMDL
MODEL 8
REMARK VINA RESULT:      -7.9      6.831      9.711
REMARK  6 active torsions:
REMARK  status: ('A' for Active; 'I' for Inactive)
REMARK    1  A    between atoms: C6_11  and  O1_2 
REMARK    2  A    between atoms: C9_14  and  O2_3 
REMARK    3  A    between atoms: C2_7  and  N1_5 
REMARK       I    between atoms: C4_9  and  N1_5 
REMARK    4  A    between atoms: C1_6  and  C3_8 
REMARK    5  A    between atoms: C1_6  and  C4_9 
REMARK    6  A    between atoms: C5_10  and  C8_13 
ROOT
HETATM    1  O3  UNK     1      25.865  -9.217  39.483  1.00  0.00    -0.267 OA
HETATM    2  N1  UNK     1      24.817  -8.164  37.675  1.00  0.00    -0.320 N 
HETATM    3  C4  UNK     1      25.895  -8.509  38.481  1.00  0.00     0.257 C 
HETATM    4  H1  UNK     1      24.970  -7.558  36.875  1.00  0.00     0.169 HD
ENDROOT
BRANCH   3   5
HETATM    5  C1  UNK     1      27.199  -7.903  38.013  1.00  0.00     0.043 C 
HETATM    6  C5  UNK     1      27.899  -7.191  38.934  1.00  0.00     0.029 C 
BRANCH   5   7
HETATM    7  C3  UNK     1      27.697  -8.106  36.637  1.00  0.00    -0.021 A 
HETATM    8  C10 UNK     1      27.997  -9.388  36.210  1.00  0.00     0.012 A 
HETATM    9  C16 UNK     1      28.467  -9.580  34.911  1.00  0.00     0.001 A 
HETATM   10  C18 UNK     1      28.628  -8.487  34.059  1.00  0.00     0.000 A 
HETATM   11  C17 UNK     1      28.320  -7.202  34.507  1.00  0.00     0.001 A 
HETATM   12  C11 UNK     1      27.851  -7.010  35.806  1.00  0.00     0.012 A 
ENDBRANCH   5   7
BRANCH   6  13
HETATM   13  C8  UNK     1      29.192  -6.554  38.739  1.00  0.00    -0.035 A 
HETATM   14  C14 UNK     1      30.329  -7.335  38.526  1.00  0.00     0.011 A 
HETATM   15  C19 UNK     1      31.568  -6.724  38.338  1.00  0.00     0.001 A 
HETATM   16  C21 UNK     1      31.672  -5.334  38.363  1.00  0.00     0.000 A 
HETATM   17  C20 UNK     1      30.536  -4.553  38.576  1.00  0.00     0.001 A 
HETATM   18  C15 UNK     1      29.296  -5.164  38.765  1.00  0.00     0.011 A 
ENDBRANCH   6  13
ENDBRANCH   3   5
BRANCH   2  19
HETATM   19  C2  UNK     1      23.465  -8.557  37.829  1.00  0.00     0.071 A 
HETATM   20  C6  UNK     1      22.695  -8.006  38.839  1.00  0.00     0.096 A 
HETATM   21  C12 UNK     1      21.365  -8.402  38.977  1.00  0.00     0.065 A 
HETATM   22  C13 UNK     1      20.824  -9.346  38.103  1.00  0.00     0.070 A 
HETATM   23 Cl1  UNK     1      19.175  -9.818  38.297  1.00  0.00    -0.081 Cl
HETATM   24  C9  UNK     1      21.612  -9.892  37.090  1.00  0.00     0.092 A 
HETATM   25  C7  UNK     1      22.942  -9.495  36.952  1.00  0.00     0.071 A 
BRANCH  20  26
HETATM   26  O1  UNK     1      23.204  -7.083  39.704  1.00  0.00    -0.354 OA
HETATM   27  C22 UNK     1      23.284  -5.737  39.241  1.00  0.00     0.210 C 
ENDBRANCH  20  26
BRANCH  24  28
HETATM   28  O2  UNK     1      21.110 -10.814  36.223  1.00  0.00    -0.354 OA
HETATM   29  C23 UNK     1      21.741 -10.915  34.948  1.00  0.00     0.210 C 
ENDBRANCH  24  28
ENDBRANCH   2  19
TORSDOF 6
ENDMDL
MODEL 9
REMARK VINA RESULT:      -7.9      2.281      4.278
REMARK  6 active torsions:
REMARK  status: ('A' for Active; 'I' for Inactive)
REMARK    1  A    between atoms: C6_11  and  O1_2 
REMARK    2  A    between atoms: C9_14  and  O2_3 
REMARK    3  A    between atoms: C2_7  and  N1_5 
REMARK       I    between atoms: C4_9  and  N1_5 
REMARK    4  A    between atoms: C1_6  and  C3_8 
REMARK    5  A    between atoms: C1_6  and  C4_9 
REMARK    6  A    between atoms: C5_10  and  C8_13 
ROOT
HETATM    1  O3  UNK     1      17.764  -5.331  36.639  1.00  0.00    -0.267 OA
HETATM    2  N1  UNK     1      19.748  -4.195  36.141  1.00  0.00    -0.320 N 
HETATM    3  C4  UNK     1      18.984  -5.294  36.514  1.00  0.00     0.257 C 
HETATM    4  H1  UNK     1      20.758  -4.289  36.084  1.00  0.00     0.169 HD
ENDROOT
BRANCH   3   5
HETATM    5  C1  UNK     1      19.817  -6.528  36.783  1.00  0.00     0.043 C 
HETATM    6  C5  UNK     1      19.662  -7.560  35.914  1.00  0.00     0.029 C 
BRANCH   5   7
HETATM    7  C3  UNK     1      20.768  -6.589  37.912  1.00  0.00    -0.021 A 
HETATM    8  C10 UNK     1      22.006  -5.985  37.783  1.00  0.00     0.012 A 
HETATM    9  C16 UNK     1      22.905  -6.042  38.849  1.00  0.00     0.001 A 
HETATM   10  C18 UNK     1      22.551  -6.701  40.025  1.00  0.00     0.000 A 
HETATM   11  C17 UNK     1      21.298  -7.305  40.137  1.00  0.00     0.001 A 
HETATM   12  C11 UNK     1      20.399  -7.248  39.071  1.00  0.00     0.012 A 
ENDBRANCH   5   7
BRANCH   6  13
HETATM   13  C8  UNK     1      20.378  -8.826  35.936  1.00  0.00    -0.035 A 
HETATM   14  C14 UNK     1      21.442  -9.041  35.058  1.00  0.00     0.011 A 
HETATM   15  C19 UNK     1      22.129 -10.255  35.079  1.00  0.00     0.001 A 
HETATM   16  C21 UNK     1      21.754 -11.253  35.977  1.00  0.00     0.000 A 
HETATM   17  C20 UNK     1      20.690 -11.039  36.854  1.00  0.00     0.001 A 
HETATM   18  C15 UNK     1      20.003  -9.825  36.833  1.00  0.00     0.011 A 
ENDBRANCH   6  13
ENDBRANCH   3   5
BRANCH   2  19
HETATM   19  C2  UNK     1      19.288  -2.894  35.821  1.00  0.00     0.071 A 
HETATM   20  C6  UNK     1      19.694  -2.285  34.646  1.00  0.00     0.096 A 
HETATM   21  C12 UNK     1      19.231  -1.005  34.345  1.00  0.00     0.065 A 
HETATM   22  C13 UNK     1      18.369  -0.350  35.225  1.00  0.00     0.070 A 
HETATM   23 Cl1  UNK     1      17.812   1.234  34.827  1.00  0.00    -0.081 Cl
HETATM   24  C9  UNK     1      17.969  -0.976  36.405  1.00  0.00     0.092 A 
HETATM   25  C7  UNK     1      18.431  -2.257  36.706  1.00  0.00     0.071 A 
BRANCH  20  26
HETATM   26  O1  UNK     1      20.536  -2.908  33.773  1.00  0.00    -0.354 OA
HETATM   27  C22 UNK     1      20.678  -2.322  32.481  1.00  0.00     0.210 C 
ENDBRANCH  20  26
BRANCH  24  28
HETATM   28  O2  UNK     1      17.128  -0.360  37.282  1.00  0.00    -0.354 OA
HETATM   29  C23 UNK     1      17.696   0.630  38.137  1.00  0.00     0.210 C 
ENDBRANCH  24  28
ENDBRANCH   2  19
TORSDOF 6
ENDMDL
MODEL 10
REMARK VINA RESULT:      -7.8      9.615     12.232
REMARK  6 active torsions:
REMARK  status: ('A' for Active; 'I' for Inactive)
REMARK    1  A    between atoms: C6_11  and  O1_2 
REMARK    2  A    between atoms: C9_14  and  O2_3 
REMARK    3  A    between atoms: C2_7  and  N1_5 
REMARK       I    between atoms: C4_9  and  N1_5 
REMARK    4  A    between atoms: C1_6  and  C3_8 
REMARK    5  A    between atoms: C1_6  and  C4_9 
REMARK    6  A    between atoms: C5_10  and  C8_13 
ROOT
HETATM    1  O3  UNK     1      28.202 -10.079  34.542  1.00  0.00    -0.267 OA
HETATM    2  N1  UNK     1      29.299  -8.425  33.303  1.00  0.00    -0.320 N 
HETATM    3  C4  UNK     1      28.838  -9.033  34.465  1.00  0.00     0.257 C 
HETATM    4  H1  UNK     1      29.808  -7.549  33.370  1.00  0.00     0.169 HD
ENDROOT
BRANCH   3   5
HETATM    5  C1  UNK     1      29.193  -8.261  35.716  1.00  0.00     0.043 C 
HETATM    6  C5  UNK     1      30.164  -7.319  35.588  1.00  0.00     0.029 C 
BRANCH   5   7
HETATM    7  C3  UNK     1      28.495  -8.498  36.996  1.00  0.00    -0.021 A 
HETATM    8  C10 UNK     1      29.069  -9.340  37.931  1.00  0.00     0.012 A 
HETATM    9  C16 UNK     1      28.411  -9.565  39.140  1.00  0.00     0.001 A 
HETATM   10  C18 UNK     1      27.188  -8.944  39.394  1.00  0.00     0.000 A 
HETATM   11  C17 UNK     1      26.623  -8.098  38.439  1.00  0.00     0.001 A 
HETATM   12  C11 UNK     1      27.282  -7.873  37.230  1.00  0.00     0.012 A 
ENDBRANCH   5   7
BRANCH   6  13
HETATM   13  C8  UNK     1      30.645  -6.424  36.628  1.00  0.00    -0.035 A 
HETATM   14  C14 UNK     1      31.811  -6.734  37.331  1.00  0.00     0.011 A 
HETATM   15  C19 UNK     1      32.272  -5.875  38.328  1.00  0.00     0.001 A 
HETATM   16  C21 UNK     1      31.571  -4.708  38.623  1.00  0.00     0.000 A 
HETATM   17  C20 UNK     1      30.405  -4.397  37.922  1.00  0.00     0.001 A 
HETATM   18  C15 UNK     1      29.943  -5.257  36.924  1.00  0.00     0.011 A 
ENDBRANCH   6  13
ENDBRANCH   3   5
BRANCH   2  19
HETATM   19  C2  UNK     1      29.140  -8.880  31.971  1.00  0.00     0.071 A 
HETATM   20  C6  UNK     1      28.171  -8.318  31.158  1.00  0.00     0.096 A 
HETATM   21  C12 UNK     1      28.028  -8.776  29.849  1.00  0.00     0.065 A 
HETATM   22  C13 UNK     1      28.857  -9.791  29.370  1.00  0.00     0.070 A 
HETATM   23 Cl1  UNK     1      28.659 -10.338  27.746  1.00  0.00    -0.081 Cl
HETATM   24  C9  UNK     1      29.830 -10.347  30.201  1.00  0.00     0.092 A 
HETATM   25  C7  UNK     1      29.972  -9.889  31.511  1.00  0.00     0.071 A 
BRANCH  20  26
HETATM   26  O1  UNK     1      27.350  -7.325  31.606  1.00  0.00    -0.354 OA
HETATM   27  C22 UNK     1      26.478  -6.725  30.651  1.00  0.00     0.210 C 
ENDBRANCH  20  26
BRANCH  24  28
HETATM   28  O2  UNK     1      30.653 -11.339  29.760  1.00  0.00    -0.354 OA
HETATM   29  C23 UNK     1      30.531 -12.611  30.394  1.00  0.00     0.210 C 
ENDBRANCH  24  28
ENDBRANCH   2  19
TORSDOF 6
ENDMDL
