MODEL 1
REMARK VINA RESULT:      -7.6      0.000      0.000
REMARK  3 active torsions:
REMARK  status: ('A' for Active; 'I' for Inactive)
REMARK    1  A    between atoms: C1_7  and  N1_6 
REMARK    2  A    between atoms: C3_9  and  N1_6 
REMARK    3  A    between atoms: C4_10  and  N1_6 
ROOT
HETATM    1 Cl1  UNK     1      18.968  -0.571  32.229  1.00  0.00    -0.083 Cl
HETATM    2  O1  UNK     1      18.355   3.526  34.216  1.00  0.00    -0.274 OA
HETATM    3  O2  UNK     1      18.275   3.300  30.028  1.00  0.00    -0.273 OA
HETATM    4  O3  UNK     1      18.724   1.299  34.384  1.00  0.00    -0.259 OA
HETATM    5  O4  UNK     1      18.414   2.131  28.088  1.00  0.00    -0.260 OA
HETATM    6  C1  UNK     1      17.754   7.052  33.402  1.00  0.00     0.032 A 
HETATM    7  C2  UNK     1      18.118   4.607  32.060  1.00  0.00     0.033 A 
HETATM    8  C5  UNK     1      18.144   4.682  33.446  1.00  0.00     0.094 A 
HETATM    9  C6  UNK     1      17.966   5.884  34.129  1.00  0.00     0.067 A 
HETATM   10  C7  UNK     1      17.724   7.004  32.008  1.00  0.00     0.030 A 
HETATM   11  C8  UNK     1      18.315   3.299  31.441  1.00  0.00     0.110 A 
HETATM   12  C9  UNK     1      17.904   5.788  31.340  1.00  0.00     0.019 A 
HETATM   13  C10 UNK     1      18.517   2.181  32.160  1.00  0.00     0.096 A 
HETATM   14  C13 UNK     1      18.545   2.265  33.652  1.00  0.00     0.303 A 
HETATM   15  C14 UNK     1      18.700   0.938  31.424  1.00  0.00     0.059 A 
HETATM   16  C15 UNK     1      18.667   0.920  30.086  1.00  0.00     0.107 A 
HETATM   17  C16 UNK     1      18.444   2.152  29.313  1.00  0.00     0.289 A 
ENDROOT
BRANCH   6  18
HETATM   18  N1  UNK     1      17.570   8.279  34.070  1.00  0.00    -0.382 N 
BRANCH  18  19
HETATM   19  C3  UNK     1      16.462   8.457  34.986  1.00  0.00     0.118 C 
HETATM   20  C11 UNK     1      15.219   8.852  34.215  1.00  0.00     0.026 C 
ENDBRANCH  18  19
BRANCH  18  21
HETATM   21  C4  UNK     1      18.495   9.375  33.860  1.00  0.00     0.118 C 
HETATM   22  C12 UNK     1      19.848   9.023  34.443  1.00  0.00     0.026 C 
ENDBRANCH  18  21
ENDBRANCH   6  18
TORSDOF 3
ENDMDL
MODEL 2
REMARK VINA RESULT:      -7.5      1.843      3.777
REMARK  3 active torsions:
REMARK  status: ('A' for Active; 'I' for Inactive)
REMARK    1  A    between atoms: C1_7  and  N1_6 
REMARK    2  A    between atoms: C3_9  and  N1_6 
REMARK    3  A    between atoms: C4_10  and  N1_6 
ROOT
HETATM    1 Cl1  UNK     1      20.114  -2.085  29.776  1.00  0.00    -0.083 Cl
HETATM    2  O1  UNK     1      18.987   2.360  30.081  1.00  0.00    -0.274 OA
HETATM    3  O2  UNK     1      18.941   0.037  33.575  1.00  0.00    -0.273 OA
HETATM    4  O3  UNK     1      19.632   0.578  28.841  1.00  0.00    -0.259 OA
HETATM    5  O4  UNK     1      19.224  -1.931  34.669  1.00  0.00    -0.260 OA
HETATM    6  C1  UNK     1      17.953   4.899  32.518  1.00  0.00     0.032 A 
HETATM    7  C2  UNK     1      18.620   2.167  32.469  1.00  0.00     0.033 A 
HETATM    8  C5  UNK     1      18.635   2.936  31.313  1.00  0.00     0.094 A 
HETATM    9  C6  UNK     1      18.308   4.291  31.317  1.00  0.00     0.067 A 
HETATM   10  C7  UNK     1      17.929   4.148  33.694  1.00  0.00     0.030 A 
HETATM   11  C8  UNK     1      18.979   0.756  32.358  1.00  0.00     0.110 A 
HETATM   12  C9  UNK     1      18.261   2.790  33.670  1.00  0.00     0.019 A 
HETATM   13  C10 UNK     1      19.320   0.185  31.189  1.00  0.00     0.096 A 
HETATM   14  C13 UNK     1      19.335   1.016  29.946  1.00  0.00     0.303 A 
HETATM   15  C14 UNK     1      19.658  -1.230  31.211  1.00  0.00     0.059 A 
HETATM   16  C15 UNK     1      19.626  -1.928  32.354  1.00  0.00     0.107 A 
HETATM   17  C16 UNK     1      19.251  -1.289  33.625  1.00  0.00     0.289 A 
ENDROOT
BRANCH   6  18
HETATM   18  N1  UNK     1      17.620   6.267  32.547  1.00  0.00    -0.382 N 
BRANCH  18  19
HETATM   19  C3  UNK     1      16.237   6.690  32.444  1.00  0.00     0.118 C 
HETATM   20  C11 UNK     1      16.155   7.983  31.659  1.00  0.00     0.026 C 
ENDBRANCH  18  19
BRANCH  18  21
HETATM   21  C4  UNK     1      18.655   7.272  32.695  1.00  0.00     0.118 C 
HETATM   22  C12 UNK     1      18.869   7.573  34.165  1.00  0.00     0.026 C 
ENDBRANCH  18  21
ENDBRANCH   6  18
TORSDOF 3
ENDMDL
MODEL 3
REMARK VINA RESULT:      -7.3      1.632      2.562
REMARK  3 active torsions:
REMARK  status: ('A' for Active; 'I' for Inactive)
REMARK    1  A    between atoms: C1_7  and  N1_6 
REMARK    2  A    between atoms: C3_9  and  N1_6 
REMARK    3  A    between atoms: C4_10  and  N1_6 
ROOT
HETATM    1 Cl1  UNK     1      19.434  -2.099  32.823  1.00  0.00    -0.083 Cl
HETATM    2  O1  UNK     1      18.236   2.257  33.662  1.00  0.00    -0.274 OA
HETATM    3  O2  UNK     1      19.549   1.249  29.807  1.00  0.00    -0.273 OA
HETATM    4  O3  UNK     1      18.507   0.124  34.371  1.00  0.00    -0.259 OA
HETATM    5  O4  UNK     1      20.313  -0.253  28.286  1.00  0.00    -0.260 OA
HETATM    6  C1  UNK     1      17.975   5.530  32.026  1.00  0.00     0.032 A 
HETATM    7  C2  UNK     1      18.739   2.901  31.381  1.00  0.00     0.033 A 
HETATM    8  C5  UNK     1      18.304   3.235  32.656  1.00  0.00     0.094 A 
HETATM    9  C6  UNK     1      17.921   4.532  32.996  1.00  0.00     0.067 A 
HETATM   10  C7  UNK     1      18.408   5.221  30.737  1.00  0.00     0.030 A 
HETATM   11  C8  UNK     1      19.117   1.514  31.127  1.00  0.00     0.110 A 
HETATM   12  C9  UNK     1      18.788   3.913  30.415  1.00  0.00     0.019 A 
HETATM   13  C10 UNK     1      19.058   0.563  32.076  1.00  0.00     0.096 A 
HETATM   14  C13 UNK     1      18.590   0.925  33.448  1.00  0.00     0.303 A 
HETATM   15  C14 UNK     1      19.463  -0.783  31.696  1.00  0.00     0.059 A 
HETATM   16  C15 UNK     1      19.876  -1.053  30.452  1.00  0.00     0.107 A 
HETATM   17  C16 UNK     1      19.934  -0.002  29.425  1.00  0.00     0.289 A 
ENDROOT
BRANCH   6  18
HETATM   18  N1  UNK     1      17.591   6.847  32.345  1.00  0.00    -0.382 N 
BRANCH  18  19
HETATM   19  C3  UNK     1      18.067   7.478  33.560  1.00  0.00     0.118 C 
HETATM   20  C11 UNK     1      19.575   7.614  33.509  1.00  0.00     0.026 C 
ENDBRANCH  18  19
BRANCH  18  21
HETATM   21  C4  UNK     1      16.726   7.597  31.455  1.00  0.00     0.118 C 
HETATM   22  C12 UNK     1      15.279   7.381  31.846  1.00  0.00     0.026 C 
ENDBRANCH  18  21
ENDBRANCH   6  18
TORSDOF 3
ENDMDL
MODEL 4
REMARK VINA RESULT:      -7.2      3.610      6.867
REMARK  3 active torsions:
REMARK  status: ('A' for Active; 'I' for Inactive)
REMARK    1  A    between atoms: C1_7  and  N1_6 
REMARK    2  A    between atoms: C3_9  and  N1_6 
REMARK    3  A    between atoms: C4_10  and  N1_6 
ROOT
HETATM    1 Cl1  UNK     1      18.351   6.118  29.797  1.00  0.00    -0.083 Cl
HETATM    2  O1  UNK     1      18.458   1.910  31.642  1.00  0.00    -0.274 OA
HETATM    3  O2  UNK     1      18.204   5.218  34.211  1.00  0.00    -0.273 OA
HETATM    4  O3  UNK     1      18.476   3.257  29.822  1.00  0.00    -0.259 OA
HETATM    5  O4  UNK     1      18.092   7.454  34.584  1.00  0.00    -0.260 OA
HETATM    6  C1  UNK     1      18.394   0.194  34.883  1.00  0.00     0.032 A 
HETATM    7  C2  UNK     1      18.322   2.822  33.884  1.00  0.00     0.033 A 
HETATM    8  C5  UNK     1      18.406   1.727  33.034  1.00  0.00     0.094 A 
HETATM    9  C6  UNK     1      18.443   0.417  33.510  1.00  0.00     0.067 A 
HETATM   10  C7  UNK     1      18.310   1.277  35.759  1.00  0.00     0.030 A 
HETATM   11  C8  UNK     1      18.290   4.153  33.285  1.00  0.00     0.110 A 
HETATM   12  C9  UNK     1      18.274   2.584  35.262  1.00  0.00     0.019 A 
HETATM   13  C10 UNK     1      18.337   4.350  31.955  1.00  0.00     0.096 A 
HETATM   14  C13 UNK     1      18.428   3.170  31.043  1.00  0.00     0.303 A 
HETATM   15  C14 UNK     1      18.297   5.727  31.484  1.00  0.00     0.059 A 
HETATM   16  C15 UNK     1      18.217   6.748  32.346  1.00  0.00     0.107 A 
HETATM   17  C16 UNK     1      18.166   6.516  33.798  1.00  0.00     0.289 A 
ENDROOT
BRANCH   6  18
HETATM   18  N1  UNK     1      18.428  -1.121  35.388  1.00  0.00    -0.382 N 
BRANCH  18  19
HETATM   19  C3  UNK     1      17.423  -1.573  36.329  1.00  0.00     0.118 C 
HETATM   20  C11 UNK     1      17.986  -1.539  37.735  1.00  0.00     0.026 C 
ENDBRANCH  18  19
BRANCH  18  21
HETATM   21  C4  UNK     1      19.461  -2.046  34.962  1.00  0.00     0.118 C 
HETATM   22  C12 UNK     1      20.736  -1.780  35.735  1.00  0.00     0.026 C 
ENDBRANCH  18  21
ENDBRANCH   6  18
TORSDOF 3
ENDMDL
MODEL 5
REMARK VINA RESULT:      -7.2     23.001     24.552
REMARK  3 active torsions:
REMARK  status: ('A' for Active; 'I' for Inactive)
REMARK    1  A    between atoms: C1_7  and  N1_6 
REMARK    2  A    between atoms: C3_9  and  N1_6 
REMARK    3  A    between atoms: C4_10  and  N1_6 
ROOT
HETATM    1 Cl1  UNK     1      17.904   6.933  10.235  1.00  0.00    -0.083 Cl
HETATM    2  O1  UNK     1      13.696   5.451   9.134  1.00  0.00    -0.274 OA
HETATM    3  O2  UNK     1      14.202   9.500  10.112  1.00  0.00    -0.273 OA
HETATM    4  O3  UNK     1      15.900   5.043   9.453  1.00  0.00    -0.259 OA
HETATM    5  O4  UNK     1      15.494  11.257  10.736  1.00  0.00    -0.260 OA
HETATM    6  C1  UNK     1      10.245   6.631   8.751  1.00  0.00     0.032 A 
HETATM    7  C2  UNK     1      12.766   7.667   9.445  1.00  0.00     0.033 A 
HETATM    8  C5  UNK     1      12.599   6.327   9.121  1.00  0.00     0.094 A 
HETATM    9  C6  UNK     1      11.357   5.795   8.775  1.00  0.00     0.067 A 
HETATM   10  C7  UNK     1      10.386   7.982   9.073  1.00  0.00     0.030 A 
HETATM   11  C8  UNK     1      14.108   8.125   9.794  1.00  0.00     0.110 A 
HETATM   12  C9  UNK     1      11.640   8.497   9.417  1.00  0.00     0.019 A 
HETATM   13  C10 UNK     1      15.172   7.302   9.811  1.00  0.00     0.096 A 
HETATM   14  C13 UNK     1      14.988   5.861   9.462  1.00  0.00     0.303 A 
HETATM   15  C14 UNK     1      16.457   7.882  10.175  1.00  0.00     0.059 A 
HETATM   16  C15 UNK     1      16.565   9.181  10.480  1.00  0.00     0.107 A 
HETATM   17  C16 UNK     1      15.391  10.068  10.457  1.00  0.00     0.289 A 
ENDROOT
BRANCH   6  18
HETATM   18  N1  UNK     1       8.980   6.117   8.403  1.00  0.00    -0.382 N 
BRANCH  18  19
HETATM   19  C3  UNK     1       8.355   6.491   7.149  1.00  0.00     0.118 C 
HETATM   20  C11 UNK     1       9.286   6.170   5.998  1.00  0.00     0.026 C 
ENDBRANCH  18  19
BRANCH  18  21
HETATM   21  C4  UNK     1       8.292   5.196   9.287  1.00  0.00     0.118 C 
HETATM   22  C12 UNK     1       7.379   5.967  10.218  1.00  0.00     0.026 C 
ENDBRANCH  18  21
ENDBRANCH   6  18
TORSDOF 3
ENDMDL
MODEL 6
REMARK VINA RESULT:      -7.0      3.566      5.998
REMARK  3 active torsions:
REMARK  status: ('A' for Active; 'I' for Inactive)
REMARK    1  A    between atoms: C1_7  and  N1_6 
REMARK    2  A    between atoms: C3_9  and  N1_6 
REMARK    3  A    between atoms: C4_10  and  N1_6 
ROOT
HETATM    1 Cl1  UNK     1      18.745   5.892  30.180  1.00  0.00    -0.083 Cl
HETATM    2  O1  UNK     1      18.335   3.607  34.146  1.00  0.00    -0.274 OA
HETATM    3  O2  UNK     1      18.505   1.409  30.576  1.00  0.00    -0.273 OA
HETATM    4  O3  UNK     1      18.512   5.561  33.014  1.00  0.00    -0.259 OA
HETATM    5  O4  UNK     1      18.670   1.278  28.317  1.00  0.00    -0.260 OA
HETATM    6  C1  UNK     1      18.077   0.202  35.485  1.00  0.00     0.032 A 
HETATM    7  C2  UNK     1      18.325   1.477  32.990  1.00  0.00     0.033 A 
HETATM    8  C5  UNK     1      18.269   2.204  34.172  1.00  0.00     0.094 A 
HETATM    9  C6  UNK     1      18.146   1.591  35.418  1.00  0.00     0.067 A 
HETATM   10  C7  UNK     1      18.131  -0.552  34.312  1.00  0.00     0.030 A 
HETATM   11  C8  UNK     1      18.454   2.215  31.737  1.00  0.00     0.110 A 
HETATM   12  C9  UNK     1      18.255   0.082  33.071  1.00  0.00     0.019 A 
HETATM   13  C10 UNK     1      18.520   3.558  31.691  1.00  0.00     0.096 A 
HETATM   14  C13 UNK     1      18.459   4.338  32.964  1.00  0.00     0.303 A 
HETATM   15  C14 UNK     1      18.649   4.174  30.378  1.00  0.00     0.059 A 
HETATM   16  C15 UNK     1      18.698   3.427  29.268  1.00  0.00     0.107 A 
HETATM   17  C16 UNK     1      18.625   1.959  29.335  1.00  0.00     0.289 A 
ENDROOT
BRANCH   6  18
HETATM   18  N1  UNK     1      17.954  -0.440  36.733  1.00  0.00    -0.382 N 
BRANCH  18  19
HETATM   19  C3  UNK     1      17.832   0.336  37.950  1.00  0.00     0.118 C 
HETATM   20  C11 UNK     1      16.647   1.273  37.843  1.00  0.00     0.026 C 
ENDBRANCH  18  19
BRANCH  18  21
HETATM   21  C4  UNK     1      17.934  -1.888  36.815  1.00  0.00     0.118 C 
HETATM   22  C12 UNK     1      19.311  -2.398  37.186  1.00  0.00     0.026 C 
ENDBRANCH  18  21
ENDBRANCH   6  18
TORSDOF 3
ENDMDL
MODEL 7
REMARK VINA RESULT:      -7.0      2.317      3.460
REMARK  3 active torsions:
REMARK  status: ('A' for Active; 'I' for Inactive)
REMARK    1  A    between atoms: C1_7  and  N1_6 
REMARK    2  A    between atoms: C3_9  and  N1_6 
REMARK    3  A    between atoms: C4_10  and  N1_6 
ROOT
HETATM    1 Cl1  UNK     1      18.797  -1.588  36.472  1.00  0.00    -0.083 Cl
HETATM    2  O1  UNK     1      18.204   2.877  35.563  1.00  0.00    -0.274 OA
HETATM    3  O2  UNK     1      18.745   0.233  32.350  1.00  0.00    -0.273 OA
HETATM    4  O3  UNK     1      18.372   1.183  37.055  1.00  0.00    -0.259 OA
HETATM    5  O4  UNK     1      19.088  -1.847  31.511  1.00  0.00    -0.260 OA
HETATM    6  C1  UNK     1      18.005   5.235  32.760  1.00  0.00     0.032 A 
HETATM    7  C2  UNK     1      18.380   2.479  33.179  1.00  0.00     0.033 A 
HETATM    8  C5  UNK     1      18.201   3.354  34.241  1.00  0.00     0.094 A 
HETATM    9  C6  UNK     1      18.013   4.723  34.055  1.00  0.00     0.067 A 
HETATM   10  C7  UNK     1      18.183   4.377  31.674  1.00  0.00     0.030 A 
HETATM   11  C8  UNK     1      18.569   1.063  33.481  1.00  0.00     0.110 A 
HETATM   12  C9  UNK     1      18.369   3.006  31.882  1.00  0.00     0.019 A 
HETATM   13  C10 UNK     1      18.574   0.586  34.739  1.00  0.00     0.096 A 
HETATM   14  C13 UNK     1      18.381   1.530  35.881  1.00  0.00     0.303 A 
HETATM   15  C14 UNK     1      18.771  -0.846  34.907  1.00  0.00     0.059 A 
HETATM   16  C15 UNK     1      18.940  -1.648  33.848  1.00  0.00     0.107 A 
HETATM   17  C16 UNK     1      18.932  -1.110  32.479  1.00  0.00     0.289 A 
ENDROOT
BRANCH   6  18
HETATM   18  N1  UNK     1      17.815   6.615  32.546  1.00  0.00    -0.382 N 
BRANCH  18  19
HETATM   19  C3  UNK     1      18.582   7.587  33.299  1.00  0.00     0.118 C 
HETATM   20  C11 UNK     1      20.050   7.216  33.268  1.00  0.00     0.026 C 
ENDBRANCH  18  19
BRANCH  18  21
HETATM   21  C4  UNK     1      16.860   7.080  31.559  1.00  0.00     0.118 C 
HETATM   22  C12 UNK     1      15.463   7.043  32.142  1.00  0.00     0.026 C 
ENDBRANCH  18  21
ENDBRANCH   6  18
TORSDOF 3
ENDMDL
MODEL 8
REMARK VINA RESULT:      -6.9      2.720      5.029
REMARK  3 active torsions:
REMARK  status: ('A' for Active; 'I' for Inactive)
REMARK    1  A    between atoms: C1_7  and  N1_6 
REMARK    2  A    between atoms: C3_9  and  N1_6 
REMARK    3  A    between atoms: C4_10  and  N1_6 
ROOT
HETATM    1 Cl1  UNK     1      18.043  -2.413  35.860  1.00  0.00    -0.083 Cl
HETATM    2  O1  UNK     1      18.318   0.969  32.760  1.00  0.00    -0.274 OA
HETATM    3  O2  UNK     1      17.997   1.991  36.817  1.00  0.00    -0.273 OA
HETATM    4  O3  UNK     1      18.261  -1.240  33.257  1.00  0.00    -0.259 OA
HETATM    5  O4  UNK     1      17.814   1.433  39.009  1.00  0.00    -0.260 OA
HETATM    6  C1  UNK     1      18.368   4.627  32.498  1.00  0.00     0.032 A 
HETATM    7  C2  UNK     1      18.191   2.655  34.496  1.00  0.00     0.033 A 
HETATM    8  C5  UNK     1      18.297   2.317  33.154  1.00  0.00     0.094 A 
HETATM    9  C6  UNK     1      18.386   3.279  32.149  1.00  0.00     0.067 A 
HETATM   10  C7  UNK     1      18.262   4.993  33.840  1.00  0.00     0.030 A 
HETATM   11  C8  UNK     1      18.103   1.571  35.471  1.00  0.00     0.110 A 
HETATM   12  C9  UNK     1      18.174   4.013  34.834  1.00  0.00     0.019 A 
HETATM   13  C10 UNK     1      18.123   0.274  35.115  1.00  0.00     0.096 A 
HETATM   14  C13 UNK     1      18.237  -0.086  33.669  1.00  0.00     0.303 A 
HETATM   15  C14 UNK     1      18.029  -0.711  36.182  1.00  0.00     0.059 A 
HETATM   16  C15 UNK     1      17.927  -0.333  37.462  1.00  0.00     0.107 A 
HETATM   17  C16 UNK     1      17.907   1.090  37.836  1.00  0.00     0.289 A 
ENDROOT
BRANCH   6  18
HETATM   18  N1  UNK     1      18.459   5.618  31.501  1.00  0.00    -0.382 N 
BRANCH  18  19
HETATM   19  C3  UNK     1      18.159   7.001  31.811  1.00  0.00     0.118 C 
HETATM   20  C11 UNK     1      16.742   7.326  31.384  1.00  0.00     0.026 C 
ENDBRANCH  18  19
BRANCH  18  21
HETATM   21  C4  UNK     1      18.866   5.269  30.154  1.00  0.00     0.118 C 
HETATM   22  C12 UNK     1      20.203   5.909  29.842  1.00  0.00     0.026 C 
ENDBRANCH  18  21
ENDBRANCH   6  18
TORSDOF 3
ENDMDL
MODEL 9
REMARK VINA RESULT:      -6.8      5.305      8.329
REMARK  3 active torsions:
REMARK  status: ('A' for Active; 'I' for Inactive)
REMARK    1  A    between atoms: C1_7  and  N1_6 
REMARK    2  A    between atoms: C3_9  and  N1_6 
REMARK    3  A    between atoms: C4_10  and  N1_6 
ROOT
HETATM    1 Cl1  UNK     1      15.606  14.085  34.881  1.00  0.00    -0.083 Cl
HETATM    2  O1  UNK     1      18.042  10.324  33.861  1.00  0.00    -0.274 OA
HETATM    3  O2  UNK     1      13.915  10.305  33.100  1.00  0.00    -0.273 OA
HETATM    4  O3  UNK     1      17.938  12.438  34.667  1.00  0.00    -0.259 OA
HETATM    5  O4  UNK     1      11.876  11.301  33.119  1.00  0.00    -0.260 OA
HETATM    6  C1  UNK     1      17.668   6.949  32.475  1.00  0.00     0.032 A 
HETATM    7  C2  UNK     1      16.061   9.184  33.054  1.00  0.00     0.033 A 
HETATM    8  C5  UNK     1      17.427   9.190  33.305  1.00  0.00     0.094 A 
HETATM    9  C6  UNK     1      18.240   8.093  33.025  1.00  0.00     0.067 A 
HETATM   10  C7  UNK     1      16.298   6.917  32.212  1.00  0.00     0.030 A 
HETATM   11  C8  UNK     1      15.298  10.385  33.384  1.00  0.00     0.110 A 
HETATM   12  C9  UNK     1      15.498   8.029  32.500  1.00  0.00     0.019 A 
HETATM   13  C10 UNK     1      15.868  11.481  33.915  1.00  0.00     0.096 A 
HETATM   14  C13 UNK     1      17.338  11.485  34.185  1.00  0.00     0.303 A 
HETATM   15  C14 UNK     1      14.999  12.614  34.198  1.00  0.00     0.059 A 
HETATM   16  C15 UNK     1      13.686  12.557  33.937  1.00  0.00     0.107 A 
HETATM   17  C16 UNK     1      13.078  11.350  33.356  1.00  0.00     0.289 A 
ENDROOT
BRANCH   6  18
HETATM   18  N1  UNK     1      18.469   5.828  32.181  1.00  0.00    -0.382 N 
BRANCH  18  19
HETATM   19  C3  UNK     1      17.957   4.487  32.379  1.00  0.00     0.118 C 
HETATM   20  C11 UNK     1      18.328   3.997  33.763  1.00  0.00     0.026 C 
ENDBRANCH  18  19
BRANCH  18  21
HETATM   21  C4  UNK     1      19.813   6.001  31.664  1.00  0.00     0.118 C 
HETATM   22  C12 UNK     1      19.800   5.870  30.154  1.00  0.00     0.026 C 
ENDBRANCH  18  21
ENDBRANCH   6  18
TORSDOF 3
ENDMDL
MODEL 10
REMARK VINA RESULT:      -6.8     15.867     18.277
REMARK  3 active torsions:
REMARK  status: ('A' for Active; 'I' for Inactive)
REMARK    1  A    between atoms: C1_7  and  N1_6 
REMARK    2  A    between atoms: C3_9  and  N1_6 
REMARK    3  A    between atoms: C4_10  and  N1_6 
ROOT
HETATM    1 Cl1  UNK     1      27.172  -9.928  39.718  1.00  0.00    -0.083 Cl
HETATM    2  O1  UNK     1      31.151  -8.691  37.779  1.00  0.00    -0.274 OA
HETATM    3  O2  UNK     1      28.070  -5.852  38.017  1.00  0.00    -0.273 OA
HETATM    4  O3  UNK     1      29.862 -10.253  38.793  1.00  0.00    -0.259 OA
HETATM    5  O4  UNK     1      25.972  -5.227  38.612  1.00  0.00    -0.260 OA
HETATM    6  C1  UNK     1      32.804  -5.827  36.194  1.00  0.00     0.032 A 
HETATM    7  C2  UNK     1      30.320  -6.454  37.355  1.00  0.00     0.033 A 
HETATM    8  C5  UNK     1      31.340  -7.393  37.276  1.00  0.00     0.094 A 
HETATM    9  C6  UNK     1      32.578  -7.101  36.705  1.00  0.00     0.067 A 
HETATM   10  C7  UNK     1      31.796  -4.864  36.260  1.00  0.00     0.030 A 
HETATM   11  C8  UNK     1      29.061  -6.860  37.972  1.00  0.00     0.110 A 
HETATM   12  C9  UNK     1      30.561  -5.176  36.838  1.00  0.00     0.019 A 
HETATM   13  C10 UNK     1      28.860  -8.097  38.461  1.00  0.00     0.096 A 
HETATM   14  C13 UNK     1      29.959  -9.106  38.374  1.00  0.00     0.303 A 
HETATM   15  C14 UNK     1      27.560  -8.377  39.053  1.00  0.00     0.059 A 
HETATM   16  C15 UNK     1      26.609  -7.435  39.103  1.00  0.00     0.107 A 
HETATM   17  C16 UNK     1      26.844  -6.086  38.564  1.00  0.00     0.289 A 
ENDROOT
BRANCH   6  18
HETATM   18  N1  UNK     1      34.048  -5.507  35.614  1.00  0.00    -0.382 N 
BRANCH  18  19
HETATM   19  C3  UNK     1      35.283  -5.915  36.252  1.00  0.00     0.118 C 
HETATM   20  C11 UNK     1      36.131  -6.699  35.272  1.00  0.00     0.026 C 
ENDBRANCH  18  19
BRANCH  18  21
HETATM   21  C4  UNK     1      34.109  -4.778  34.362  1.00  0.00     0.118 C 
HETATM   22  C12 UNK     1      34.614  -3.372  34.613  1.00  0.00     0.026 C 
ENDBRANCH  18  21
ENDBRANCH   6  18
TORSDOF 3
ENDMDL
