MODEL 1
REMARK VINA RESULT:      -7.8      0.000      0.000
REMARK  3 active torsions:
REMARK  status: ('A' for Active; 'I' for Inactive)
REMARK    1  A    between atoms: C12_16  and  O2_2 
REMARK    2  A    between atoms: C5_9  and  O2_2 
REMARK    3  A    between atoms: C12_16  and  C13_17 
ROOT
HETATM    1  O1  UNK     1      19.253  -0.312  32.844  1.00  0.00    -0.274 OA
HETATM    2  O3  UNK     1      20.036  -2.404  33.331  1.00  0.00    -0.260 OA
HETATM    3  C1  UNK     1      19.415   0.522  30.554  1.00  0.00     0.005 A 
HETATM    4  C2  UNK     1      19.038   0.699  31.886  1.00  0.00     0.099 A 
HETATM    5  C3  UNK     1      18.433   1.872  32.341  1.00  0.00     0.007 A 
HETATM    6  C4  UNK     1      20.045  -0.746  30.163  1.00  0.00    -0.043 A 
HETATM    7  C5  UNK     1      18.195   2.905  31.441  1.00  0.00     0.087 A 
HETATM    8  C6  UNK     1      19.166   1.574  29.663  1.00  0.00     0.017 A 
HETATM    9  C7  UNK     1      18.561   2.757  30.104  1.00  0.00     0.039 A 
HETATM   10  C8  UNK     1      18.044   2.023  33.775  1.00  0.00     0.054 C 
HETATM   11  C9  UNK     1      20.237  -1.690  31.096  1.00  0.00     0.090 A 
HETATM   12  C10 UNK     1      20.461  -0.967  28.739  1.00  0.00     0.049 C 
HETATM   13  C11 UNK     1      19.845  -1.519  32.505  1.00  0.00     0.288 A 
ENDROOT
BRANCH   7  14
HETATM   14  O2  UNK     1      17.607   4.065  31.846  1.00  0.00    -0.278 OA
BRANCH  14  15
HETATM   15  C12 UNK     1      18.510   5.115  32.093  1.00  0.00     0.263 C 
HETATM   16  O4  UNK     1      19.128   5.286  33.136  1.00  0.00    -0.265 OA
BRANCH  15  17
HETATM   17  C13 UNK     1      18.600   5.998  30.869  1.00  0.00     0.107 C 
HETATM   18  C14 UNK     1      19.983   5.968  30.243  1.00  0.00     0.015 C 
ENDBRANCH  15  17
ENDBRANCH  14  15
ENDBRANCH   7  14
TORSDOF 3
ENDMDL
MODEL 2
REMARK VINA RESULT:      -7.4      1.738      2.758
REMARK  3 active torsions:
REMARK  status: ('A' for Active; 'I' for Inactive)
REMARK    1  A    between atoms: C12_16  and  O2_2 
REMARK    2  A    between atoms: C5_9  and  O2_2 
REMARK    3  A    between atoms: C12_16  and  C13_17 
ROOT
HETATM    1  O1  UNK     1      19.614   0.907  29.421  1.00  0.00    -0.274 OA
HETATM    2  O3  UNK     1      20.588  -0.750  28.183  1.00  0.00    -0.260 OA
HETATM    3  C1  UNK     1      19.108   0.500  31.775  1.00  0.00     0.005 A 
HETATM    4  C2  UNK     1      19.102   1.340  30.660  1.00  0.00     0.099 A 
HETATM    5  C3  UNK     1      18.598   2.640  30.708  1.00  0.00     0.007 A 
HETATM    6  C4  UNK     1      19.660  -0.854  31.634  1.00  0.00    -0.043 A 
HETATM    7  C5  UNK     1      18.080   3.123  31.906  1.00  0.00     0.087 A 
HETATM    8  C6  UNK     1      18.582   1.005  32.972  1.00  0.00     0.017 A 
HETATM    9  C7  UNK     1      18.072   2.307  33.035  1.00  0.00     0.039 A 
HETATM   10  C8  UNK     1      18.610   3.508  29.493  1.00  0.00     0.054 C 
HETATM   11  C9  UNK     1      20.139  -1.239  30.442  1.00  0.00     0.090 A 
HETATM   12  C10 UNK     1      19.680  -1.781  32.814  1.00  0.00     0.049 C 
HETATM   13  C11 UNK     1      20.141  -0.365  29.257  1.00  0.00     0.288 A 
ENDROOT
BRANCH   7  14
HETATM   14  O2  UNK     1      17.578   4.386  31.993  1.00  0.00    -0.278 OA
BRANCH  14  15
HETATM   15  C12 UNK     1      18.311   5.241  32.837  1.00  0.00     0.263 C 
HETATM   16  O4  UNK     1      18.073   5.441  34.021  1.00  0.00    -0.265 OA
BRANCH  15  17
HETATM   17  C13 UNK     1      19.438   5.874  32.053  1.00  0.00     0.107 C 
HETATM   18  C14 UNK     1      20.494   6.481  32.960  1.00  0.00     0.015 C 
ENDBRANCH  15  17
ENDBRANCH  14  15
ENDBRANCH   7  14
TORSDOF 3
ENDMDL
MODEL 3
REMARK VINA RESULT:      -7.2      2.291      5.854
REMARK  3 active torsions:
REMARK  status: ('A' for Active; 'I' for Inactive)
REMARK    1  A    between atoms: C12_16  and  O2_2 
REMARK    2  A    between atoms: C5_9  and  O2_2 
REMARK    3  A    between atoms: C12_16  and  C13_17 
ROOT
HETATM    1  O1  UNK     1      18.452   1.241  31.739  1.00  0.00    -0.274 OA
HETATM    2  O3  UNK     1      18.059   2.830  30.142  1.00  0.00    -0.260 OA
HETATM    3  C1  UNK     1      19.859  -0.679  31.194  1.00  0.00     0.005 A 
HETATM    4  C2  UNK     1      19.073   0.030  32.104  1.00  0.00     0.099 A 
HETATM    5  C3  UNK     1      18.860  -0.413  33.410  1.00  0.00     0.007 A 
HETATM    6  C4  UNK     1      20.030  -0.138  29.839  1.00  0.00    -0.043 A 
HETATM    7  C5  UNK     1      19.448  -1.603  33.827  1.00  0.00     0.087 A 
HETATM    8  C6  UNK     1      20.443  -1.875  31.633  1.00  0.00     0.017 A 
HETATM    9  C7  UNK     1      20.238  -2.333  32.941  1.00  0.00     0.039 A 
HETATM   10  C8  UNK     1      18.013   0.375  34.354  1.00  0.00     0.054 C 
HETATM   11  C9  UNK     1      19.427   1.016  29.520  1.00  0.00     0.090 A 
HETATM   12  C10 UNK     1      20.868  -0.877  28.838  1.00  0.00     0.049 C 
HETATM   13  C11 UNK     1      18.595   1.777  30.468  1.00  0.00     0.288 A 
ENDROOT
BRANCH   7  14
HETATM   14  O2  UNK     1      19.265  -2.068  35.094  1.00  0.00    -0.278 OA
BRANCH  14  15
HETATM   15  C12 UNK     1      20.440  -2.119  35.866  1.00  0.00     0.263 C 
HETATM   16  O4  UNK     1      21.437  -1.433  35.684  1.00  0.00    -0.265 OA
BRANCH  15  17
HETATM   17  C13 UNK     1      20.277  -3.153  36.957  1.00  0.00     0.107 C 
HETATM   18  C14 UNK     1      19.895  -4.514  36.401  1.00  0.00     0.015 C 
ENDBRANCH  15  17
ENDBRANCH  14  15
ENDBRANCH   7  14
TORSDOF 3
ENDMDL
MODEL 4
REMARK VINA RESULT:      -7.1      2.502      5.621
REMARK  3 active torsions:
REMARK  status: ('A' for Active; 'I' for Inactive)
REMARK    1  A    between atoms: C12_16  and  O2_2 
REMARK    2  A    between atoms: C5_9  and  O2_2 
REMARK    3  A    between atoms: C12_16  and  C13_17 
ROOT
HETATM    1  O1  UNK     1      18.771   0.681  30.671  1.00  0.00    -0.274 OA
HETATM    2  O3  UNK     1      18.842   1.302  28.471  1.00  0.00    -0.260 OA
HETATM    3  C1  UNK     1      18.388   2.382  32.381  1.00  0.00     0.005 A 
HETATM    4  C2  UNK     1      18.615   1.053  32.021  1.00  0.00     0.099 A 
HETATM    5  C3  UNK     1      18.698   0.028  32.964  1.00  0.00     0.007 A 
HETATM    6  C4  UNK     1      18.314   3.396  31.321  1.00  0.00    -0.043 A 
HETATM    7  C5  UNK     1      18.551   0.335  34.313  1.00  0.00     0.087 A 
HETATM    8  C6  UNK     1      18.242   2.670  33.744  1.00  0.00     0.017 A 
HETATM    9  C7  UNK     1      18.323   1.653  34.703  1.00  0.00     0.039 A 
HETATM   10  C8  UNK     1      18.942  -1.383  32.539  1.00  0.00     0.054 C 
HETATM   11  C9  UNK     1      18.467   3.013  30.044  1.00  0.00     0.090 A 
HETATM   12  C10 UNK     1      18.072   4.834  31.675  1.00  0.00     0.049 C 
HETATM   13  C11 UNK     1      18.707   1.616  29.648  1.00  0.00     0.288 A 
ENDROOT
BRANCH   7  14
HETATM   14  O2  UNK     1      18.625  -0.637  35.264  1.00  0.00    -0.278 OA
BRANCH  14  15
HETATM   15  C12 UNK     1      17.402  -0.917  35.901  1.00  0.00     0.263 C 
HETATM   16  O4  UNK     1      16.343  -1.143  35.331  1.00  0.00    -0.265 OA
BRANCH  15  17
HETATM   17  C13 UNK     1      17.601  -0.896  37.400  1.00  0.00     0.107 C 
HETATM   18  C14 UNK     1      17.604   0.517  37.956  1.00  0.00     0.015 C 
ENDBRANCH  15  17
ENDBRANCH  14  15
ENDBRANCH   7  14
TORSDOF 3
ENDMDL
MODEL 5
REMARK VINA RESULT:      -7.0      1.355      5.544
REMARK  3 active torsions:
REMARK  status: ('A' for Active; 'I' for Inactive)
REMARK    1  A    between atoms: C12_16  and  O2_2 
REMARK    2  A    between atoms: C5_9  and  O2_2 
REMARK    3  A    between atoms: C12_16  and  C13_17 
ROOT
HETATM    1  O1  UNK     1      18.000   4.005  33.437  1.00  0.00    -0.274 OA
HETATM    2  O3  UNK     1      17.578   5.961  34.546  1.00  0.00    -0.260 OA
HETATM    3  C1  UNK     1      18.544   4.074  31.058  1.00  0.00     0.005 A 
HETATM    4  C2  UNK     1      18.333   3.353  32.234  1.00  0.00     0.099 A 
HETATM    5  C3  UNK     1      18.439   1.962  32.286  1.00  0.00     0.007 A 
HETATM    6  C4  UNK     1      18.413   5.536  31.095  1.00  0.00    -0.043 A 
HETATM    7  C5  UNK     1      18.767   1.263  31.129  1.00  0.00     0.087 A 
HETATM    8  C6  UNK     1      18.874   3.351  29.903  1.00  0.00     0.017 A 
HETATM    9  C7  UNK     1      18.983   1.956  29.939  1.00  0.00     0.039 A 
HETATM   10  C8  UNK     1      18.206   1.227  33.565  1.00  0.00     0.054 C 
HETATM   11  C9  UNK     1      18.094   6.130  32.254  1.00  0.00     0.090 A 
HETATM   12  C10 UNK     1      18.634   6.340  29.847  1.00  0.00     0.049 C 
HETATM   13  C11 UNK     1      17.868   5.384  33.503  1.00  0.00     0.288 A 
ENDROOT
BRANCH   7  14
HETATM   14  O2  UNK     1      18.880  -0.094  31.139  1.00  0.00    -0.278 OA
BRANCH  14  15
HETATM   15  C12 UNK     1      20.168  -0.568  30.829  1.00  0.00     0.263 C 
HETATM   16  O4  UNK     1      21.202  -0.227  31.388  1.00  0.00    -0.265 OA
BRANCH  15  17
HETATM   17  C13 UNK     1      20.075  -1.567  29.698  1.00  0.00     0.107 C 
HETATM   18  C14 UNK     1      19.799  -0.896  28.364  1.00  0.00     0.015 C 
ENDBRANCH  15  17
ENDBRANCH  14  15
ENDBRANCH   7  14
TORSDOF 3
ENDMDL
MODEL 6
REMARK VINA RESULT:      -7.0      2.987      5.159
REMARK  3 active torsions:
REMARK  status: ('A' for Active; 'I' for Inactive)
REMARK    1  A    between atoms: C12_16  and  O2_2 
REMARK    2  A    between atoms: C5_9  and  O2_2 
REMARK    3  A    between atoms: C12_16  and  C13_17 
ROOT
HETATM    1  O1  UNK     1      17.978   1.256  36.166  1.00  0.00    -0.274 OA
HETATM    2  O3  UNK     1      17.608   1.394  38.418  1.00  0.00    -0.260 OA
HETATM    3  C1  UNK     1      18.548  -0.904  35.179  1.00  0.00     0.005 A 
HETATM    4  C2  UNK     1      18.302   0.464  35.047  1.00  0.00     0.099 A 
HETATM    5  C3  UNK     1      18.363   1.118  33.815  1.00  0.00     0.007 A 
HETATM    6  C4  UNK     1      18.462  -1.509  36.514  1.00  0.00    -0.043 A 
HETATM    7  C5  UNK     1      18.678   0.387  32.674  1.00  0.00     0.087 A 
HETATM    8  C6  UNK     1      18.864  -1.622  34.018  1.00  0.00     0.017 A 
HETATM    9  C7  UNK     1      18.928  -0.980  32.775  1.00  0.00     0.039 A 
HETATM   10  C8  UNK     1      18.093   2.584  33.716  1.00  0.00     0.054 C 
HETATM   11  C9  UNK     1      18.151  -0.731  37.561  1.00  0.00     0.090 A 
HETATM   12  C10 UNK     1      18.720  -2.977  36.689  1.00  0.00     0.049 C 
HETATM   13  C11 UNK     1      17.889   0.713  37.439  1.00  0.00     0.288 A 
ENDROOT
BRANCH   7  14
HETATM   14  O2  UNK     1      18.746   0.989  31.455  1.00  0.00    -0.278 OA
BRANCH  14  15
HETATM   15  C12 UNK     1      19.788   0.517  30.635  1.00  0.00     0.263 C 
HETATM   16  O4  UNK     1      20.883   0.139  31.030  1.00  0.00    -0.265 OA
BRANCH  15  17
HETATM   17  C13 UNK     1      19.344   0.549  29.191  1.00  0.00     0.107 C 
HETATM   18  C14 UNK     1      18.208   1.532  28.964  1.00  0.00     0.015 C 
ENDBRANCH  15  17
ENDBRANCH  14  15
ENDBRANCH   7  14
TORSDOF 3
ENDMDL
MODEL 7
REMARK VINA RESULT:      -7.0      3.610      8.035
REMARK  3 active torsions:
REMARK  status: ('A' for Active; 'I' for Inactive)
REMARK    1  A    between atoms: C12_16  and  O2_2 
REMARK    2  A    between atoms: C5_9  and  O2_2 
REMARK    3  A    between atoms: C12_16  and  C13_17 
ROOT
HETATM    1  O1  UNK     1      16.730   8.993  33.281  1.00  0.00    -0.274 OA
HETATM    2  O3  UNK     1      16.233  11.143  33.882  1.00  0.00    -0.260 OA
HETATM    3  C1  UNK     1      18.998   8.151  33.621  1.00  0.00     0.005 A 
HETATM    4  C2  UNK     1      17.684   7.959  33.191  1.00  0.00     0.099 A 
HETATM    5  C3  UNK     1      17.244   6.749  32.654  1.00  0.00     0.007 A 
HETATM    6  C4  UNK     1      19.374   9.459  34.174  1.00  0.00    -0.043 A 
HETATM    7  C5  UNK     1      18.141   5.692  32.540  1.00  0.00     0.087 A 
HETATM    8  C6  UNK     1      19.885   7.074  33.498  1.00  0.00     0.017 A 
HETATM    9  C7  UNK     1      19.459   5.854  32.961  1.00  0.00     0.039 A 
HETATM   10  C8  UNK     1      15.829   6.583  32.205  1.00  0.00     0.054 C 
HETATM   11  C9  UNK     1      18.446  10.424  34.248  1.00  0.00     0.090 A 
HETATM   12  C10 UNK     1      20.778   9.697  34.646  1.00  0.00     0.049 C 
HETATM   13  C11 UNK     1      17.056  10.238  33.799  1.00  0.00     0.288 A 
ENDROOT
BRANCH   7  14
HETATM   14  O2  UNK     1      17.749   4.495  32.022  1.00  0.00    -0.278 OA
BRANCH  14  15
HETATM   15  C12 UNK     1      18.442   4.115  30.857  1.00  0.00     0.263 C 
HETATM   16  O4  UNK     1      18.924   4.886  30.038  1.00  0.00    -0.265 OA
BRANCH  15  17
HETATM   17  C13 UNK     1      18.497   2.607  30.776  1.00  0.00     0.107 C 
HETATM   18  C14 UNK     1      18.160   2.097  29.386  1.00  0.00     0.015 C 
ENDBRANCH  15  17
ENDBRANCH  14  15
ENDBRANCH   7  14
TORSDOF 3
ENDMDL
MODEL 8
REMARK VINA RESULT:      -7.0      4.217      8.536
REMARK  3 active torsions:
REMARK  status: ('A' for Active; 'I' for Inactive)
REMARK    1  A    between atoms: C12_16  and  O2_2 
REMARK    2  A    between atoms: C5_9  and  O2_2 
REMARK    3  A    between atoms: C12_16  and  C13_17 
ROOT
HETATM    1  O1  UNK     1      18.929  -0.245  34.030  1.00  0.00    -0.274 OA
HETATM    2  O3  UNK     1      18.112   1.594  32.945  1.00  0.00    -0.260 OA
HETATM    3  C1  UNK     1      18.402  -0.571  36.392  1.00  0.00     0.005 A 
HETATM    4  C2  UNK     1      19.030  -0.994  35.220  1.00  0.00     0.099 A 
HETATM    5  C3  UNK     1      19.784  -2.167  35.158  1.00  0.00     0.007 A 
HETATM    6  C4  UNK     1      17.628   0.676  36.366  1.00  0.00    -0.043 A 
HETATM    7  C5  UNK     1      19.918  -2.947  36.301  1.00  0.00     0.087 A 
HETATM    8  C6  UNK     1      18.549  -1.372  37.533  1.00  0.00     0.017 A 
HETATM    9  C7  UNK     1      19.303  -2.551  37.487  1.00  0.00     0.039 A 
HETATM   10  C8  UNK     1      20.440  -2.585  33.883  1.00  0.00     0.054 C 
HETATM   11  C9  UNK     1      17.549   1.368  35.220  1.00  0.00     0.090 A 
HETATM   12  C10 UNK     1      16.940   1.158  37.610  1.00  0.00     0.049 C 
HETATM   13  C11 UNK     1      18.205   0.936  33.975  1.00  0.00     0.288 A 
ENDROOT
BRANCH   7  14
HETATM   14  O2  UNK     1      20.645  -4.099  36.281  1.00  0.00    -0.278 OA
BRANCH  14  15
HETATM   15  C12 UNK     1      19.996  -5.202  36.866  1.00  0.00     0.263 C 
HETATM   16  O4  UNK     1      18.910  -5.648  36.521  1.00  0.00    -0.265 OA
BRANCH  15  17
HETATM   17  C13 UNK     1      20.851  -5.751  37.985  1.00  0.00     0.107 C 
HETATM   18  C14 UNK     1      20.040  -6.568  38.975  1.00  0.00     0.015 C 
ENDBRANCH  15  17
ENDBRANCH  14  15
ENDBRANCH   7  14
TORSDOF 3
ENDMDL
MODEL 9
REMARK VINA RESULT:      -7.0      1.837      3.388
REMARK  3 active torsions:
REMARK  status: ('A' for Active; 'I' for Inactive)
REMARK    1  A    between atoms: C12_16  and  O2_2 
REMARK    2  A    between atoms: C5_9  and  O2_2 
REMARK    3  A    between atoms: C12_16  and  C13_17 
ROOT
HETATM    1  O1  UNK     1      18.598   0.540  31.931  1.00  0.00    -0.274 OA
HETATM    2  O3  UNK     1      18.819  -1.721  32.184  1.00  0.00    -0.260 OA
HETATM    3  C1  UNK     1      18.323   1.943  33.912  1.00  0.00     0.005 A 
HETATM    4  C2  UNK     1      18.427   1.806  32.527  1.00  0.00     0.099 A 
HETATM    5  C3  UNK     1      18.368   2.900  31.663  1.00  0.00     0.007 A 
HETATM    6  C4  UNK     1      18.395   0.736  34.746  1.00  0.00    -0.043 A 
HETATM    7  C5  UNK     1      18.201   4.175  32.193  1.00  0.00     0.087 A 
HETATM    8  C6  UNK     1      18.155   3.235  34.426  1.00  0.00     0.017 A 
HETATM    9  C7  UNK     1      18.094   4.343  33.572  1.00  0.00     0.039 A 
HETATM   10  C8  UNK     1      18.484   2.712  30.185  1.00  0.00     0.054 C 
HETATM   11  C9  UNK     1      18.559  -0.455  34.152  1.00  0.00     0.090 A 
HETATM   12  C10 UNK     1      18.288   0.849  36.238  1.00  0.00     0.049 C 
HETATM   13  C11 UNK     1      18.670  -0.616  32.693  1.00  0.00     0.288 A 
ENDROOT
BRANCH   7  14
HETATM   14  O2  UNK     1      18.140   5.268  31.383  1.00  0.00    -0.278 OA
BRANCH  14  15
HETATM   15  C12 UNK     1      18.946   6.343  31.800  1.00  0.00     0.263 C 
HETATM   16  O4  UNK     1      18.541   7.363  32.341  1.00  0.00    -0.265 OA
BRANCH  15  17
HETATM   17  C13 UNK     1      20.392   6.039  31.478  1.00  0.00     0.107 C 
HETATM   18  C14 UNK     1      21.311   6.327  32.652  1.00  0.00     0.015 C 
ENDBRANCH  15  17
ENDBRANCH  14  15
ENDBRANCH   7  14
TORSDOF 3
ENDMDL
MODEL 10
REMARK VINA RESULT:      -6.9      2.463      5.013
REMARK  3 active torsions:
REMARK  status: ('A' for Active; 'I' for Inactive)
REMARK    1  A    between atoms: C12_16  and  O2_2 
REMARK    2  A    between atoms: C5_9  and  O2_2 
REMARK    3  A    between atoms: C12_16  and  C13_17 
ROOT
HETATM    1  O1  UNK     1      18.659   1.680  31.229  1.00  0.00    -0.274 OA
HETATM    2  O3  UNK     1      18.752   2.641  29.156  1.00  0.00    -0.260 OA
HETATM    3  C1  UNK     1      19.470  -0.605  31.524  1.00  0.00     0.005 A 
HETATM    4  C2  UNK     1      18.907   0.560  32.048  1.00  0.00     0.099 A 
HETATM    5  C3  UNK     1      18.561   0.682  33.394  1.00  0.00     0.007 A 
HETATM    6  C4  UNK     1      19.804  -0.645  30.095  1.00  0.00    -0.043 A 
HETATM    7  C5  UNK     1      18.782  -0.391  34.251  1.00  0.00     0.087 A 
HETATM    8  C6  UNK     1      19.686  -1.674  32.404  1.00  0.00     0.017 A 
HETATM    9  C7  UNK     1      19.344  -1.567  33.757  1.00  0.00     0.039 A 
HETATM   10  C8  UNK     1      17.959   1.946  33.916  1.00  0.00     0.054 C 
HETATM   11  C9  UNK     1      19.557   0.436  29.340  1.00  0.00     0.090 A 
HETATM   12  C10 UNK     1      20.412  -1.882  29.502  1.00  0.00     0.049 C 
HETATM   13  C11 UNK     1      18.964   1.672  29.876  1.00  0.00     0.288 A 
ENDROOT
BRANCH   7  14
HETATM   14  O2  UNK     1      18.458  -0.311  35.572  1.00  0.00    -0.278 OA
BRANCH  14  15
HETATM   15  C12 UNK     1      17.106  -0.579  35.852  1.00  0.00     0.263 C 
HETATM   16  O4  UNK     1      16.318  -1.121  35.088  1.00  0.00    -0.265 OA
BRANCH  15  17
HETATM   17  C13 UNK     1      16.778  -0.095  37.246  1.00  0.00     0.107 C 
HETATM   18  C14 UNK     1      17.438   1.237  37.558  1.00  0.00     0.015 C 
ENDBRANCH  15  17
ENDBRANCH  14  15
ENDBRANCH   7  14
TORSDOF 3
ENDMDL
