MODEL 1
REMARK VINA RESULT:      -9.6      0.000      0.000
REMARK  3 active torsions:
REMARK  status: ('A' for Active; 'I' for Inactive)
REMARK    1  A    between atoms: C5_13  and  N1_7 
REMARK       I    between atoms: C8_16  and  N1_7 
REMARK    2  A    between atoms: C10_18  and  N2_8 
REMARK    3  A    between atoms: C3_11  and  C8_16 
ROOT
HETATM    1  O1  UNK     1      19.361  -2.330  13.002  1.00  0.00    -0.274 OA
HETATM    2  O3  UNK     1      19.379  -0.362  14.161  1.00  0.00    -0.259 OA
HETATM    3  C1  UNK     1      18.439  -4.326  14.040  1.00  0.00     0.001 A 
HETATM    4  C2  UNK     1      19.040  -3.701  12.952  1.00  0.00     0.089 A 
HETATM    5  C3  UNK     1      18.457  -2.239  15.273  1.00  0.00     0.108 A 
HETATM    6  C4  UNK     1      18.149  -3.541  15.231  1.00  0.00     0.037 A 
HETATM    7  C6  UNK     1      18.134  -5.686  13.953  1.00  0.00     0.050 A 
HETATM    8  C9  UNK     1      19.343  -4.395  11.783  1.00  0.00     0.041 A 
HETATM    9  C10 UNK     1      18.434  -6.397  12.786  1.00  0.00     0.103 A 
HETATM   10  C11 UNK     1      19.096  -1.554  14.127  1.00  0.00     0.304 A 
HETATM   11  C12 UNK     1      19.038  -5.752  11.705  1.00  0.00     0.039 A 
ENDROOT
BRANCH   5  12
HETATM   12  C8  UNK     1      18.125  -1.534  16.516  1.00  0.00     0.262 C 
HETATM   13  O2  UNK     1      17.042  -1.735  17.061  1.00  0.00    -0.267 OA
HETATM   14  N1  UNK     1      19.145  -0.686  16.926  1.00  0.00    -0.322 N 
HETATM   15  H3  UNK     1      19.989  -0.661  16.361  1.00  0.00     0.169 HD
BRANCH  14  16
HETATM   16  C5  UNK     1      19.170   0.146  18.072  1.00  0.00     0.041 A 
HETATM   17  C13 UNK     1      19.184  -0.453  19.321  1.00  0.00     0.033 A 
HETATM   18  C16 UNK     1      19.207   0.349  20.462  1.00  0.00     0.044 A 
HETATM   19  C17 UNK     1      19.214   1.738  20.338  1.00  0.00     0.117 A 
HETATM   20  C14 UNK     1      19.200   2.326  19.073  1.00  0.00     0.051 A 
HETATM   21  F1  UNK     1      19.236   2.508  21.434  1.00  0.00    -0.206 F 
HETATM   22  C7  UNK     1      19.178   1.523  17.931  1.00  0.00    -0.032 A 
HETATM   23  C15 UNK     1      19.160   2.180  16.590  1.00  0.00     0.050 C 
ENDBRANCH  14  16
ENDBRANCH   5  12
BRANCH   9  24
HETATM   24  N2  UNK     1      18.124  -7.779  12.701  1.00  0.00    -0.116 N 
HETATM   25  O4  UNK     1      17.263  -8.258  13.479  1.00  0.00    -0.532 OA
HETATM   26  O5  UNK     1      18.719  -8.484  11.851  1.00  0.00    -0.532 OA
ENDBRANCH   9  24
TORSDOF 3
ENDMDL
MODEL 2
REMARK VINA RESULT:      -9.3     14.456     16.715
REMARK  3 active torsions:
REMARK  status: ('A' for Active; 'I' for Inactive)
REMARK    1  A    between atoms: C5_13  and  N1_7 
REMARK       I    between atoms: C8_16  and  N1_7 
REMARK    2  A    between atoms: C10_18  and  N2_8 
REMARK    3  A    between atoms: C3_11  and  C8_16 
ROOT
HETATM    1  O1  UNK     1      19.080   1.538  28.821  1.00  0.00    -0.274 OA
HETATM    2  O3  UNK     1      18.208   3.643  28.979  1.00  0.00    -0.259 OA
HETATM    3  C1  UNK     1      19.608   0.303  30.848  1.00  0.00     0.001 A 
HETATM    4  C2  UNK     1      19.565   0.379  29.459  1.00  0.00     0.089 A 
HETATM    5  C3  UNK     1      18.684   2.537  31.018  1.00  0.00     0.108 A 
HETATM    6  C4  UNK     1      19.145   1.439  31.630  1.00  0.00     0.037 A 
HETATM    7  C6  UNK     1      20.096  -0.862  31.445  1.00  0.00     0.050 A 
HETATM    8  C9  UNK     1      19.995  -0.672  28.653  1.00  0.00     0.041 A 
HETATM    9  C10 UNK     1      20.531  -1.926  30.648  1.00  0.00     0.103 A 
HETATM   10  C11 UNK     1      18.629   2.639  29.543  1.00  0.00     0.304 A 
HETATM   11  C12 UNK     1      20.481  -1.830  29.256  1.00  0.00     0.039 A 
ENDROOT
BRANCH   5  12
HETATM   12  C8  UNK     1      18.239   3.628  31.893  1.00  0.00     0.262 C 
HETATM   13  O2  UNK     1      17.607   3.371  32.915  1.00  0.00    -0.267 OA
HETATM   14  N1  UNK     1      18.617   4.873  31.410  1.00  0.00    -0.322 N 
HETATM   15  H3  UNK     1      19.161   4.899  30.553  1.00  0.00     0.169 HD
BRANCH  14  16
HETATM   16  C5  UNK     1      18.359   6.140  31.990  1.00  0.00     0.041 A 
HETATM   17  C13 UNK     1      17.114   6.715  31.792  1.00  0.00     0.033 A 
HETATM   18  C16 UNK     1      16.842   7.962  32.355  1.00  0.00     0.044 A 
HETATM   19  C17 UNK     1      17.817   8.616  33.105  1.00  0.00     0.117 A 
HETATM   20  C14 UNK     1      19.066   8.024  33.296  1.00  0.00     0.051 A 
HETATM   21  F1  UNK     1      17.555   9.815  33.645  1.00  0.00    -0.206 F 
HETATM   22  C7  UNK     1      19.339   6.776  32.735  1.00  0.00    -0.032 A 
HETATM   23  C15 UNK     1      20.685   6.167  32.952  1.00  0.00     0.050 C 
ENDBRANCH  14  16
ENDBRANCH   5  12
BRANCH   9  24
HETATM   24  N2  UNK     1      21.026  -3.109  31.258  1.00  0.00    -0.116 N 
HETATM   25  O4  UNK     1      21.096  -3.164  32.509  1.00  0.00    -0.532 OA
HETATM   26  O5  UNK     1      21.381  -4.066  30.528  1.00  0.00    -0.532 OA
ENDBRANCH   9  24
TORSDOF 3
ENDMDL
MODEL 3
REMARK VINA RESULT:      -9.3      3.815      8.495
REMARK  3 active torsions:
REMARK  status: ('A' for Active; 'I' for Inactive)
REMARK    1  A    between atoms: C5_13  and  N1_7 
REMARK       I    between atoms: C8_16  and  N1_7 
REMARK    2  A    between atoms: C10_18  and  N2_8 
REMARK    3  A    between atoms: C3_11  and  C8_16 
ROOT
HETATM    1  O1  UNK     1      19.296   0.798  15.022  1.00  0.00    -0.274 OA
HETATM    2  O3  UNK     1      19.247  -0.758  13.351  1.00  0.00    -0.259 OA
HETATM    3  C1  UNK     1      18.896   0.105  17.319  1.00  0.00     0.001 A 
HETATM    4  C2  UNK     1      19.176   1.105  16.392  1.00  0.00     0.089 A 
HETATM    5  C3  UNK     1      18.843  -1.548  15.547  1.00  0.00     0.108 A 
HETATM    6  C4  UNK     1      18.728  -1.262  16.850  1.00  0.00     0.037 A 
HETATM    7  C6  UNK     1      18.785   0.448  18.668  1.00  0.00     0.050 A 
HETATM    8  C9  UNK     1      19.347   2.433  16.776  1.00  0.00     0.041 A 
HETATM    9  C10 UNK     1      18.954   1.777  19.068  1.00  0.00     0.103 A 
HETATM   10  C11 UNK     1      19.141  -0.500  14.545  1.00  0.00     0.304 A 
HETATM   11  C12 UNK     1      19.234   2.767  18.123  1.00  0.00     0.039 A 
ENDROOT
BRANCH   5  12
HETATM   12  C8  UNK     1      18.658  -2.955  15.173  1.00  0.00     0.262 C 
HETATM   13  O2  UNK     1      17.666  -3.565  15.565  1.00  0.00    -0.267 OA
HETATM   14  N1  UNK     1      19.696  -3.426  14.381  1.00  0.00    -0.322 N 
HETATM   15  H3  UNK     1      20.431  -2.771  14.132  1.00  0.00     0.169 HD
BRANCH  14  16
HETATM   16  C5  UNK     1      19.849  -4.727  13.840  1.00  0.00     0.041 A 
HETATM   17  C13 UNK     1      19.144  -5.051  12.692  1.00  0.00     0.033 A 
HETATM   18  C16 UNK     1      19.280  -6.327  12.145  1.00  0.00     0.044 A 
HETATM   19  C17 UNK     1      20.117  -7.261  12.755  1.00  0.00     0.117 A 
HETATM   20  C14 UNK     1      20.820  -6.919  13.910  1.00  0.00     0.051 A 
HETATM   21  F1  UNK     1      20.247  -8.487  12.230  1.00  0.00    -0.206 F 
HETATM   22  C7  UNK     1      20.685  -5.643  14.457  1.00  0.00    -0.032 A 
HETATM   23  C15 UNK     1      21.447  -5.305  15.697  1.00  0.00     0.050 C 
ENDBRANCH  14  16
ENDBRANCH   5  12
BRANCH   9  24
HETATM   24  N2  UNK     1      18.840   2.122  20.440  1.00  0.00    -0.116 N 
HETATM   25  O4  UNK     1      17.709   2.092  20.983  1.00  0.00    -0.532 OA
HETATM   26  O5  UNK     1      19.874   2.448  21.073  1.00  0.00    -0.532 OA
ENDBRANCH   9  24
TORSDOF 3
ENDMDL
MODEL 4
REMARK VINA RESULT:      -8.9      3.777      8.482
REMARK  3 active torsions:
REMARK  status: ('A' for Active; 'I' for Inactive)
REMARK    1  A    between atoms: C5_13  and  N1_7 
REMARK       I    between atoms: C8_16  and  N1_7 
REMARK    2  A    between atoms: C10_18  and  N2_8 
REMARK    3  A    between atoms: C3_11  and  C8_16 
ROOT
HETATM    1  O1  UNK     1      19.194   0.534  15.176  1.00  0.00    -0.274 OA
HETATM    2  O3  UNK     1      19.285  -1.135  13.619  1.00  0.00    -0.259 OA
HETATM    3  C1  UNK     1      19.114  -0.032  17.539  1.00  0.00     0.001 A 
HETATM    4  C2  UNK     1      19.134   0.924  16.528  1.00  0.00     0.089 A 
HETATM    5  C3  UNK     1      19.211  -1.805  15.890  1.00  0.00     0.108 A 
HETATM    6  C4  UNK     1      19.154  -1.440  17.177  1.00  0.00     0.037 A 
HETATM    7  C6  UNK     1      19.056   0.393  18.869  1.00  0.00     0.050 A 
HETATM    8  C9  UNK     1      19.097   2.288  16.808  1.00  0.00     0.041 A 
HETATM    9  C10 UNK     1      19.017   1.760  19.165  1.00  0.00     0.103 A 
HETATM   10  C11 UNK     1      19.233  -0.805  14.799  1.00  0.00     0.304 A 
HETATM   11  C12 UNK     1      19.038   2.704  18.136  1.00  0.00     0.039 A 
ENDROOT
BRANCH   5  12
HETATM   12  C8  UNK     1      19.249  -3.248  15.626  1.00  0.00     0.262 C 
HETATM   13  O2  UNK     1      20.270  -3.886  15.872  1.00  0.00    -0.267 OA
HETATM   14  N1  UNK     1      18.052  -3.716  15.103  1.00  0.00    -0.322 N 
HETATM   15  H3  UNK     1      17.297  -3.047  14.985  1.00  0.00     0.169 HD
BRANCH  14  16
HETATM   16  C5  UNK     1      17.732  -5.045  14.730  1.00  0.00     0.041 A 
HETATM   17  C13 UNK     1      18.243  -5.537  13.540  1.00  0.00     0.033 A 
HETATM   18  C16 UNK     1      17.939  -6.843  13.156  1.00  0.00     0.044 A 
HETATM   19  C17 UNK     1      17.128  -7.638  13.966  1.00  0.00     0.117 A 
HETATM   20  C14 UNK     1      16.622  -7.128  15.161  1.00  0.00     0.051 A 
HETATM   21  F1  UNK     1      16.836  -8.892  13.595  1.00  0.00    -0.206 F 
HETATM   22  C7  UNK     1      16.927  -5.822  15.546  1.00  0.00    -0.032 A 
HETATM   23  C15 UNK     1      16.368  -5.301  16.830  1.00  0.00     0.050 C 
ENDBRANCH  14  16
ENDBRANCH   5  12
BRANCH   9  24
HETATM   24  N2  UNK     1      18.957   2.188  20.517  1.00  0.00    -0.116 N 
HETATM   25  O4  UNK     1      20.027   2.427  21.126  1.00  0.00    -0.532 OA
HETATM   26  O5  UNK     1      17.836   2.316  21.064  1.00  0.00    -0.532 OA
ENDBRANCH   9  24
TORSDOF 3
ENDMDL
MODEL 5
REMARK VINA RESULT:      -8.9     16.998     20.852
REMARK  3 active torsions:
REMARK  status: ('A' for Active; 'I' for Inactive)
REMARK    1  A    between atoms: C5_13  and  N1_7 
REMARK       I    between atoms: C8_16  and  N1_7 
REMARK    2  A    between atoms: C10_18  and  N2_8 
REMARK    3  A    between atoms: C3_11  and  C8_16 
ROOT
HETATM    1  O1  UNK     1      18.603  -1.069  35.571  1.00  0.00    -0.274 OA
HETATM    2  O3  UNK     1      18.627  -2.062  37.629  1.00  0.00    -0.259 OA
HETATM    3  C1  UNK     1      19.827  -2.088  33.734  1.00  0.00     0.001 A 
HETATM    4  C2  UNK     1      19.014  -1.071  34.224  1.00  0.00     0.089 A 
HETATM    5  C3  UNK     1      19.854  -3.142  35.915  1.00  0.00     0.108 A 
HETATM    6  C4  UNK     1      20.247  -3.149  34.636  1.00  0.00     0.037 A 
HETATM    7  C6  UNK     1      20.212  -2.055  32.391  1.00  0.00     0.050 A 
HETATM    8  C9  UNK     1      18.576  -0.025  33.413  1.00  0.00     0.041 A 
HETATM    9  C10 UNK     1      19.782  -1.012  31.565  1.00  0.00     0.103 A 
HETATM   10  C11 UNK     1      18.990  -2.071  36.457  1.00  0.00     0.304 A 
HETATM   11  C12 UNK     1      18.967   0.000  32.076  1.00  0.00     0.039 A 
ENDROOT
BRANCH   5  12
HETATM   12  C8  UNK     1      20.329  -4.255  36.745  1.00  0.00     0.262 C 
HETATM   13  O2  UNK     1      21.477  -4.243  37.184  1.00  0.00    -0.267 OA
HETATM   14  N1  UNK     1      19.354  -5.226  36.927  1.00  0.00    -0.322 N 
HETATM   15  H3  UNK     1      18.444  -5.061  36.506  1.00  0.00     0.169 HD
BRANCH  14  16
HETATM   16  C5  UNK     1      19.460  -6.431  37.664  1.00  0.00     0.041 A 
HETATM   17  C13 UNK     1      20.120  -6.403  38.882  1.00  0.00     0.033 A 
HETATM   18  C16 UNK     1      20.237  -7.579  39.623  1.00  0.00     0.044 A 
HETATM   19  C17 UNK     1      19.692  -8.766  39.135  1.00  0.00     0.117 A 
HETATM   20  C14 UNK     1      19.030  -8.779  37.907  1.00  0.00     0.051 A 
HETATM   21  F1  UNK     1      19.805  -9.897  39.846  1.00  0.00    -0.206 F 
HETATM   22  C7  UNK     1      18.913  -7.602  37.167  1.00  0.00    -0.032 A 
HETATM   23  C15 UNK     1      18.201  -7.645  35.854  1.00  0.00     0.050 C 
ENDBRANCH  14  16
ENDBRANCH   5  12
BRANCH   9  24
HETATM   24  N2  UNK     1      20.176  -0.982  30.202  1.00  0.00    -0.116 N 
HETATM   25  O4  UNK     1      20.170  -2.050  29.544  1.00  0.00    -0.532 OA
HETATM   26  O5  UNK     1      20.520   0.112  29.693  1.00  0.00    -0.532 OA
ENDBRANCH   9  24
TORSDOF 3
ENDMDL
MODEL 6
REMARK VINA RESULT:      -8.9     19.797     22.348
REMARK  3 active torsions:
REMARK  status: ('A' for Active; 'I' for Inactive)
REMARK    1  A    between atoms: C5_13  and  N1_7 
REMARK       I    between atoms: C8_16  and  N1_7 
REMARK    2  A    between atoms: C10_18  and  N2_8 
REMARK    3  A    between atoms: C3_11  and  C8_16 
ROOT
HETATM    1  O1  UNK     1      19.483  -1.558  34.252  1.00  0.00    -0.274 OA
HETATM    2  O3  UNK     1      20.930  -3.324  34.155  1.00  0.00    -0.259 OA
HETATM    3  C1  UNK     1      18.088  -1.256  36.220  1.00  0.00     0.001 A 
HETATM    4  C2  UNK     1      18.500  -0.838  34.959  1.00  0.00     0.089 A 
HETATM    5  C3  UNK     1      19.622  -3.130  36.120  1.00  0.00     0.108 A 
HETATM    6  C4  UNK     1      18.688  -2.450  36.797  1.00  0.00     0.037 A 
HETATM    7  C6  UNK     1      17.112  -0.516  36.891  1.00  0.00     0.050 A 
HETATM    8  C9  UNK     1      17.965   0.295  34.351  1.00  0.00     0.041 A 
HETATM    9  C10 UNK     1      16.565   0.624  36.293  1.00  0.00     0.103 A 
HETATM   10  C11 UNK     1      20.075  -2.703  34.778  1.00  0.00     0.304 A 
HETATM   11  C12 UNK     1      16.991   1.027  35.026  1.00  0.00     0.039 A 
ENDROOT
BRANCH   5  12
HETATM   12  C8  UNK     1      20.168  -4.319  36.786  1.00  0.00     0.262 C 
HETATM   13  O2  UNK     1      21.370  -4.383  37.032  1.00  0.00    -0.267 OA
HETATM   14  N1  UNK     1      19.186  -5.262  37.059  1.00  0.00    -0.322 N 
HETATM   15  H3  UNK     1      18.231  -5.032  36.804  1.00  0.00     0.169 HD
BRANCH  14  16
HETATM   16  C5  UNK     1      19.349  -6.522  37.688  1.00  0.00     0.041 A 
HETATM   17  C13 UNK     1      20.006  -6.570  38.906  1.00  0.00     0.033 A 
HETATM   18  C16 UNK     1      20.177  -7.800  39.541  1.00  0.00     0.044 A 
HETATM   19  C17 UNK     1      19.690  -8.964  38.947  1.00  0.00     0.117 A 
HETATM   20  C14 UNK     1      19.030  -8.899  37.720  1.00  0.00     0.051 A 
HETATM   21  F1  UNK     1      19.856 -10.146  39.557  1.00  0.00    -0.206 F 
HETATM   22  C7  UNK     1      18.858  -7.668  37.086  1.00  0.00    -0.032 A 
HETATM   23  C15 UNK     1      18.150  -7.628  35.771  1.00  0.00     0.050 C 
ENDBRANCH  14  16
ENDBRANCH   5  12
BRANCH   9  24
HETATM   24  N2  UNK     1      15.573   1.374  36.977  1.00  0.00    -0.116 N 
HETATM   25  O4  UNK     1      14.365   1.173  36.705  1.00  0.00    -0.532 OA
HETATM   26  O5  UNK     1      15.931   2.216  37.835  1.00  0.00    -0.532 OA
ENDBRANCH   9  24
TORSDOF 3
ENDMDL
MODEL 7
REMARK VINA RESULT:      -8.8     20.075     21.601
REMARK  3 active torsions:
REMARK  status: ('A' for Active; 'I' for Inactive)
REMARK    1  A    between atoms: C5_13  and  N1_7 
REMARK       I    between atoms: C8_16  and  N1_7 
REMARK    2  A    between atoms: C10_18  and  N2_8 
REMARK    3  A    between atoms: C3_11  and  C8_16 
ROOT
HETATM    1  O1  UNK     1      18.696  -8.153  36.869  1.00  0.00    -0.274 OA
HETATM    2  O3  UNK     1      17.551  -6.216  37.264  1.00  0.00    -0.259 OA
HETATM    3  C1  UNK     1      21.115  -8.089  36.629  1.00  0.00     0.001 A 
HETATM    4  C2  UNK     1      19.924  -8.808  36.648  1.00  0.00     0.089 A 
HETATM    5  C3  UNK     1      19.902  -6.033  37.048  1.00  0.00     0.108 A 
HETATM    6  C4  UNK     1      21.072  -6.650  36.839  1.00  0.00     0.037 A 
HETATM    7  C6  UNK     1      22.312  -8.774  36.408  1.00  0.00     0.050 A 
HETATM    8  C9  UNK     1      19.896 -10.187  36.454  1.00  0.00     0.041 A 
HETATM    9  C10 UNK     1      22.300 -10.158  36.211  1.00  0.00     0.103 A 
HETATM   10  C11 UNK     1      18.624  -6.778  37.072  1.00  0.00     0.304 A 
HETATM   11  C12 UNK     1      21.094 -10.862  36.233  1.00  0.00     0.039 A 
ENDROOT
BRANCH   5  12
HETATM   12  C8  UNK     1      19.963  -4.581  37.250  1.00  0.00     0.262 C 
HETATM   13  O2  UNK     1      20.842  -4.099  37.961  1.00  0.00    -0.267 OA
HETATM   14  N1  UNK     1      18.954  -3.915  36.567  1.00  0.00    -0.322 N 
HETATM   15  H3  UNK     1      18.321  -4.474  36.002  1.00  0.00     0.169 HD
BRANCH  14  16
HETATM   16  C5  UNK     1      18.707  -2.520  36.534  1.00  0.00     0.041 A 
HETATM   17  C13 UNK     1      17.932  -1.964  37.539  1.00  0.00     0.033 A 
HETATM   18  C16 UNK     1      17.677  -0.593  37.524  1.00  0.00     0.044 A 
HETATM   19  C17 UNK     1      18.199   0.202  36.504  1.00  0.00     0.117 A 
HETATM   20  C14 UNK     1      18.977  -0.373  35.500  1.00  0.00     0.051 A 
HETATM   21  F1  UNK     1      17.952   1.519  36.490  1.00  0.00    -0.206 F 
HETATM   22  C7  UNK     1      19.233  -1.744  35.515  1.00  0.00    -0.032 A 
HETATM   23  C15 UNK     1      20.068  -2.333  34.425  1.00  0.00     0.050 C 
ENDBRANCH  14  16
ENDBRANCH   5  12
BRANCH   9  24
HETATM   24  N2  UNK     1      23.519 -10.850  35.986  1.00  0.00    -0.116 N 
HETATM   25  O4  UNK     1      24.588 -10.354  36.415  1.00  0.00    -0.532 OA
HETATM   26  O5  UNK     1      23.493 -11.940  35.364  1.00  0.00    -0.532 OA
ENDBRANCH   9  24
TORSDOF 3
ENDMDL
MODEL 8
REMARK VINA RESULT:      -8.7     17.936     20.324
REMARK  3 active torsions:
REMARK  status: ('A' for Active; 'I' for Inactive)
REMARK    1  A    between atoms: C5_13  and  N1_7 
REMARK       I    between atoms: C8_16  and  N1_7 
REMARK    2  A    between atoms: C10_18  and  N2_8 
REMARK    3  A    between atoms: C3_11  and  C8_16 
ROOT
HETATM    1  O1  UNK     1      18.262   1.396  32.433  1.00  0.00    -0.274 OA
HETATM    2  O3  UNK     1      18.346   3.012  30.820  1.00  0.00    -0.259 OA
HETATM    3  C1  UNK     1      18.207   2.040  34.776  1.00  0.00     0.001 A 
HETATM    4  C2  UNK     1      18.215   1.051  33.798  1.00  0.00     0.089 A 
HETATM    5  C3  UNK     1      18.297   3.757  33.068  1.00  0.00     0.108 A 
HETATM    6  C4  UNK     1      18.251   3.436  34.367  1.00  0.00     0.037 A 
HETATM    7  C6  UNK     1      18.158   1.660  36.120  1.00  0.00     0.050 A 
HETATM    8  C9  UNK     1      18.175  -0.303  34.123  1.00  0.00     0.041 A 
HETATM    9  C10 UNK     1      18.119   0.305  36.461  1.00  0.00     0.103 A 
HETATM   10  C11 UNK     1      18.305   2.722  32.011  1.00  0.00     0.304 A 
HETATM   11  C12 UNK     1      18.128  -0.674  35.465  1.00  0.00     0.039 A 
ENDROOT
BRANCH   5  12
HETATM   12  C8  UNK     1      18.337   5.191  32.756  1.00  0.00     0.262 C 
HETATM   13  O2  UNK     1      18.346   5.560  31.584  1.00  0.00    -0.267 OA
HETATM   14  N1  UNK     1      18.363   5.975  33.902  1.00  0.00    -0.322 N 
HETATM   15  H3  UNK     1      18.327   5.498  34.797  1.00  0.00     0.169 HD
BRANCH  14  16
HETATM   16  C5  UNK     1      18.405   7.389  33.980  1.00  0.00     0.041 A 
HETATM   17  C13 UNK     1      19.636   8.004  34.145  1.00  0.00     0.033 A 
HETATM   18  C16 UNK     1      19.698   9.395  34.226  1.00  0.00     0.044 A 
HETATM   19  C17 UNK     1      18.529  10.151  34.141  1.00  0.00     0.117 A 
HETATM   20  C14 UNK     1      17.298   9.517  33.974  1.00  0.00     0.051 A 
HETATM   21  F1  UNK     1      18.589  11.487  34.219  1.00  0.00    -0.206 F 
HETATM   22  C7  UNK     1      17.236   8.126  33.893  1.00  0.00    -0.032 A 
HETATM   23  C15 UNK     1      15.903   7.473  33.717  1.00  0.00     0.050 C 
ENDBRANCH  14  16
ENDBRANCH   5  12
BRANCH   9  24
HETATM   24  N2  UNK     1      18.070  -0.079  37.827  1.00  0.00    -0.116 N 
HETATM   25  O4  UNK     1      18.202  -1.291  38.123  1.00  0.00    -0.532 OA
HETATM   26  O5  UNK     1      17.896   0.805  38.701  1.00  0.00    -0.532 OA
ENDBRANCH   9  24
TORSDOF 3
ENDMDL
MODEL 9
REMARK VINA RESULT:      -8.6     23.624     25.521
REMARK  3 active torsions:
REMARK  status: ('A' for Active; 'I' for Inactive)
REMARK    1  A    between atoms: C5_13  and  N1_7 
REMARK       I    between atoms: C8_16  and  N1_7 
REMARK    2  A    between atoms: C10_18  and  N2_8 
REMARK    3  A    between atoms: C3_11  and  C8_16 
ROOT
HETATM    1  O1  UNK     1      27.487  -4.785  38.701  1.00  0.00    -0.274 OA
HETATM    2  O3  UNK     1      25.257  -5.231  38.918  1.00  0.00    -0.259 OA
HETATM    3  C1  UNK     1      29.061  -6.624  38.466  1.00  0.00     0.001 A 
HETATM    4  C2  UNK     1      28.805  -5.259  38.545  1.00  0.00     0.089 A 
HETATM    5  C3  UNK     1      26.696  -7.099  38.697  1.00  0.00     0.108 A 
HETATM    6  C4  UNK     1      27.946  -7.555  38.549  1.00  0.00     0.037 A 
HETATM    7  C6  UNK     1      30.381  -7.055  38.311  1.00  0.00     0.050 A 
HETATM    8  C9  UNK     1      29.828  -4.315  38.474  1.00  0.00     0.041 A 
HETATM    9  C10 UNK     1      31.418  -6.120  38.238  1.00  0.00     0.103 A 
HETATM   10  C11 UNK     1      26.401  -5.652  38.783  1.00  0.00     0.304 A 
HETATM   11  C12 UNK     1      31.141  -4.753  38.320  1.00  0.00     0.039 A 
ENDROOT
BRANCH   5  12
HETATM   12  C8  UNK     1      25.640  -8.116  38.769  1.00  0.00     0.262 C 
HETATM   13  O2  UNK     1      25.805  -9.120  39.458  1.00  0.00    -0.267 OA
HETATM   14  N1  UNK     1      24.535  -7.778  37.998  1.00  0.00    -0.322 N 
HETATM   15  H3  UNK     1      24.561  -6.890  37.506  1.00  0.00     0.169 HD
BRANCH  14  16
HETATM   16  C5  UNK     1      23.340  -8.519  37.830  1.00  0.00     0.041 A 
HETATM   17  C13 UNK     1      23.243  -9.378  36.747  1.00  0.00     0.033 A 
HETATM   18  C16 UNK     1      22.073 -10.116  36.564  1.00  0.00     0.044 A 
HETATM   19  C17 UNK     1      21.017  -9.983  37.466  1.00  0.00     0.117 A 
HETATM   20  C14 UNK     1      21.130  -9.115  38.551  1.00  0.00     0.051 A 
HETATM   21  F1  UNK     1      19.893 -10.692  37.288  1.00  0.00    -0.206 F 
HETATM   22  C7  UNK     1      22.301  -8.378  38.735  1.00  0.00    -0.032 A 
HETATM   23  C15 UNK     1      22.393  -7.453  39.905  1.00  0.00     0.050 C 
ENDBRANCH  14  16
ENDBRANCH   5  12
BRANCH   9  24
HETATM   24  N2  UNK     1      32.758  -6.561  38.081  1.00  0.00    -0.116 N 
HETATM   25  O4  UNK     1      32.992  -7.793  38.050  1.00  0.00    -0.532 OA
HETATM   26  O5  UNK     1      33.671  -5.707  37.978  1.00  0.00    -0.532 OA
ENDBRANCH   9  24
TORSDOF 3
ENDMDL
MODEL 10
REMARK VINA RESULT:      -8.6     17.109     19.683
REMARK  3 active torsions:
REMARK  status: ('A' for Active; 'I' for Inactive)
REMARK    1  A    between atoms: C5_13  and  N1_7 
REMARK       I    between atoms: C8_16  and  N1_7 
REMARK    2  A    between atoms: C10_18  and  N2_8 
REMARK    3  A    between atoms: C3_11  and  C8_16 
ROOT
HETATM    1  O1  UNK     1      18.938   2.545  30.763  1.00  0.00    -0.274 OA
HETATM    2  O3  UNK     1      18.990   0.298  31.172  1.00  0.00    -0.259 OA
HETATM    3  C1  UNK     1      18.188   4.065  32.506  1.00  0.00     0.001 A 
HETATM    4  C2  UNK     1      18.663   3.851  31.216  1.00  0.00     0.089 A 
HETATM    5  C3  UNK     1      18.241   1.682  32.942  1.00  0.00     0.108 A 
HETATM    6  C4  UNK     1      17.978   2.920  33.379  1.00  0.00     0.037 A 
HETATM    7  C6  UNK     1      17.927   5.374  32.920  1.00  0.00     0.050 A 
HETATM    8  C9  UNK     1      18.885   4.903  30.331  1.00  0.00     0.041 A 
HETATM    9  C10 UNK     1      18.144   6.441  32.042  1.00  0.00     0.103 A 
HETATM   10  C11 UNK     1      18.747   1.431  31.575  1.00  0.00     0.304 A 
HETATM   11  C12 UNK     1      18.621   6.205  30.751  1.00  0.00     0.039 A 
ENDROOT
BRANCH   5  12
HETATM   12  C8  UNK     1      17.999   0.594  33.896  1.00  0.00     0.262 C 
HETATM   13  O2  UNK     1      16.861   0.390  34.314  1.00  0.00    -0.267 OA
HETATM   14  N1  UNK     1      19.163  -0.094  34.213  1.00  0.00    -0.322 N 
HETATM   15  H3  UNK     1      20.019   0.198  33.752  1.00  0.00     0.169 HD
BRANCH  14  16
HETATM   16  C5  UNK     1      19.304  -1.193  35.094  1.00  0.00     0.041 A 
HETATM   17  C13 UNK     1      18.782  -1.085  36.373  1.00  0.00     0.033 A 
HETATM   18  C16 UNK     1      18.912  -2.157  37.256  1.00  0.00     0.044 A 
HETATM   19  C17 UNK     1      19.564  -3.320  36.849  1.00  0.00     0.117 A 
HETATM   20  C14 UNK     1      20.084  -3.414  35.558  1.00  0.00     0.051 A 
HETATM   21  F1  UNK     1      19.690  -4.349  37.698  1.00  0.00    -0.206 F 
HETATM   22  C7  UNK     1      19.953  -2.342  34.674  1.00  0.00    -0.032 A 
HETATM   23  C15 UNK     1      20.523  -2.469  33.299  1.00  0.00     0.050 C 
ENDBRANCH  14  16
ENDBRANCH   5  12
BRANCH   9  24
HETATM   24  N2  UNK     1      17.878   7.769  32.465  1.00  0.00    -0.116 N 
HETATM   25  O4  UNK     1      16.955   8.411  31.908  1.00  0.00    -0.532 OA
HETATM   26  O5  UNK     1      18.573   8.265  33.384  1.00  0.00    -0.532 OA
ENDBRANCH   9  24
TORSDOF 3
ENDMDL
