MODEL 1
REMARK VINA RESULT:      -8.9      0.000      0.000
REMARK  4 active torsions:
REMARK  status: ('A' for Active; 'I' for Inactive)
REMARK    1  A    between atoms: C14_22  and  O4_5 
REMARK    2  A    between atoms: C1_9  and  C10_18 
REMARK    3  A    between atoms: C11_19  and  C4_12 
REMARK    4  A    between atoms: C14_22  and  C8_16 
ROOT
HETATM    1  O2  UNK     1      32.185  -9.329  35.141  1.00  0.00    -0.293 OA
HETATM    2  N1  UNK     1      30.322  -6.727  38.623  1.00  0.00    -0.362 N 
HETATM    3  C1  UNK     1      33.761  -6.651  37.105  1.00  0.00     0.056 C 
HETATM    4  C2  UNK     1      31.175  -7.948  36.781  1.00  0.00     0.024 C 
HETATM    5  C3  UNK     1      32.753  -6.681  38.266  1.00  0.00     0.069 C 
HETATM    6  C4  UNK     1      29.765  -8.363  36.372  1.00  0.00     0.104 C 
HETATM    7  C5  UNK     1      31.385  -7.149  37.847  1.00  0.00     0.021 C 
HETATM    8  C6  UNK     1      33.738  -7.998  36.374  1.00  0.00     0.095 C 
HETATM    9  C7  UNK     1      32.344  -8.478  36.017  1.00  0.00     0.159 C 
HETATM   10  C8  UNK     1      28.703  -7.935  37.388  1.00  0.00     0.052 C 
HETATM   11  C9  UNK     1      29.012  -7.142  38.441  1.00  0.00     0.018 C 
HETATM   12  C12 UNK     1      28.052  -6.670  39.498  1.00  0.00     0.069 C 
HETATM   13  H7  UNK     1      30.524  -6.141  39.424  1.00  0.00     0.165 HD
ENDROOT
BRANCH   6  14
HETATM   14  C11 UNK     1      29.439  -7.808  35.010  1.00  0.00     0.029 A 
HETATM   15  C13 UNK     1      29.081  -8.756  33.925  1.00  0.00     0.194 A 
HETATM   16  O5  UNK     1      29.044  -9.966  34.104  1.00  0.00    -0.287 OA
HETATM   17  C17 UNK     1      28.772  -8.160  32.612  1.00  0.00     0.050 A 
HETATM   18  C19 UNK     1      28.830  -6.774  32.466  1.00  0.00     0.089 A 
HETATM   19  C21 UNK     1      28.424  -8.968  31.528  1.00  0.00     0.042 A 
HETATM   20  O3  UNK     1      29.165  -5.932  33.498  1.00  0.00    -0.321 OA
HETATM   21  C22 UNK     1      28.541  -6.188  31.233  1.00  0.00     0.040 A 
HETATM   22  C16 UNK     1      29.451  -6.502  34.714  1.00  0.00     0.154 A 
HETATM   23  C24 UNK     1      28.195  -6.993  30.148  1.00  0.00     0.026 A 
HETATM   24  C23 UNK     1      28.136  -8.380  30.295  1.00  0.00     0.035 A 
HETATM   25 Cl1  UNK     1      27.706  -9.367  28.952  1.00  0.00    -0.084 Cl
ENDBRANCH   6  14
BRANCH  10  26
HETATM   26  C14 UNK     1      27.338  -8.437  37.154  1.00  0.00     0.291 C 
HETATM   27  O6  UNK     1      26.381  -7.708  36.972  1.00  0.00    -0.260 OA
BRANCH  26  28
HETATM   28  O4  UNK     1      27.371  -9.790  37.182  1.00  0.00    -0.323 OA
HETATM   29  C25 UNK     1      26.216 -10.435  36.635  1.00  0.00     0.213 C 
ENDBRANCH  26  28
ENDBRANCH  10  26
BRANCH   3  30
HETATM   30  C10 UNK     1      33.589  -5.405  36.240  1.00  0.00     0.057 A 
HETATM   31  O1  UNK     1      34.658  -5.060  35.487  1.00  0.00    -0.327 OA
HETATM   32  C20 UNK     1      34.295  -3.942  34.807  1.00  0.00     0.142 A 
HETATM   33  C18 UNK     1      33.007  -3.580  35.125  1.00  0.00     0.027 A 
HETATM   34  C15 UNK     1      32.549  -4.537  36.061  1.00  0.00     0.035 A 
ENDBRANCH   3  30
TORSDOF 4
ENDMDL
MODEL 2
REMARK VINA RESULT:      -8.4      1.731      2.459
REMARK  4 active torsions:
REMARK  status: ('A' for Active; 'I' for Inactive)
REMARK    1  A    between atoms: C14_22  and  O4_5 
REMARK    2  A    between atoms: C1_9  and  C10_18 
REMARK    3  A    between atoms: C11_19  and  C4_12 
REMARK    4  A    between atoms: C14_22  and  C8_16 
ROOT
HETATM    1  O2  UNK     1      32.065  -9.232  37.419  1.00  0.00    -0.293 OA
HETATM    2  N1  UNK     1      30.994  -4.837  38.799  1.00  0.00    -0.362 N 
HETATM    3  C1  UNK     1      34.213  -6.249  37.465  1.00  0.00     0.056 C 
HETATM    4  C2  UNK     1      31.451  -7.012  37.982  1.00  0.00     0.024 C 
HETATM    5  C3  UNK     1      33.350  -5.438  38.446  1.00  0.00     0.069 C 
HETATM    6  C4  UNK     1      29.960  -7.324  37.905  1.00  0.00     0.104 C 
HETATM    7  C5  UNK     1      31.892  -5.805  38.392  1.00  0.00     0.021 C 
HETATM    8  C6  UNK     1      33.918  -7.743  37.641  1.00  0.00     0.095 C 
HETATM    9  C7  UNK     1      32.440  -8.080  37.645  1.00  0.00     0.159 C 
HETATM   10  C8  UNK     1      29.091  -6.215  38.506  1.00  0.00     0.052 C 
HETATM   11  C9  UNK     1      29.626  -5.039  38.907  1.00  0.00     0.018 C 
HETATM   12  C12 UNK     1      28.869  -3.889  39.515  1.00  0.00     0.069 C 
HETATM   13  H7  UNK     1      31.366  -3.949  39.115  1.00  0.00     0.165 HD
ENDROOT
BRANCH   6  14
HETATM   14  C11 UNK     1      29.560  -7.584  36.477  1.00  0.00     0.029 A 
HETATM   15  C13 UNK     1      29.817  -6.528  35.465  1.00  0.00     0.194 A 
HETATM   16  O5  UNK     1      30.341  -5.461  35.756  1.00  0.00    -0.287 OA
HETATM   17  C17 UNK     1      29.405  -6.835  34.082  1.00  0.00     0.050 A 
HETATM   18  C19 UNK     1      28.811  -8.067  33.808  1.00  0.00     0.089 A 
HETATM   19  C21 UNK     1      29.603  -5.906  33.058  1.00  0.00     0.042 A 
HETATM   20  O3  UNK     1      28.593  -9.016  34.776  1.00  0.00    -0.321 OA
HETATM   21  C22 UNK     1      28.414  -8.378  32.508  1.00  0.00     0.040 A 
HETATM   22  C16 UNK     1      28.982  -8.717  36.059  1.00  0.00     0.154 A 
HETATM   23  C24 UNK     1      28.610  -7.452  31.483  1.00  0.00     0.026 A 
HETATM   24  C23 UNK     1      29.204  -6.219  31.757  1.00  0.00     0.035 A 
HETATM   25 Cl1  UNK     1      29.445  -5.082  30.488  1.00  0.00    -0.084 Cl
ENDBRANCH   6  14
BRANCH  10  26
HETATM   26  C14 UNK     1      27.653  -6.506  38.622  1.00  0.00     0.291 C 
HETATM   27  O6  UNK     1      26.803  -5.947  37.956  1.00  0.00    -0.260 OA
BRANCH  26  28
HETATM   28  O4  UNK     1      27.486  -7.464  39.565  1.00  0.00    -0.323 OA
HETATM   29  C25 UNK     1      26.641  -8.553  39.179  1.00  0.00     0.213 C 
ENDBRANCH  26  28
ENDBRANCH  10  26
BRANCH   3  30
HETATM   30  C10 UNK     1      34.117  -5.700  36.042  1.00  0.00     0.057 A 
HETATM   31  O1  UNK     1      34.591  -4.446  35.864  1.00  0.00    -0.327 OA
HETATM   32  C20 UNK     1      34.412  -4.160  34.548  1.00  0.00     0.142 A 
HETATM   33  C18 UNK     1      33.829  -5.222  33.898  1.00  0.00     0.027 A 
HETATM   34  C15 UNK     1      33.638  -6.226  34.877  1.00  0.00     0.035 A 
ENDBRANCH   3  30
TORSDOF 4
ENDMDL
MODEL 3
REMARK VINA RESULT:      -8.3      3.182      6.075
REMARK  4 active torsions:
REMARK  status: ('A' for Active; 'I' for Inactive)
REMARK    1  A    between atoms: C14_22  and  O4_5 
REMARK    2  A    between atoms: C1_9  and  C10_18 
REMARK    3  A    between atoms: C11_19  and  C4_12 
REMARK    4  A    between atoms: C14_22  and  C8_16 
ROOT
HETATM    1  O2  UNK     1      31.123  -5.464  33.616  1.00  0.00    -0.293 OA
HETATM    2  N1  UNK     1      35.306  -6.540  35.543  1.00  0.00    -0.362 N 
HETATM    3  C1  UNK     1      32.015  -5.733  37.172  1.00  0.00     0.056 C 
HETATM    4  C2  UNK     1      33.195  -6.148  34.543  1.00  0.00     0.024 C 
HETATM    5  C3  UNK     1      33.535  -5.613  36.972  1.00  0.00     0.069 C 
HETATM    6  C4  UNK     1      33.694  -6.703  33.213  1.00  0.00     0.104 C 
HETATM    7  C5  UNK     1      33.995  -6.114  35.629  1.00  0.00     0.021 C 
HETATM    8  C6  UNK     1      31.291  -5.112  35.972  1.00  0.00     0.095 C 
HETATM    9  C7  UNK     1      31.814  -5.586  34.629  1.00  0.00     0.159 C 
HETATM   10  C8  UNK     1      35.193  -7.015  33.226  1.00  0.00     0.052 C 
HETATM   11  C9  UNK     1      35.920  -6.937  34.364  1.00  0.00     0.018 C 
HETATM   12  C12 UNK     1      37.394  -7.215  34.489  1.00  0.00     0.069 C 
HETATM   13  H7  UNK     1      35.878  -6.484  36.377  1.00  0.00     0.165 HD
ENDROOT
BRANCH   6  14
HETATM   14  C11 UNK     1      32.907  -7.931  32.839  1.00  0.00     0.029 A 
HETATM   15  C13 UNK     1      32.115  -7.910  31.583  1.00  0.00     0.194 A 
HETATM   16  O5  UNK     1      32.083  -6.932  30.849  1.00  0.00    -0.287 OA
HETATM   17  C17 UNK     1      31.363  -9.139  31.265  1.00  0.00     0.050 A 
HETATM   18  C19 UNK     1      31.436 -10.224  32.138  1.00  0.00     0.089 A 
HETATM   19  C21 UNK     1      30.588  -9.219  30.106  1.00  0.00     0.042 A 
HETATM   20  O3  UNK     1      32.183 -10.200  33.290  1.00  0.00    -0.321 OA
HETATM   21  C22 UNK     1      30.734 -11.396  31.858  1.00  0.00     0.040 A 
HETATM   22  C16 UNK     1      32.877  -9.050  33.574  1.00  0.00     0.154 A 
HETATM   23  C24 UNK     1      29.958 -11.478  30.701  1.00  0.00     0.026 A 
HETATM   24  C23 UNK     1      29.885 -10.392  29.827  1.00  0.00     0.035 A 
HETATM   25 Cl1  UNK     1      28.926 -10.501  28.402  1.00  0.00    -0.084 Cl
ENDBRANCH   6  14
BRANCH  10  26
HETATM   26  C14 UNK     1      35.789  -7.399  31.935  1.00  0.00     0.291 C 
HETATM   27  O6  UNK     1      36.245  -8.505  31.714  1.00  0.00    -0.260 OA
BRANCH  26  28
HETATM   28  O4  UNK     1      35.727  -6.333  31.103  1.00  0.00    -0.323 OA
HETATM   29  C25 UNK     1      35.230  -6.617  29.791  1.00  0.00     0.213 C 
ENDBRANCH  26  28
ENDBRANCH  10  26
BRANCH   3  30
HETATM   30  C10 UNK     1      31.607  -7.154  37.552  1.00  0.00     0.057 A 
HETATM   31  O1  UNK     1      30.402  -7.562  37.092  1.00  0.00    -0.327 OA
HETATM   32  C20 UNK     1      30.239  -8.834  37.538  1.00  0.00     0.142 A 
HETATM   33  C18 UNK     1      31.330  -9.231  38.275  1.00  0.00     0.027 A 
HETATM   34  C15 UNK     1      32.221  -8.131  38.282  1.00  0.00     0.035 A 
ENDBRANCH   3  30
TORSDOF 4
ENDMDL
MODEL 4
REMARK VINA RESULT:      -8.1      2.999      5.650
REMARK  4 active torsions:
REMARK  status: ('A' for Active; 'I' for Inactive)
REMARK    1  A    between atoms: C14_22  and  O4_5 
REMARK    2  A    between atoms: C1_9  and  C10_18 
REMARK    3  A    between atoms: C11_19  and  C4_12 
REMARK    4  A    between atoms: C14_22  and  C8_16 
ROOT
HETATM    1  O2  UNK     1      30.735  -9.877  36.527  1.00  0.00    -0.293 OA
HETATM    2  N1  UNK     1      27.858  -6.698  34.531  1.00  0.00    -0.362 N 
HETATM    3  C1  UNK     1      28.595  -7.371  38.156  1.00  0.00     0.056 C 
HETATM    4  C2  UNK     1      29.415  -8.203  35.489  1.00  0.00     0.024 C 
HETATM    5  C3  UNK     1      27.680  -7.121  36.945  1.00  0.00     0.069 C 
HETATM    6  C4  UNK     1      30.103  -8.390  34.141  1.00  0.00     0.104 C 
HETATM    7  C5  UNK     1      28.365  -7.368  35.628  1.00  0.00     0.021 C 
HETATM    8  C6  UNK     1      29.254  -8.749  38.022  1.00  0.00     0.095 C 
HETATM    9  C7  UNK     1      29.883  -8.998  36.665  1.00  0.00     0.159 C 
HETATM   10  C8  UNK     1      29.361  -7.693  32.996  1.00  0.00     0.052 C 
HETATM   11  C9  UNK     1      28.303  -6.883  33.231  1.00  0.00     0.018 C 
HETATM   12  C12 UNK     1      27.500  -6.158  32.185  1.00  0.00     0.069 C 
HETATM   13  H7  UNK     1      27.059  -6.091  34.675  1.00  0.00     0.165 HD
ENDROOT
BRANCH   6  14
HETATM   14  C11 UNK     1      31.525  -7.902  34.214  1.00  0.00     0.029 A 
HETATM   15  C13 UNK     1      32.611  -8.811  33.766  1.00  0.00     0.194 A 
HETATM   16  O5  UNK     1      32.384  -9.936  33.342  1.00  0.00    -0.287 OA
HETATM   17  C17 UNK     1      33.985  -8.283  33.861  1.00  0.00     0.050 A 
HETATM   18  C19 UNK     1      34.185  -6.993  34.352  1.00  0.00     0.089 A 
HETATM   19  C21 UNK     1      35.075  -9.062  33.464  1.00  0.00     0.042 A 
HETATM   20  O3  UNK     1      33.150  -6.185  34.755  1.00  0.00    -0.321 OA
HETATM   21  C22 UNK     1      35.475  -6.474  34.450  1.00  0.00     0.040 A 
HETATM   22  C16 UNK     1      31.876  -6.689  34.662  1.00  0.00     0.154 A 
HETATM   23  C24 UNK     1      36.566  -7.250  34.055  1.00  0.00     0.026 A 
HETATM   24  C23 UNK     1      36.366  -8.541  33.563  1.00  0.00     0.035 A 
HETATM   25 Cl1  UNK     1      37.716  -9.491  33.077  1.00  0.00    -0.084 Cl
ENDBRANCH   6  14
BRANCH  10  26
HETATM   26  C14 UNK     1      29.863  -7.958  31.638  1.00  0.00     0.291 C 
HETATM   27  O6  UNK     1      30.616  -7.208  31.046  1.00  0.00    -0.260 OA
BRANCH  26  28
HETATM   28  O4  UNK     1      29.346  -9.136  31.214  1.00  0.00    -0.323 OA
HETATM   29  C25 UNK     1      28.730  -9.097  29.923  1.00  0.00     0.213 C 
ENDBRANCH  26  28
ENDBRANCH  10  26
BRANCH   3  30
HETATM   30  C10 UNK     1      29.531  -6.192  38.410  1.00  0.00     0.057 A 
HETATM   31  O1  UNK     1      28.942  -5.061  38.863  1.00  0.00    -0.327 OA
HETATM   32  C20 UNK     1      29.940  -4.153  39.020  1.00  0.00     0.142 A 
HETATM   33  C18 UNK     1      31.152  -4.702  38.669  1.00  0.00     0.027 A 
HETATM   34  C15 UNK     1      30.880  -6.033  38.271  1.00  0.00     0.035 A 
ENDBRANCH   3  30
TORSDOF 4
ENDMDL
MODEL 5
REMARK VINA RESULT:      -8.1      3.027      6.185
REMARK  4 active torsions:
REMARK  status: ('A' for Active; 'I' for Inactive)
REMARK    1  A    between atoms: C14_22  and  O4_5 
REMARK    2  A    between atoms: C1_9  and  C10_18 
REMARK    3  A    between atoms: C11_19  and  C4_12 
REMARK    4  A    between atoms: C14_22  and  C8_16 
ROOT
HETATM    1  O2  UNK     1      31.461 -10.256  34.121  1.00  0.00    -0.293 OA
HETATM    2  N1  UNK     1      33.562  -6.086  33.371  1.00  0.00    -0.362 N 
HETATM    3  C1  UNK     1      31.556  -8.250  31.042  1.00  0.00     0.056 C 
HETATM    4  C2  UNK     1      32.402  -8.100  33.823  1.00  0.00     0.024 C 
HETATM    5  C3  UNK     1      32.761  -7.383  31.445  1.00  0.00     0.069 C 
HETATM    6  C4  UNK     1      32.524  -7.863  35.325  1.00  0.00     0.104 C 
HETATM    7  C5  UNK     1      32.892  -7.212  32.934  1.00  0.00     0.021 C 
HETATM    8  C6  UNK     1      31.579  -9.559  31.840  1.00  0.00     0.095 C 
HETATM    9  C7  UNK     1      31.774  -9.363  33.332  1.00  0.00     0.159 C 
HETATM   10  C8  UNK     1      33.397  -6.651  35.664  1.00  0.00     0.052 C 
HETATM   11  C9  UNK     1      33.859  -5.822  34.700  1.00  0.00     0.018 C 
HETATM   12  C12 UNK     1      34.726  -4.612  34.920  1.00  0.00     0.069 C 
HETATM   13  H7  UNK     1      33.928  -5.451  32.671  1.00  0.00     0.165 HD
ENDROOT
BRANCH   6  14
HETATM   14  C11 UNK     1      31.156  -7.708  35.936  1.00  0.00     0.029 A 
HETATM   15  C13 UNK     1      30.741  -8.664  36.994  1.00  0.00     0.194 A 
HETATM   16  O5  UNK     1      31.472  -9.565  37.381  1.00  0.00    -0.287 OA
HETATM   17  C17 UNK     1      29.392  -8.468  37.557  1.00  0.00     0.050 A 
HETATM   18  C19 UNK     1      28.601  -7.423  37.078  1.00  0.00     0.089 A 
HETATM   19  C21 UNK     1      28.908  -9.315  38.557  1.00  0.00     0.042 A 
HETATM   20  O3  UNK     1      29.026  -6.561  36.097  1.00  0.00    -0.321 OA
HETATM   21  C22 UNK     1      27.322  -7.220  37.596  1.00  0.00     0.040 A 
HETATM   22  C16 UNK     1      30.284  -6.756  35.582  1.00  0.00     0.154 A 
HETATM   23  C24 UNK     1      26.837  -8.064  38.594  1.00  0.00     0.026 A 
HETATM   24  C23 UNK     1      27.628  -9.109  39.074  1.00  0.00     0.035 A 
HETATM   25 Cl1  UNK     1      27.023 -10.147  40.307  1.00  0.00    -0.084 Cl
ENDBRANCH   6  14
BRANCH  10  26
HETATM   26  C14 UNK     1      33.702  -6.447  37.090  1.00  0.00     0.291 C 
HETATM   27  O6  UNK     1      34.341  -7.240  37.756  1.00  0.00    -0.260 OA
BRANCH  26  28
HETATM   28  O4  UNK     1      33.158  -5.270  37.479  1.00  0.00    -0.323 OA
HETATM   29  C25 UNK     1      32.139  -5.374  38.479  1.00  0.00     0.213 C 
ENDBRANCH  26  28
ENDBRANCH  10  26
BRANCH   3  30
HETATM   30  C10 UNK     1      30.253  -7.455  31.075  1.00  0.00     0.057 A 
HETATM   31  O1  UNK     1      30.340  -6.167  30.673  1.00  0.00    -0.327 OA
HETATM   32  C20 UNK     1      29.087  -5.653  30.780  1.00  0.00     0.142 A 
HETATM   33  C18 UNK     1      28.212  -6.607  31.246  1.00  0.00     0.027 A 
HETATM   34  C15 UNK     1      28.978  -7.782  31.438  1.00  0.00     0.035 A 
ENDBRANCH   3  30
TORSDOF 4
ENDMDL
MODEL 6
REMARK VINA RESULT:      -8.0      3.217      6.329
REMARK  4 active torsions:
REMARK  status: ('A' for Active; 'I' for Inactive)
REMARK    1  A    between atoms: C14_22  and  O4_5 
REMARK    2  A    between atoms: C1_9  and  C10_18 
REMARK    3  A    between atoms: C11_19  and  C4_12 
REMARK    4  A    between atoms: C14_22  and  C8_16 
ROOT
HETATM    1  O2  UNK     1      29.903  -4.243  31.948  1.00  0.00    -0.293 OA
HETATM    2  N1  UNK     1      28.267  -8.497  33.210  1.00  0.00    -0.362 N 
HETATM    3  C1  UNK     1      28.556  -6.914  29.812  1.00  0.00     0.056 C 
HETATM    4  C2  UNK     1      29.226  -6.419  32.601  1.00  0.00     0.024 C 
HETATM    5  C3  UNK     1      27.832  -7.677  30.934  1.00  0.00     0.069 C 
HETATM    6  C4  UNK     1      29.896  -6.300  33.966  1.00  0.00     0.104 C 
HETATM    7  C5  UNK     1      28.480  -7.496  32.281  1.00  0.00     0.021 C 
HETATM    8  C6  UNK     1      28.763  -5.455  30.236  1.00  0.00     0.095 C 
HETATM    9  C7  UNK     1      29.359  -5.299  31.622  1.00  0.00     0.159 C 
HETATM   10  C8  UNK     1      29.471  -7.409  34.933  1.00  0.00     0.052 C 
HETATM   11  C9  UNK     1      28.703  -8.446  34.525  1.00  0.00     0.018 C 
HETATM   12  C12 UNK     1      28.224  -9.580  35.389  1.00  0.00     0.069 C 
HETATM   13  H7  UNK     1      27.687  -9.282  32.935  1.00  0.00     0.165 HD
ENDROOT
BRANCH   6  14
HETATM   14  C11 UNK     1      31.393  -6.292  33.808  1.00  0.00     0.029 A 
HETATM   15  C13 UNK     1      32.033  -7.401  33.056  1.00  0.00     0.194 A 
HETATM   16  O5  UNK     1      31.383  -8.315  32.565  1.00  0.00    -0.287 OA
HETATM   17  C17 UNK     1      33.501  -7.345  32.932  1.00  0.00     0.050 A 
HETATM   18  C19 UNK     1      34.191  -6.280  33.511  1.00  0.00     0.089 A 
HETATM   19  C21 UNK     1      34.196  -8.342  32.244  1.00  0.00     0.042 A 
HETATM   20  O3  UNK     1      33.558  -5.273  34.198  1.00  0.00    -0.321 OA
HETATM   21  C22 UNK     1      35.580  -6.206  33.406  1.00  0.00     0.040 A 
HETATM   22  C16 UNK     1      32.191  -5.339  34.306  1.00  0.00     0.154 A 
HETATM   23  C24 UNK     1      36.276  -7.201  32.720  1.00  0.00     0.026 A 
HETATM   24  C23 UNK     1      35.586  -8.266  32.140  1.00  0.00     0.035 A 
HETATM   25 Cl1  UNK     1      36.453  -9.490  31.294  1.00  0.00    -0.084 Cl
ENDBRANCH   6  14
BRANCH  10  26
HETATM   26  C14 UNK     1      29.941  -7.277  36.322  1.00  0.00     0.291 C 
HETATM   27  O6  UNK     1      30.847  -7.943  36.786  1.00  0.00    -0.260 OA
BRANCH  26  28
HETATM   28  O4  UNK     1      29.202  -6.321  36.934  1.00  0.00    -0.323 OA
HETATM   29  C25 UNK     1      29.958  -5.270  37.546  1.00  0.00     0.213 C 
ENDBRANCH  26  28
ENDBRANCH  10  26
BRANCH   3  30
HETATM   30  C10 UNK     1      29.795  -7.664  29.328  1.00  0.00     0.057 A 
HETATM   31  O1  UNK     1      29.590  -8.938  28.924  1.00  0.00    -0.327 OA
HETATM   32  C20 UNK     1      30.804  -9.412  28.540  1.00  0.00     0.142 A 
HETATM   33  C18 UNK     1      31.771  -8.447  28.699  1.00  0.00     0.027 A 
HETATM   34  C15 UNK     1      31.108  -7.307  29.214  1.00  0.00     0.035 A 
ENDBRANCH   3  30
TORSDOF 4
ENDMDL
MODEL 7
REMARK VINA RESULT:      -7.9      4.861      7.420
REMARK  4 active torsions:
REMARK  status: ('A' for Active; 'I' for Inactive)
REMARK    1  A    between atoms: C14_22  and  O4_5 
REMARK    2  A    between atoms: C1_9  and  C10_18 
REMARK    3  A    between atoms: C11_19  and  C4_12 
REMARK    4  A    between atoms: C14_22  and  C8_16 
ROOT
HETATM    1  O2  UNK     1      34.719  -6.394  31.575  1.00  0.00    -0.293 OA
HETATM    2  N1  UNK     1      37.605  -9.345  33.883  1.00  0.00    -0.362 N 
HETATM    3  C1  UNK     1      35.689  -6.356  35.121  1.00  0.00     0.056 C 
HETATM    4  C2  UNK     1      36.055  -7.976  32.729  1.00  0.00     0.024 C 
HETATM    5  C3  UNK     1      36.938  -7.240  34.961  1.00  0.00     0.069 C 
HETATM    6  C4  UNK     1      35.954  -8.997  31.601  1.00  0.00     0.104 C 
HETATM    7  C5  UNK     1      36.837  -8.199  33.805  1.00  0.00     0.021 C 
HETATM    8  C6  UNK     1      35.347  -5.708  33.774  1.00  0.00     0.095 C 
HETATM    9  C7  UNK     1      35.313  -6.685  32.615  1.00  0.00     0.159 C 
HETATM   10  C8  UNK     1      36.951 -10.150  31.754  1.00  0.00     0.052 C 
HETATM   11  C9  UNK     1      37.709 -10.283  32.867  1.00  0.00     0.018 C 
HETATM   12  C12 UNK     1      38.721 -11.369  33.119  1.00  0.00     0.069 C 
HETATM   13  H7  UNK     1      38.191  -9.468  34.701  1.00  0.00     0.165 HD
ENDROOT
BRANCH   6  14
HETATM   14  C11 UNK     1      34.549  -9.531  31.512  1.00  0.00     0.029 A 
HETATM   15  C13 UNK     1      33.784  -9.305  30.260  1.00  0.00     0.194 A 
HETATM   16  O5  UNK     1      34.258  -8.702  29.306  1.00  0.00    -0.287 OA
HETATM   17  C17 UNK     1      32.412  -9.848  30.226  1.00  0.00     0.050 A 
HETATM   18  C19 UNK     1      31.923 -10.526  31.342  1.00  0.00     0.089 A 
HETATM   19  C21 UNK     1      31.611  -9.686  29.093  1.00  0.00     0.042 A 
HETATM   20  O3  UNK     1      32.667 -10.713  32.481  1.00  0.00    -0.321 OA
HETATM   21  C22 UNK     1      30.630 -11.047  31.332  1.00  0.00     0.040 A 
HETATM   22  C16 UNK     1      33.942 -10.203  32.498  1.00  0.00     0.154 A 
HETATM   23  C24 UNK     1      29.827 -10.888  30.202  1.00  0.00     0.026 A 
HETATM   24  C23 UNK     1      30.316 -10.209  29.085  1.00  0.00     0.035 A 
HETATM   25 Cl1  UNK     1      29.321 -10.016  27.694  1.00  0.00    -0.084 Cl
ENDBRANCH   6  14
BRANCH  10  26
HETATM   26  C14 UNK     1      37.036 -11.092  30.626  1.00  0.00     0.291 C 
HETATM   27  O6  UNK     1      36.662 -12.248  30.693  1.00  0.00    -0.260 OA
BRANCH  26  28
HETATM   28  O4  UNK     1      37.582 -10.444  29.569  1.00  0.00    -0.323 OA
HETATM   29  C25 UNK     1      38.883 -10.901  29.186  1.00  0.00     0.213 C 
ENDBRANCH  26  28
ENDBRANCH  10  26
BRANCH   3  30
HETATM   30  C10 UNK     1      34.557  -7.101  35.824  1.00  0.00     0.057 A 
HETATM   31  O1  UNK     1      34.467  -6.907  37.160  1.00  0.00    -0.327 OA
HETATM   32  C20 UNK     1      33.409  -7.649  37.578  1.00  0.00     0.142 A 
HETATM   33  C18 UNK     1      32.833  -8.309  36.518  1.00  0.00     0.027 A 
HETATM   34  C15 UNK     1      33.585  -7.948  35.374  1.00  0.00     0.035 A 
ENDBRANCH   3  30
TORSDOF 4
ENDMDL
MODEL 8
REMARK VINA RESULT:      -7.8      4.522      7.476
REMARK  4 active torsions:
REMARK  status: ('A' for Active; 'I' for Inactive)
REMARK    1  A    between atoms: C14_22  and  O4_5 
REMARK    2  A    between atoms: C1_9  and  C10_18 
REMARK    3  A    between atoms: C11_19  and  C4_12 
REMARK    4  A    between atoms: C14_22  and  C8_16 
ROOT
HETATM    1  O2  UNK     1      33.962  -9.819  29.959  1.00  0.00    -0.293 OA
HETATM    2  N1  UNK     1      31.113  -6.798  32.222  1.00  0.00    -0.362 N 
HETATM    3  C1  UNK     1      31.244  -7.758  28.589  1.00  0.00     0.056 C 
HETATM    4  C2  UNK     1      32.460  -8.424  31.149  1.00  0.00     0.024 C 
HETATM    5  C3  UNK     1      31.176  -6.770  29.766  1.00  0.00     0.069 C 
HETATM    6  C4  UNK     1      32.843  -9.031  32.495  1.00  0.00     0.104 C 
HETATM    7  C5  UNK     1      31.614  -7.377  31.072  1.00  0.00     0.021 C 
HETATM    8  C6  UNK     1      32.627  -8.421  28.559  1.00  0.00     0.095 C 
HETATM    9  C7  UNK     1      33.073  -8.969  29.901  1.00  0.00     0.159 C 
HETATM   10  C8  UNK     1      32.324  -8.215  33.682  1.00  0.00     0.052 C 
HETATM   11  C9  UNK     1      31.489  -7.165  33.506  1.00  0.00     0.018 C 
HETATM   12  C12 UNK     1      30.926  -6.294  34.596  1.00  0.00     0.069 C 
HETATM   13  H7  UNK     1      30.493  -6.003  32.121  1.00  0.00     0.165 HD
ENDROOT
BRANCH   6  14
HETATM   14  C11 UNK     1      32.349 -10.451  32.581  1.00  0.00     0.029 A 
HETATM   15  C13 UNK     1      33.337 -11.531  32.830  1.00  0.00     0.194 A 
HETATM   16  O5  UNK     1      34.531 -11.303  32.966  1.00  0.00    -0.287 OA
HETATM   17  C17 UNK     1      32.800 -12.903  32.904  1.00  0.00     0.050 A 
HETATM   18  C19 UNK     1      31.429 -13.105  32.740  1.00  0.00     0.089 A 
HETATM   19  C21 UNK     1      33.648 -13.988  33.134  1.00  0.00     0.042 A 
HETATM   20  O3  UNK     1      30.550 -12.074  32.513  1.00  0.00    -0.321 OA
HETATM   21  C22 UNK     1      30.899 -14.393  32.806  1.00  0.00     0.040 A 
HETATM   22  C16 UNK     1      31.064 -10.803  32.446  1.00  0.00     0.154 A 
HETATM   23  C24 UNK     1      31.744 -15.479  33.036  1.00  0.00     0.026 A 
HETATM   24  C23 UNK     1      33.116 -15.277  33.199  1.00  0.00     0.035 A 
HETATM   25 Cl1  UNK     1      34.153 -16.621  33.483  1.00  0.00    -0.084 Cl
ENDBRANCH   6  14
BRANCH  10  26
HETATM   26  C14 UNK     1      32.787  -8.637  35.015  1.00  0.00     0.291 C 
HETATM   27  O6  UNK     1      32.166  -9.407  35.724  1.00  0.00    -0.260 OA
BRANCH  26  28
HETATM   28  O4  UNK     1      33.970  -8.029  35.268  1.00  0.00    -0.323 OA
HETATM   29  C25 UNK     1      34.047  -7.356  36.529  1.00  0.00     0.213 C 
ENDBRANCH  26  28
ENDBRANCH  10  26
BRANCH   3  30
HETATM   30  C10 UNK     1      30.040  -8.696  28.569  1.00  0.00     0.057 A 
HETATM   31  O1  UNK     1      28.963  -8.285  29.277  1.00  0.00    -0.327 OA
HETATM   32  C20 UNK     1      28.021  -9.252  29.126  1.00  0.00     0.142 A 
HETATM   33  C18 UNK     1      28.496 -10.268  28.329  1.00  0.00     0.027 A 
HETATM   34  C15 UNK     1      29.814  -9.901  27.968  1.00  0.00     0.035 A 
ENDBRANCH   3  30
TORSDOF 4
ENDMDL
MODEL 9
REMARK VINA RESULT:      -7.8      4.045      7.826
REMARK  4 active torsions:
REMARK  status: ('A' for Active; 'I' for Inactive)
REMARK    1  A    between atoms: C14_22  and  O4_5 
REMARK    2  A    between atoms: C1_9  and  C10_18 
REMARK    3  A    between atoms: C11_19  and  C4_12 
REMARK    4  A    between atoms: C14_22  and  C8_16 
ROOT
HETATM    1  O2  UNK     1      30.743 -11.441  31.515  1.00  0.00    -0.293 OA
HETATM    2  N1  UNK     1      32.779  -7.871  29.174  1.00  0.00    -0.362 N 
HETATM    3  C1  UNK     1      29.381  -9.427  28.758  1.00  0.00     0.056 C 
HETATM    4  C2  UNK     1      31.738  -9.564  30.462  1.00  0.00     0.024 C 
HETATM    5  C3  UNK     1      30.733  -8.884  28.264  1.00  0.00     0.069 C 
HETATM    6  C4  UNK     1      32.784  -9.406  31.561  1.00  0.00     0.104 C 
HETATM    7  C5  UNK     1      31.765  -8.793  29.356  1.00  0.00     0.021 C 
HETATM    8  C6  UNK     1      29.608 -10.726  29.541  1.00  0.00     0.095 C 
HETATM    9  C7  UNK     1      30.695 -10.626  30.593  1.00  0.00     0.159 C 
HETATM   10  C8  UNK     1      33.913  -8.448  31.171  1.00  0.00     0.052 C 
HETATM   11  C9  UNK     1      33.862  -7.725  30.028  1.00  0.00     0.018 C 
HETATM   12  C12 UNK     1      34.914  -6.763  29.546  1.00  0.00     0.069 C 
HETATM   13  H7  UNK     1      32.772  -7.322  28.322  1.00  0.00     0.165 HD
ENDROOT
BRANCH   6  14
HETATM   14  C11 UNK     1      32.128  -8.948  32.837  1.00  0.00     0.029 A 
HETATM   15  C13 UNK     1      32.190  -9.837  34.024  1.00  0.00     0.194 A 
HETATM   16  O5  UNK     1      32.754 -10.922  33.996  1.00  0.00    -0.287 OA
HETATM   17  C17 UNK     1      31.530  -9.341  35.247  1.00  0.00     0.050 A 
HETATM   18  C19 UNK     1      30.901  -8.096  35.221  1.00  0.00     0.089 A 
HETATM   19  C21 UNK     1      31.533 -10.103  36.417  1.00  0.00     0.042 A 
HETATM   20  O3  UNK     1      30.869  -7.305  34.099  1.00  0.00    -0.321 OA
HETATM   21  C22 UNK     1      30.272  -7.606  36.365  1.00  0.00     0.040 A 
HETATM   22  C16 UNK     1      31.487  -7.780  32.968  1.00  0.00     0.154 A 
HETATM   23  C24 UNK     1      30.272  -8.366  37.535  1.00  0.00     0.026 A 
HETATM   24  C23 UNK     1      30.902  -9.612  37.561  1.00  0.00     0.035 A 
HETATM   25 Cl1  UNK     1      30.899 -10.544  39.008  1.00  0.00    -0.084 Cl
ENDBRANCH   6  14
BRANCH  10  26
HETATM   26  C14 UNK     1      35.048  -8.364  32.105  1.00  0.00     0.291 C 
HETATM   27  O6  UNK     1      35.198  -7.449  32.892  1.00  0.00    -0.260 OA
BRANCH  26  28
HETATM   28  O4  UNK     1      35.837  -9.448  31.916  1.00  0.00    -0.323 OA
HETATM   29  C25 UNK     1      36.039 -10.260  33.077  1.00  0.00     0.213 C 
ENDBRANCH  26  28
ENDBRANCH  10  26
BRANCH   3  30
HETATM   30  C10 UNK     1      28.560  -8.346  29.457  1.00  0.00     0.057 A 
HETATM   31  O1  UNK     1      29.061  -7.091  29.388  1.00  0.00    -0.327 OA
HETATM   32  C20 UNK     1      28.189  -6.300  30.065  1.00  0.00     0.142 A 
HETATM   33  C18 UNK     1      27.144  -7.045  30.559  1.00  0.00     0.027 A 
HETATM   34  C15 UNK     1      27.390  -8.381  30.160  1.00  0.00     0.035 A 
ENDBRANCH   3  30
TORSDOF 4
ENDMDL
MODEL 10
REMARK VINA RESULT:      -7.8      3.562      6.454
REMARK  4 active torsions:
REMARK  status: ('A' for Active; 'I' for Inactive)
REMARK    1  A    between atoms: C14_22  and  O4_5 
REMARK    2  A    between atoms: C1_9  and  C10_18 
REMARK    3  A    between atoms: C11_19  and  C4_12 
REMARK    4  A    between atoms: C14_22  and  C8_16 
ROOT
HETATM    1  O2  UNK     1      32.919  -7.729  30.686  1.00  0.00    -0.293 OA
HETATM    2  N1  UNK     1      30.365  -5.772  34.152  1.00  0.00    -0.362 N 
HETATM    3  C1  UNK     1      29.863  -5.702  30.427  1.00  0.00     0.056 C 
HETATM    4  C2  UNK     1      31.584  -6.885  32.455  1.00  0.00     0.024 C 
HETATM    5  C3  UNK     1      29.956  -5.079  31.830  1.00  0.00     0.069 C 
HETATM    6  C4  UNK     1      32.255  -7.782  33.490  1.00  0.00     0.104 C 
HETATM    7  C5  UNK     1      30.673  -5.959  32.819  1.00  0.00     0.021 C 
HETATM    8  C6  UNK     1      31.254  -6.169  29.982  1.00  0.00     0.095 C 
HETATM    9  C7  UNK     1      31.981  -7.002  31.020  1.00  0.00     0.159 C 
HETATM   10  C8  UNK     1      31.919  -7.379  34.929  1.00  0.00     0.052 C 
HETATM   11  C9  UNK     1      31.000  -6.423  35.199  1.00  0.00     0.018 C 
HETATM   12  C12 UNK     1      30.601  -5.947  36.569  1.00  0.00     0.069 C 
HETATM   13  H7  UNK     1      29.687  -5.055  34.385  1.00  0.00     0.165 HD
ENDROOT
BRANCH   6  14
HETATM   14  C11 UNK     1      31.878  -9.220  33.250  1.00  0.00     0.029 A 
HETATM   15  C13 UNK     1      32.961 -10.232  33.170  1.00  0.00     0.194 A 
HETATM   16  O5  UNK     1      34.142  -9.934  33.294  1.00  0.00    -0.287 OA
HETATM   17  C17 UNK     1      32.537 -11.625  32.932  1.00  0.00     0.050 A 
HETATM   18  C19 UNK     1      31.178 -11.907  32.798  1.00  0.00     0.089 A 
HETATM   19  C21 UNK     1      33.481 -12.650  32.841  1.00  0.00     0.042 A 
HETATM   20  O3  UNK     1      30.208 -10.938  32.879  1.00  0.00    -0.321 OA
HETATM   21  C22 UNK     1      30.754 -13.216  32.572  1.00  0.00     0.040 A 
HETATM   22  C16 UNK     1      30.617  -9.646  33.101  1.00  0.00     0.154 A 
HETATM   23  C24 UNK     1      31.695 -14.243  32.481  1.00  0.00     0.026 A 
HETATM   24  C23 UNK     1      33.055 -13.961  32.614  1.00  0.00     0.035 A 
HETATM   25 Cl1  UNK     1      34.210 -15.232  32.501  1.00  0.00    -0.084 Cl
ENDBRANCH   6  14
BRANCH  10  26
HETATM   26  C14 UNK     1      32.654  -8.087  35.992  1.00  0.00     0.291 C 
HETATM   27  O6  UNK     1      32.174  -8.996  36.642  1.00  0.00    -0.260 OA
BRANCH  26  28
HETATM   28  O4  UNK     1      33.893  -7.548  36.085  1.00  0.00    -0.323 OA
HETATM   29  C25 UNK     1      34.200  -6.952  37.350  1.00  0.00     0.213 C 
ENDBRANCH  26  28
ENDBRANCH  10  26
BRANCH   3  30
HETATM   30  C10 UNK     1      28.739  -6.732  30.340  1.00  0.00     0.057 A 
HETATM   31  O1  UNK     1      27.485  -6.248  30.489  1.00  0.00    -0.327 OA
HETATM   32  C20 UNK     1      26.653  -7.316  30.379  1.00  0.00     0.142 A 
HETATM   33  C18 UNK     1      27.373  -8.468  30.162  1.00  0.00     0.027 A 
HETATM   34  C15 UNK     1      28.734  -8.083  30.138  1.00  0.00     0.035 A 
ENDBRANCH   3  30
TORSDOF 4
ENDMDL
