MODEL 1
REMARK VINA RESULT:      -8.3      0.000      0.000
REMARK  1 active torsions:
REMARK  status: ('A' for Active; 'I' for Inactive)
REMARK    1  A    between atoms: C14_18  and  C16_20 
ROOT
HETATM    1  O1  UNK     1      18.923  -0.868  34.186  1.00  0.00    -0.273 OA
HETATM    2  O2  UNK     1      18.809  -2.119  36.095  1.00  0.00    -0.259 OA
HETATM    3  N1  UNK     1      19.125   1.751  30.087  1.00  0.00    -0.380 N 
HETATM    4  C1  UNK     1      18.831   1.645  31.450  1.00  0.00     0.045 A 
HETATM    5  C2  UNK     1      19.419   0.540  29.327  1.00  0.00     0.123 C 
HETATM    6  C3  UNK     1      19.056   0.439  32.153  1.00  0.00     0.004 A 
HETATM    7  C4  UNK     1      18.688   2.934  29.352  1.00  0.00     0.123 C 
HETATM    8  C5  UNK     1      18.335   2.758  32.173  1.00  0.00    -0.030 A 
HETATM    9  C6  UNK     1      20.303  -0.393  30.140  1.00  0.00     0.025 C 
HETATM   10  C7  UNK     1      19.599  -0.775  31.435  1.00  0.00     0.045 C 
HETATM   11  C8  UNK     1      18.889   4.187  30.191  1.00  0.00     0.024 C 
HETATM   12  C9  UNK     1      18.086   4.078  31.481  1.00  0.00     0.042 C 
HETATM   13  C10 UNK     1      18.725   0.362  33.516  1.00  0.00     0.098 A 
HETATM   14  C11 UNK     1      18.019   2.648  33.537  1.00  0.00     0.023 A 
HETATM   15  C12 UNK     1      18.211   1.446  34.215  1.00  0.00     0.000 A 
HETATM   16  C13 UNK     1      17.890   1.300  35.626  1.00  0.00     0.035 A 
HETATM   17  C14 UNK     1      18.086   0.132  36.248  1.00  0.00     0.078 A 
HETATM   18  C15 UNK     1      18.628  -1.044  35.534  1.00  0.00     0.301 A 
ENDROOT
BRANCH  17  19
HETATM   19  C16 UNK     1      17.732   0.085  37.672  1.00  0.00     0.276 C 
HETATM   20  O3  UNK     1      17.971   1.007  38.439  1.00  0.00    -0.301 OA
ENDBRANCH  17  19
TORSDOF 1
ENDMDL
MODEL 2
REMARK VINA RESULT:      -8.2      2.971      6.701
REMARK  1 active torsions:
REMARK  status: ('A' for Active; 'I' for Inactive)
REMARK    1  A    between atoms: C14_18  and  C16_20 
ROOT
HETATM    1  O1  UNK     1      18.674   0.782  31.942  1.00  0.00    -0.273 OA
HETATM    2  O2  UNK     1      18.809   1.590  29.808  1.00  0.00    -0.259 OA
HETATM    3  N1  UNK     1      18.316  -0.937  36.482  1.00  0.00    -0.380 N 
HETATM    4  C1  UNK     1      18.804  -1.043  35.176  1.00  0.00     0.045 A 
HETATM    5  C2  UNK     1      17.297   0.064  36.782  1.00  0.00     0.123 C 
HETATM    6  C3  UNK     1      18.520  -0.051  34.209  1.00  0.00     0.004 A 
HETATM    7  C4  UNK     1      18.451  -2.072  37.389  1.00  0.00     0.123 C 
HETATM    8  C5  UNK     1      19.629  -2.130  34.797  1.00  0.00    -0.030 A 
HETATM    9  C6  UNK     1      17.611   1.369  36.068  1.00  0.00     0.025 C 
HETATM   10  C7  UNK     1      17.658   1.139  34.563  1.00  0.00     0.045 C 
HETATM   11  C8  UNK     1      19.813  -2.729  37.221  1.00  0.00     0.024 C 
HETATM   12  C9  UNK     1      19.979  -3.215  35.788  1.00  0.00     0.042 C 
HETATM   13  C10 UNK     1      19.006  -0.204  32.900  1.00  0.00     0.098 A 
HETATM   14  C11 UNK     1      20.103  -2.250  33.479  1.00  0.00     0.023 A 
HETATM   15  C12 UNK     1      19.789  -1.286  32.523  1.00  0.00     0.000 A 
HETATM   16  C13 UNK     1      20.261  -1.384  31.151  1.00  0.00     0.035 A 
HETATM   17  C14 UNK     1      19.943  -0.441  30.256  1.00  0.00     0.078 A 
HETATM   18  C15 UNK     1      19.108   0.722  30.621  1.00  0.00     0.301 A 
ENDROOT
BRANCH  17  19
HETATM   19  C16 UNK     1      20.468  -0.630  28.897  1.00  0.00     0.276 C 
HETATM   20  O3  UNK     1      19.739  -0.737  27.921  1.00  0.00    -0.301 OA
ENDBRANCH  17  19
TORSDOF 1
ENDMDL
MODEL 3
REMARK VINA RESULT:      -8.0      1.317      3.269
REMARK  1 active torsions:
REMARK  status: ('A' for Active; 'I' for Inactive)
REMARK    1  A    between atoms: C14_18  and  C16_20 
ROOT
HETATM    1  O1  UNK     1      17.871   1.372  34.614  1.00  0.00    -0.273 OA
HETATM    2  O2  UNK     1      17.126   1.766  36.738  1.00  0.00    -0.259 OA
HETATM    3  N1  UNK     1      19.502   0.589  30.095  1.00  0.00    -0.380 N 
HETATM    4  C1  UNK     1      19.275   0.143  31.400  1.00  0.00     0.045 A 
HETATM    5  C2  UNK     1      19.333   2.006  29.787  1.00  0.00     0.123 C 
HETATM    6  C3  UNK     1      18.651   0.977  32.357  1.00  0.00     0.004 A 
HETATM    7  C4  UNK     1      20.330  -0.213  29.199  1.00  0.00     0.123 C 
HETATM    8  C5  UNK     1      19.630  -1.171  31.789  1.00  0.00    -0.030 A 
HETATM    9  C6  UNK     1      18.099   2.555  30.485  1.00  0.00     0.025 C 
HETATM   10  C7  UNK     1      18.237   2.384  31.992  1.00  0.00     0.045 C 
HETATM   11  C8  UNK     1      20.019  -1.693  29.370  1.00  0.00     0.024 C 
HETATM   12  C9  UNK     1      20.288  -2.114  30.809  1.00  0.00     0.042 C 
HETATM   13  C10 UNK     1      18.461   0.504  33.666  1.00  0.00     0.098 A 
HETATM   14  C11 UNK     1      19.422  -1.615  33.106  1.00  0.00     0.023 A 
HETATM   15  C12 UNK     1      18.838  -0.775  34.052  1.00  0.00     0.000 A 
HETATM   16  C13 UNK     1      18.613  -1.204  35.424  1.00  0.00     0.035 A 
HETATM   17  C14 UNK     1      18.050  -0.373  36.309  1.00  0.00     0.078 A 
HETATM   18  C15 UNK     1      17.640   0.997  35.934  1.00  0.00     0.301 A 
ENDROOT
BRANCH  17  19
HETATM   19  C16 UNK     1      17.865  -0.898  37.668  1.00  0.00     0.276 C 
HETATM   20  O3  UNK     1      18.710  -1.582  38.228  1.00  0.00    -0.301 OA
ENDBRANCH  17  19
TORSDOF 1
ENDMDL
MODEL 4
REMARK VINA RESULT:      -7.8      3.299      5.732
REMARK  1 active torsions:
REMARK  status: ('A' for Active; 'I' for Inactive)
REMARK    1  A    between atoms: C14_18  and  C16_20 
ROOT
HETATM    1  O1  UNK     1      17.690   4.425  33.595  1.00  0.00    -0.273 OA
HETATM    2  O2  UNK     1      17.116   6.606  33.964  1.00  0.00    -0.259 OA
HETATM    3  N1  UNK     1      18.848  -0.241  32.831  1.00  0.00    -0.380 N 
HETATM    4  C1  UNK     1      18.723   1.072  32.369  1.00  0.00     0.045 A 
HETATM    5  C2  UNK     1      18.289  -0.594  34.132  1.00  0.00     0.123 C 
HETATM    6  C3  UNK     1      18.295   2.110  33.230  1.00  0.00     0.004 A 
HETATM    7  C4  UNK     1      19.087  -1.316  31.873  1.00  0.00     0.123 C 
HETATM    8  C5  UNK     1      19.059   1.406  31.034  1.00  0.00    -0.030 A 
HETATM    9  C6  UNK     1      18.564   0.508  35.143  1.00  0.00     0.025 C 
HETATM   10  C7  UNK     1      17.939   1.814  34.669  1.00  0.00     0.045 C 
HETATM   11  C8  UNK     1      20.080  -0.870  30.810  1.00  0.00     0.024 C 
HETATM   12  C9  UNK     1      19.534   0.345  30.070  1.00  0.00     0.042 C 
HETATM   13  C10 UNK     1      18.157   3.414  32.724  1.00  0.00     0.098 A 
HETATM   14  C11 UNK     1      18.914   2.722  30.562  1.00  0.00     0.023 A 
HETATM   15  C12 UNK     1      18.458   3.732  31.407  1.00  0.00     0.000 A 
HETATM   16  C13 UNK     1      18.294   5.102  30.946  1.00  0.00     0.035 A 
HETATM   17  C14 UNK     1      17.856   6.050  31.783  1.00  0.00     0.078 A 
HETATM   18  C15 UNK     1      17.521   5.746  33.191  1.00  0.00     0.301 A 
ENDROOT
BRANCH  17  19
HETATM   19  C16 UNK     1      17.724   7.401  31.224  1.00  0.00     0.276 C 
HETATM   20  O3  UNK     1      16.647   7.867  30.881  1.00  0.00    -0.301 OA
ENDBRANCH  17  19
TORSDOF 1
ENDMDL
MODEL 5
REMARK VINA RESULT:      -7.7     15.881     19.010
REMARK  1 active torsions:
REMARK  status: ('A' for Active; 'I' for Inactive)
REMARK    1  A    between atoms: C14_18  and  C16_20 
ROOT
HETATM    1  O1  UNK     1      19.520   0.162  14.658  1.00  0.00    -0.273 OA
HETATM    2  O2  UNK     1      19.844   2.218  15.602  1.00  0.00    -0.259 OA
HETATM    3  N1  UNK     1      18.898  -4.217  12.626  1.00  0.00    -0.380 N 
HETATM    4  C1  UNK     1      18.829  -3.371  13.736  1.00  0.00     0.045 A 
HETATM    5  C2  UNK     1      19.581  -3.757  11.421  1.00  0.00     0.123 C 
HETATM    6  C3  UNK     1      19.182  -2.005  13.635  1.00  0.00     0.004 A 
HETATM    7  C4  UNK     1      18.729  -5.655  12.812  1.00  0.00     0.123 C 
HETATM    8  C5  UNK     1      18.367  -3.851  14.986  1.00  0.00    -0.030 A 
HETATM    9  C6  UNK     1      19.240  -2.301  11.143  1.00  0.00     0.025 C 
HETATM   10  C7  UNK     1      19.666  -1.435  12.321  1.00  0.00     0.045 C 
HETATM   11  C8  UNK     1      17.621  -5.936  13.816  1.00  0.00     0.024 C 
HETATM   12  C9  UNK     1      17.964  -5.297  15.155  1.00  0.00     0.042 C 
HETATM   13  C10 UNK     1      19.124  -1.190  14.778  1.00  0.00     0.098 A 
HETATM   14  C11 UNK     1      18.318  -3.007  16.109  1.00  0.00     0.023 A 
HETATM   15  C12 UNK     1      18.700  -1.672  16.009  1.00  0.00     0.000 A 
HETATM   16  C13 UNK     1      18.663  -0.775  17.153  1.00  0.00     0.035 A 
HETATM   17  C14 UNK     1      19.036   0.504  17.024  1.00  0.00     0.078 A 
HETATM   18  C15 UNK     1      19.498   1.049  15.730  1.00  0.00     0.301 A 
ENDROOT
BRANCH  17  19
HETATM   19  C16 UNK     1      18.964   1.329  18.237  1.00  0.00     0.276 C 
HETATM   20  O3  UNK     1      18.498   0.912  19.288  1.00  0.00    -0.301 OA
ENDBRANCH  17  19
TORSDOF 1
ENDMDL
MODEL 6
REMARK VINA RESULT:      -7.6      1.393      3.256
REMARK  1 active torsions:
REMARK  status: ('A' for Active; 'I' for Inactive)
REMARK    1  A    between atoms: C14_18  and  C16_20 
ROOT
HETATM    1  O1  UNK     1      18.180   2.296  35.495  1.00  0.00    -0.273 OA
HETATM    2  O2  UNK     1      18.090   1.549  37.653  1.00  0.00    -0.259 OA
HETATM    3  N1  UNK     1      18.425   3.932  30.917  1.00  0.00    -0.380 N 
HETATM    4  C1  UNK     1      18.445   2.877  31.834  1.00  0.00     0.045 A 
HETATM    5  C2  UNK     1      18.483   5.305  31.409  1.00  0.00     0.123 C 
HETATM    6  C3  UNK     1      18.269   3.112  33.218  1.00  0.00     0.004 A 
HETATM    7  C4  UNK     1      18.816   3.682  29.533  1.00  0.00     0.123 C 
HETATM    8  C5  UNK     1      18.604   1.539  31.397  1.00  0.00    -0.030 A 
HETATM    9  C6  UNK     1      17.606   5.463  32.641  1.00  0.00     0.025 C 
HETATM   10  C7  UNK     1      18.078   4.518  33.738  1.00  0.00     0.045 C 
HETATM   11  C8  UNK     1      18.257   2.351  29.053  1.00  0.00     0.024 C 
HETATM   12  C9  UNK     1      18.784   1.223  29.931  1.00  0.00     0.042 C 
HETATM   13  C10 UNK     1      18.320   2.030  34.113  1.00  0.00     0.098 A 
HETATM   14  C11 UNK     1      18.646   0.480  32.320  1.00  0.00     0.023 A 
HETATM   15  C12 UNK     1      18.506   0.723  33.684  1.00  0.00     0.000 A 
HETATM   16  C13 UNK     1      18.549  -0.352  34.664  1.00  0.00     0.035 A 
HETATM   17  C14 UNK     1      18.411  -0.086  35.968  1.00  0.00     0.078 A 
HETATM   18  C15 UNK     1      18.215   1.294  36.460  1.00  0.00     0.301 A 
ENDROOT
BRANCH  17  19
HETATM   19  C16 UNK     1      18.467  -1.238  36.877  1.00  0.00     0.276 C 
HETATM   20  O3  UNK     1      17.576  -2.073  36.934  1.00  0.00    -0.301 OA
ENDBRANCH  17  19
TORSDOF 1
ENDMDL
MODEL 7
REMARK VINA RESULT:      -7.6     11.962     14.146
REMARK  1 active torsions:
REMARK  status: ('A' for Active; 'I' for Inactive)
REMARK    1  A    between atoms: C14_18  and  C16_20 
ROOT
HETATM    1  O1  UNK     1      26.207  -5.756  38.728  1.00  0.00    -0.273 OA
HETATM    2  O2  UNK     1      23.978  -5.320  38.978  1.00  0.00    -0.259 OA
HETATM    3  N1  UNK     1      30.969  -6.648  38.253  1.00  0.00    -0.380 N 
HETATM    4  C1  UNK     1      29.651  -7.103  38.362  1.00  0.00     0.045 A 
HETATM    5  C2  UNK     1      31.259  -5.239  38.501  1.00  0.00     0.123 C 
HETATM    6  C3  UNK     1      28.573  -6.193  38.459  1.00  0.00     0.004 A 
HETATM    7  C4  UNK     1      32.066  -7.605  38.365  1.00  0.00     0.123 C 
HETATM    8  C5  UNK     1      29.359  -8.488  38.340  1.00  0.00    -0.030 A 
HETATM    9  C6  UNK     1      30.186  -4.361  37.877  1.00  0.00     0.025 C 
HETATM   10  C7  UNK     1      28.826  -4.703  38.471  1.00  0.00     0.045 C 
HETATM   11  C8  UNK     1      31.726  -8.893  37.631  1.00  0.00     0.024 C 
HETATM   12  C9  UNK     1      30.466  -9.509  38.225  1.00  0.00     0.042 C 
HETATM   13  C10 UNK     1      27.264  -6.686  38.593  1.00  0.00     0.098 A 
HETATM   14  C11 UNK     1      28.037  -8.947  38.470  1.00  0.00     0.023 A 
HETATM   15  C12 UNK     1      26.983  -8.046  38.601  1.00  0.00     0.000 A 
HETATM   16  C13 UNK     1      25.605  -8.491  38.742  1.00  0.00     0.035 A 
HETATM   17  C14 UNK     1      24.615  -7.599  38.864  1.00  0.00     0.078 A 
HETATM   18  C15 UNK     1      24.878  -6.144  38.864  1.00  0.00     0.301 A 
ENDROOT
BRANCH  17  19
HETATM   19  C16 UNK     1      23.259  -8.147  39.000  1.00  0.00     0.276 C 
HETATM   20  O3  UNK     1      22.667  -8.174  40.070  1.00  0.00    -0.301 OA
ENDBRANCH  17  19
TORSDOF 1
ENDMDL
MODEL 8
REMARK VINA RESULT:      -7.5      3.405      5.276
REMARK  1 active torsions:
REMARK  status: ('A' for Active; 'I' for Inactive)
REMARK    1  A    between atoms: C14_18  and  C16_20 
ROOT
HETATM    1  O1  UNK     1      18.100   5.211  31.185  1.00  0.00    -0.273 OA
HETATM    2  O2  UNK     1      17.717   7.463  31.248  1.00  0.00    -0.259 OA
HETATM    3  N1  UNK     1      18.977   0.426  31.019  1.00  0.00    -0.380 N 
HETATM    4  C1  UNK     1      18.681   1.583  31.744  1.00  0.00     0.045 A 
HETATM    5  C2  UNK     1      19.361   0.544  29.615  1.00  0.00     0.123 C 
HETATM    6  C3  UNK     1      18.505   2.826  31.093  1.00  0.00     0.004 A 
HETATM    7  C4  UNK     1      19.358  -0.789  31.734  1.00  0.00     0.123 C 
HETATM    8  C5  UNK     1      18.514   1.535  33.149  1.00  0.00    -0.030 A 
HETATM    9  C6  UNK     1      18.495   1.579  28.915  1.00  0.00     0.025 C 
HETATM   10  C7  UNK     1      18.656   2.933  29.593  1.00  0.00     0.045 C 
HETATM   11  C8  UNK     1      18.500  -0.964  32.978  1.00  0.00     0.024 C 
HETATM   12  C9  UNK     1      18.677   0.235  33.901  1.00  0.00     0.042 C 
HETATM   13  C10 UNK     1      18.233   3.974  31.857  1.00  0.00     0.098 A 
HETATM   14  C11 UNK     1      18.237   2.701  33.883  1.00  0.00     0.023 A 
HETATM   15  C12 UNK     1      18.099   3.928  33.238  1.00  0.00     0.000 A 
HETATM   16  C13 UNK     1      17.817   5.153  33.970  1.00  0.00     0.035 A 
HETATM   17  C14 UNK     1      17.689   6.316  33.321  1.00  0.00     0.078 A 
HETATM   18  C15 UNK     1      17.830   6.402  31.851  1.00  0.00     0.301 A 
ENDROOT
BRANCH  17  19
HETATM   19  C16 UNK     1      17.404   7.495  34.148  1.00  0.00     0.276 C 
HETATM   20  O3  UNK     1      16.685   7.446  35.136  1.00  0.00    -0.301 OA
ENDBRANCH  17  19
TORSDOF 1
ENDMDL
MODEL 9
REMARK VINA RESULT:      -7.5     13.931     17.276
REMARK  1 active torsions:
REMARK  status: ('A' for Active; 'I' for Inactive)
REMARK    1  A    between atoms: C14_18  and  C16_20 
ROOT
HETATM    1  O1  UNK     1      19.150   0.137  14.692  1.00  0.00    -0.273 OA
HETATM    2  O2  UNK     1      19.048  -0.840  12.628  1.00  0.00    -0.259 OA
HETATM    3  N1  UNK     1      19.310   2.260  19.070  1.00  0.00    -0.380 N 
HETATM    4  C1  UNK     1      19.220   1.111  18.277  1.00  0.00     0.045 A 
HETATM    5  C2  UNK     1      19.186   3.571  18.440  1.00  0.00     0.123 C 
HETATM    6  C3  UNK     1      19.262   1.195  16.866  1.00  0.00     0.004 A 
HETATM    7  C4  UNK     1      19.054   2.160  20.503  1.00  0.00     0.123 C 
HETATM    8  C5  UNK     1      19.121  -0.171  18.869  1.00  0.00    -0.030 A 
HETATM    9  C6  UNK     1      19.943   3.597  17.121  1.00  0.00     0.025 C 
HETATM   10  C7  UNK     1      19.383   2.537  16.181  1.00  0.00     0.045 C 
HETATM   11  C8  UNK     1      19.675   0.891  21.068  1.00  0.00     0.024 C 
HETATM   12  C9  UNK     1      19.084  -0.327  20.371  1.00  0.00     0.042 C 
HETATM   13  C10 UNK     1      19.144   0.022  16.101  1.00  0.00     0.098 A 
HETATM   14  C11 UNK     1      19.009  -1.325  18.074  1.00  0.00     0.023 A 
HETATM   15  C12 UNK     1      19.017  -1.231  16.684  1.00  0.00     0.000 A 
HETATM   16  C13 UNK     1      18.899  -2.406  15.835  1.00  0.00     0.035 A 
HETATM   17  C14 UNK     1      18.910  -2.283  14.502  1.00  0.00     0.078 A 
HETATM   18  C15 UNK     1      19.039  -0.964  13.848  1.00  0.00     0.301 A 
ENDROOT
BRANCH  17  19
HETATM   19  C16 UNK     1      18.786  -3.527  13.732  1.00  0.00     0.276 C 
HETATM   20  O3  UNK     1      17.952  -4.382  13.996  1.00  0.00    -0.301 OA
ENDBRANCH  17  19
TORSDOF 1
ENDMDL
MODEL 10
REMARK VINA RESULT:      -7.4      3.115      6.091
REMARK  1 active torsions:
REMARK  status: ('A' for Active; 'I' for Inactive)
REMARK    1  A    between atoms: C14_18  and  C16_20 
ROOT
HETATM    1  O1  UNK     1      20.269  -2.197  32.217  1.00  0.00    -0.273 OA
HETATM    2  O2  UNK     1      21.104  -2.650  30.139  1.00  0.00    -0.259 OA
HETATM    3  N1  UNK     1      18.554  -1.240  36.671  1.00  0.00    -0.380 N 
HETATM    4  C1  UNK     1      18.721  -0.884  35.330  1.00  0.00     0.045 A 
HETATM    5  C2  UNK     1      19.296  -2.379  37.203  1.00  0.00     0.123 C 
HETATM    6  C3  UNK     1      19.390  -1.741  34.426  1.00  0.00     0.004 A 
HETATM    7  C4  UNK     1      18.049  -0.249  37.616  1.00  0.00     0.123 C 
HETATM    8  C5  UNK     1      18.190   0.331  34.831  1.00  0.00    -0.030 A 
HETATM    9  C6  UNK     1      19.309  -3.519  36.196  1.00  0.00     0.025 C 
HETATM   10  C7  UNK     1      19.963  -3.057  34.900  1.00  0.00     0.045 C 
HETATM   11  C8  UNK     1      16.932   0.569  36.984  1.00  0.00     0.024 C 
HETATM   12  C9  UNK     1      17.454   1.283  35.744  1.00  0.00     0.042 C 
HETATM   13  C10 UNK     1      19.561  -1.339  33.091  1.00  0.00     0.098 A 
HETATM   14  C11 UNK     1      18.375   0.701  33.488  1.00  0.00     0.023 A 
HETATM   15  C12 UNK     1      19.066  -0.134  32.612  1.00  0.00     0.000 A 
HETATM   16  C13 UNK     1      19.277   0.223  31.218  1.00  0.00     0.035 A 
HETATM   17  C14 UNK     1      19.944  -0.601  30.401  1.00  0.00     0.078 A 
HETATM   18  C15 UNK     1      20.489  -1.890  30.878  1.00  0.00     0.301 A 
ENDROOT
BRANCH  17  19
HETATM   19  C16 UNK     1      20.105  -0.152  29.012  1.00  0.00     0.276 C 
HETATM   20  O3  UNK     1      19.473  -0.641  28.087  1.00  0.00    -0.301 OA
ENDBRANCH  17  19
TORSDOF 1
ENDMDL
