MODEL 1
REMARK VINA RESULT:      -7.9      0.000      0.000
REMARK  2 active torsions:
REMARK  status: ('A' for Active; 'I' for Inactive)
REMARK       I    between atoms: C7_12  and  N1_5 
REMARK    1  A    between atoms: C1_6  and  C6_11 
REMARK    2  A    between atoms: C7_12  and  C9_14 
ROOT
HETATM    1 Br1  UNK     1       6.816   4.907   9.913  1.00  0.00    -0.051 Br
HETATM    2  O2  UNK     1      11.632   6.638   6.655  1.00  0.00    -0.274 OA
HETATM    3  O3  UNK     1      13.891   6.920   6.448  1.00  0.00    -0.259 OA
HETATM    4  C9  UNK     1      13.115   6.026   8.501  1.00  0.00     0.108 A 
HETATM    5  C10 UNK     1      12.073   5.635   9.244  1.00  0.00     0.037 A 
HETATM    6  C11 UNK     1      12.938   6.561   7.132  1.00  0.00     0.304 A 
HETATM    7  C12 UNK     1      10.720   5.729   8.717  1.00  0.00     0.000 A 
HETATM    8  C13 UNK     1      10.532   6.228   7.433  1.00  0.00     0.089 A 
HETATM    9  C14 UNK     1       9.604   5.334   9.458  1.00  0.00     0.033 A 
HETATM   10  C15 UNK     1       9.262   6.343   6.870  1.00  0.00     0.039 A 
HETATM   11  C16 UNK     1       8.324   5.443   8.906  1.00  0.00     0.011 A 
HETATM   12  C17 UNK     1       8.154   5.947   7.615  1.00  0.00     0.022 A 
ENDROOT
BRANCH   4  13
HETATM   13  C7  UNK     1      14.448   5.891   9.124  1.00  0.00     0.260 C 
HETATM   14  O1  UNK     1      14.948   4.765   9.155  1.00  0.00    -0.267 OA
HETATM   15  N1  UNK     1      15.051   7.044   9.636  1.00  0.00    -0.343 N 
HETATM   16  C1  UNK     1      14.409   8.376   9.736  1.00  0.00     0.087 C 
HETATM   17  C5  UNK     1      16.374   6.913  10.260  1.00  0.00     0.126 C 
HETATM   18  C2  UNK     1      15.385   9.502   9.355  1.00  0.00     0.025 C 
HETATM   19  C3  UNK     1      16.731   9.391  10.060  1.00  0.00     0.004 C 
HETATM   20  C4  UNK     1      17.334   8.013   9.823  1.00  0.00     0.020 C 
BRANCH  16  21
HETATM   21  C6  UNK     1      13.799   8.585  11.125  1.00  0.00     0.021 C 
HETATM   22  C8  UNK     1      12.544   9.430  11.052  1.00  0.00     0.007 C 
ENDBRANCH  16  21
ENDBRANCH   4  13
TORSDOF 2
ENDMDL
MODEL 2
REMARK VINA RESULT:      -7.5      3.023      6.457
REMARK  2 active torsions:
REMARK  status: ('A' for Active; 'I' for Inactive)
REMARK       I    between atoms: C7_12  and  N1_5 
REMARK    1  A    between atoms: C1_6  and  C6_11 
REMARK    2  A    between atoms: C7_12  and  C9_14 
ROOT
HETATM    1 Br1  UNK     1      17.152  10.976  10.206  1.00  0.00    -0.051 Br
HETATM    2  O2  UNK     1      14.541   5.570   9.331  1.00  0.00    -0.274 OA
HETATM    3  O3  UNK     1      12.939   4.278   8.337  1.00  0.00    -0.259 OA
HETATM    4  C9  UNK     1      12.925   6.586   7.801  1.00  0.00     0.108 A 
HETATM    5  C10 UNK     1      13.480   7.792   7.973  1.00  0.00     0.037 A 
HETATM    6  C11 UNK     1      13.445   5.385   8.493  1.00  0.00     0.304 A 
HETATM    7  C12 UNK     1      14.624   7.954   8.857  1.00  0.00     0.000 A 
HETATM    8  C13 UNK     1      15.128   6.837   9.516  1.00  0.00     0.089 A 
HETATM    9  C14 UNK     1      15.233   9.193   9.067  1.00  0.00     0.033 A 
HETATM   10  C15 UNK     1      16.222   6.925  10.375  1.00  0.00     0.039 A 
HETATM   11  C16 UNK     1      16.331   9.296   9.926  1.00  0.00     0.011 A 
HETATM   12  C17 UNK     1      16.823   8.164  10.579  1.00  0.00     0.022 A 
ENDROOT
BRANCH   4  13
HETATM   13  C7  UNK     1      11.769   6.525   6.884  1.00  0.00     0.260 C 
HETATM   14  O1  UNK     1      12.006   6.379   5.683  1.00  0.00    -0.267 OA
HETATM   15  N1  UNK     1      10.489   6.636   7.434  1.00  0.00    -0.343 N 
HETATM   16  C1  UNK     1      10.189   6.952   8.851  1.00  0.00     0.087 C 
HETATM   17  C5  UNK     1       9.337   6.579   6.525  1.00  0.00     0.126 C 
HETATM   18  C2  UNK     1       9.024   6.103   9.384  1.00  0.00     0.025 C 
HETATM   19  C3  UNK     1       7.810   6.106   8.462  1.00  0.00     0.004 C 
HETATM   20  C4  UNK     1       8.221   5.689   7.056  1.00  0.00     0.020 C 
BRANCH  16  21
HETATM   21  C6  UNK     1       9.943   8.453   9.035  1.00  0.00     0.021 C 
HETATM   22  C8  UNK     1      10.998   9.078   9.924  1.00  0.00     0.007 C 
ENDBRANCH  16  21
ENDBRANCH   4  13
TORSDOF 2
ENDMDL
MODEL 3
REMARK VINA RESULT:      -7.4      3.568      6.950
REMARK  2 active torsions:
REMARK  status: ('A' for Active; 'I' for Inactive)
REMARK       I    between atoms: C7_12  and  N1_5 
REMARK    1  A    between atoms: C1_6  and  C6_11 
REMARK    2  A    between atoms: C7_12  and  C9_14 
ROOT
HETATM    1 Br1  UNK     1      17.403  12.559   7.217  1.00  0.00    -0.051 Br
HETATM    2  O2  UNK     1      15.000   7.949  10.346  1.00  0.00    -0.274 OA
HETATM    3  O3  UNK     1      13.200   6.663  10.915  1.00  0.00    -0.259 OA
HETATM    4  C9  UNK     1      12.807   8.416   9.370  1.00  0.00     0.108 A 
HETATM    5  C10 UNK     1      13.307   9.438   8.666  1.00  0.00     0.037 A 
HETATM    6  C11 UNK     1      13.655   7.601  10.269  1.00  0.00     0.304 A 
HETATM    7  C12 UNK     1      14.718   9.779   8.770  1.00  0.00     0.000 A 
HETATM    8  C13 UNK     1      15.532   9.025   9.608  1.00  0.00     0.089 A 
HETATM    9  C14 UNK     1      15.282  10.838   8.055  1.00  0.00     0.033 A 
HETATM   10  C15 UNK     1      16.891   9.299   9.751  1.00  0.00     0.039 A 
HETATM   11  C16 UNK     1      16.644  11.125   8.188  1.00  0.00     0.011 A 
HETATM   12  C17 UNK     1      17.446  10.357   9.035  1.00  0.00     0.022 A 
ENDROOT
BRANCH   4  13
HETATM   13  C7  UNK     1      11.364   8.149   9.197  1.00  0.00     0.260 C 
HETATM   14  O1  UNK     1      10.582   8.768   9.922  1.00  0.00    -0.267 OA
HETATM   15  N1  UNK     1      10.982   7.216   8.230  1.00  0.00    -0.343 N 
HETATM   16  C1  UNK     1      11.907   6.360   7.450  1.00  0.00     0.087 C 
HETATM   17  C5  UNK     1       9.548   6.945   8.057  1.00  0.00     0.126 C 
HETATM   18  C2  UNK     1      11.472   6.253   5.979  1.00  0.00     0.025 C 
HETATM   19  C3  UNK     1       9.997   5.906   5.815  1.00  0.00     0.004 C 
HETATM   20  C4  UNK     1       9.138   6.896   6.591  1.00  0.00     0.020 C 
BRANCH  16  21
HETATM   21  C6  UNK     1      12.066   4.986   8.108  1.00  0.00     0.021 C 
HETATM   22  C8  UNK     1      13.526   4.651   8.334  1.00  0.00     0.007 C 
ENDBRANCH  16  21
ENDBRANCH   4  13
TORSDOF 2
ENDMDL
MODEL 4
REMARK VINA RESULT:      -7.3     33.046     35.328
REMARK  2 active torsions:
REMARK  status: ('A' for Active; 'I' for Inactive)
REMARK       I    between atoms: C7_12  and  N1_5 
REMARK    1  A    between atoms: C1_6  and  C6_11 
REMARK    2  A    between atoms: C7_12  and  C9_14 
ROOT
HETATM    1 Br1  UNK     1      30.242  -9.469  38.277  1.00  0.00    -0.051 Br
HETATM    2  O2  UNK     1      25.470  -5.733  38.578  1.00  0.00    -0.274 OA
HETATM    3  O3  UNK     1      23.233  -5.394  38.894  1.00  0.00    -0.259 OA
HETATM    4  C9  UNK     1      24.001  -7.630  39.050  1.00  0.00     0.108 A 
HETATM    5  C10 UNK     1      25.034  -8.479  38.991  1.00  0.00     0.037 A 
HETATM    6  C11 UNK     1      24.177  -6.175  38.839  1.00  0.00     0.304 A 
HETATM    7  C12 UNK     1      26.374  -7.986  38.714  1.00  0.00     0.000 A 
HETATM    8  C13 UNK     1      26.561  -6.622  38.514  1.00  0.00     0.089 A 
HETATM    9  C14 UNK     1      27.480  -8.837  38.641  1.00  0.00     0.033 A 
HETATM   10  C15 UNK     1      27.819  -6.087  38.245  1.00  0.00     0.039 A 
HETATM   11  C16 UNK     1      28.748  -8.313  38.373  1.00  0.00     0.011 A 
HETATM   12  C17 UNK     1      28.916  -6.941  38.175  1.00  0.00     0.022 A 
ENDROOT
BRANCH   4  13
HETATM   13  C7  UNK     1      22.680  -8.227  39.337  1.00  0.00     0.260 C 
HETATM   14  O1  UNK     1      22.385  -8.407  40.521  1.00  0.00    -0.267 OA
HETATM   15  N1  UNK     1      21.857  -8.548  38.255  1.00  0.00    -0.343 N 
HETATM   16  C1  UNK     1      22.248  -8.472  36.827  1.00  0.00     0.087 C 
HETATM   17  C5  UNK     1      20.545  -9.145  38.536  1.00  0.00     0.126 C 
HETATM   18  C2  UNK     1      21.112  -7.903  35.961  1.00  0.00     0.025 C 
HETATM   19  C3  UNK     1      19.770  -8.577  36.216  1.00  0.00     0.004 C 
HETATM   20  C4  UNK     1      19.433  -8.526  37.700  1.00  0.00     0.020 C 
BRANCH  16  21
HETATM   21  C6  UNK     1      22.735  -9.833  36.321  1.00  0.00     0.021 C 
HETATM   22  C8  UNK     1      22.029 -10.228  35.040  1.00  0.00     0.007 C 
ENDBRANCH  16  21
ENDBRANCH   4  13
TORSDOF 2
ENDMDL
MODEL 5
REMARK VINA RESULT:      -7.0     33.866     36.273
REMARK  2 active torsions:
REMARK  status: ('A' for Active; 'I' for Inactive)
REMARK       I    between atoms: C7_12  and  N1_5 
REMARK    1  A    between atoms: C1_6  and  C6_11 
REMARK    2  A    between atoms: C7_12  and  C9_14 
ROOT
HETATM    1 Br1  UNK     1      26.906 -10.340  39.642  1.00  0.00    -0.051 Br
HETATM    2  O2  UNK     1      28.794  -4.796  38.059  1.00  0.00    -0.274 OA
HETATM    3  O3  UNK     1      30.482  -3.354  37.519  1.00  0.00    -0.259 OA
HETATM    4  C9  UNK     1      31.108  -5.587  38.005  1.00  0.00     0.108 A 
HETATM    5  C10 UNK     1      30.722  -6.821  38.352  1.00  0.00     0.037 A 
HETATM    6  C11 UNK     1      30.133  -4.486  37.838  1.00  0.00     0.304 A 
HETATM    7  C12 UNK     1      29.315  -7.113  38.578  1.00  0.00     0.000 A 
HETATM    8  C13 UNK     1      28.383  -6.093  38.426  1.00  0.00     0.089 A 
HETATM    9  C14 UNK     1      28.869  -8.386  38.944  1.00  0.00     0.033 A 
HETATM   10  C15 UNK     1      27.021  -6.308  38.627  1.00  0.00     0.039 A 
HETATM   11  C16 UNK     1      27.505  -8.616  39.148  1.00  0.00     0.011 A 
HETATM   12  C17 UNK     1      26.584  -7.578  38.990  1.00  0.00     0.022 A 
ENDROOT
BRANCH   4  13
HETATM   13  C7  UNK     1      32.557  -5.390  37.798  1.00  0.00     0.260 C 
HETATM   14  O1  UNK     1      33.203  -4.911  38.732  1.00  0.00    -0.267 OA
HETATM   15  N1  UNK     1      33.098  -5.758  36.563  1.00  0.00    -0.343 N 
HETATM   16  C1  UNK     1      32.319  -6.202  35.382  1.00  0.00     0.087 C 
HETATM   17  C5  UNK     1      34.538  -5.561  36.352  1.00  0.00     0.126 C 
HETATM   18  C2  UNK     1      33.004  -7.376  34.663  1.00  0.00     0.025 C 
HETATM   19  C3  UNK     1      34.483  -7.130  34.392  1.00  0.00     0.004 C 
HETATM   20  C4  UNK     1      35.198  -6.761  35.685  1.00  0.00     0.020 C 
BRANCH  16  21
HETATM   21  C6  UNK     1      32.042  -5.028  34.438  1.00  0.00     0.021 C 
HETATM   22  C8  UNK     1      31.060  -5.418  33.352  1.00  0.00     0.007 C 
ENDBRANCH  16  21
ENDBRANCH   4  13
TORSDOF 2
ENDMDL
MODEL 6
REMARK VINA RESULT:      -6.9     30.917     33.657
REMARK  2 active torsions:
REMARK  status: ('A' for Active; 'I' for Inactive)
REMARK       I    between atoms: C7_12  and  N1_5 
REMARK    1  A    between atoms: C1_6  and  C6_11 
REMARK    2  A    between atoms: C7_12  and  C9_14 
ROOT
HETATM    1 Br1  UNK     1      29.525  -4.358  39.060  1.00  0.00    -0.051 Br
HETATM    2  O2  UNK     1      33.012  -5.939  34.353  1.00  0.00    -0.274 OA
HETATM    3  O3  UNK     1      33.315  -7.107  32.412  1.00  0.00    -0.259 OA
HETATM    4  C9  UNK     1      31.211  -7.343  33.476  1.00  0.00     0.108 A 
HETATM    5  C10 UNK     1      30.417  -7.012  34.502  1.00  0.00     0.037 A 
HETATM    6  C11 UNK     1      32.585  -6.807  33.352  1.00  0.00     0.304 A 
HETATM    7  C12 UNK     1      30.893  -6.105  35.535  1.00  0.00     0.000 A 
HETATM    8  C13 UNK     1      32.181  -5.588  35.435  1.00  0.00     0.089 A 
HETATM    9  C14 UNK     1      30.100  -5.734  36.623  1.00  0.00     0.033 A 
HETATM   10  C15 UNK     1      32.696  -4.714  36.390  1.00  0.00     0.039 A 
HETATM   11  C16 UNK     1      30.603  -4.857  37.589  1.00  0.00     0.011 A 
HETATM   12  C17 UNK     1      31.899  -4.349  37.472  1.00  0.00     0.022 A 
ENDROOT
BRANCH   4  13
HETATM   13  C7  UNK     1      30.637  -8.271  32.480  1.00  0.00     0.260 C 
HETATM   14  O1  UNK     1      31.076  -9.422  32.459  1.00  0.00    -0.267 OA
HETATM   15  N1  UNK     1      29.640  -7.784  31.630  1.00  0.00    -0.343 N 
HETATM   16  C1  UNK     1      29.201  -6.371  31.544  1.00  0.00     0.087 C 
HETATM   17  C5  UNK     1      29.070  -8.702  30.636  1.00  0.00     0.126 C 
HETATM   18  C2  UNK     1      27.672  -6.263  31.409  1.00  0.00     0.025 C 
HETATM   19  C3  UNK     1      27.102  -7.173  30.328  1.00  0.00     0.004 C 
HETATM   20  C4  UNK     1      27.551  -8.609  30.562  1.00  0.00     0.020 C 
BRANCH  16  21
HETATM   21  C6  UNK     1      29.934  -5.639  30.416  1.00  0.00     0.021 C 
HETATM   22  C8  UNK     1      29.921  -4.140  30.635  1.00  0.00     0.007 C 
ENDBRANCH  16  21
ENDBRANCH   4  13
TORSDOF 2
ENDMDL
MODEL 7
REMARK VINA RESULT:      -6.9     34.353     36.322
REMARK  2 active torsions:
REMARK  status: ('A' for Active; 'I' for Inactive)
REMARK       I    between atoms: C7_12  and  N1_5 
REMARK    1  A    between atoms: C1_6  and  C6_11 
REMARK    2  A    between atoms: C7_12  and  C9_14 
ROOT
HETATM    1 Br1  UNK     1      24.398  -7.921  38.881  1.00  0.00    -0.051 Br
HETATM    2  O2  UNK     1      30.328  -9.126  38.435  1.00  0.00    -0.274 OA
HETATM    3  O3  UNK     1      32.478  -8.419  38.116  1.00  0.00    -0.259 OA
HETATM    4  C9  UNK     1      30.793  -6.754  38.062  1.00  0.00     0.108 A 
HETATM    5  C10 UNK     1      29.491  -6.456  38.156  1.00  0.00     0.037 A 
HETATM    6  C11 UNK     1      31.285  -8.143  38.201  1.00  0.00     0.304 A 
HETATM    7  C12 UNK     1      28.515  -7.506  38.400  1.00  0.00     0.000 A 
HETATM    8  C13 UNK     1      28.957  -8.818  38.535  1.00  0.00     0.089 A 
HETATM    9  C14 UNK     1      27.147  -7.241  38.504  1.00  0.00     0.033 A 
HETATM   10  C15 UNK     1      28.073  -9.869  38.770  1.00  0.00     0.039 A 
HETATM   11  C16 UNK     1      26.248  -8.285  38.740  1.00  0.00     0.011 A 
HETATM   12  C17 UNK     1      26.711  -9.597  38.873  1.00  0.00     0.022 A 
ENDROOT
BRANCH   4  13
HETATM   13  C7  UNK     1      31.706  -5.619  37.814  1.00  0.00     0.260 C 
HETATM   14  O1  UNK     1      31.892  -4.828  38.740  1.00  0.00    -0.267 OA
HETATM   15  N1  UNK     1      32.294  -5.516  36.550  1.00  0.00    -0.343 N 
HETATM   16  C1  UNK     1      31.976  -6.372  35.383  1.00  0.00     0.087 C 
HETATM   17  C5  UNK     1      33.199  -4.387  36.298  1.00  0.00     0.126 C 
HETATM   18  C2  UNK     1      33.244  -6.760  34.604  1.00  0.00     0.025 C 
HETATM   19  C3  UNK     1      34.141  -5.569  34.292  1.00  0.00     0.004 C 
HETATM   20  C4  UNK     1      34.470  -4.811  35.572  1.00  0.00     0.020 C 
BRANCH  16  21
HETATM   21  C6  UNK     1      30.928  -5.705  34.486  1.00  0.00     0.021 C 
HETATM   22  C8  UNK     1      29.637  -6.498  34.467  1.00  0.00     0.007 C 
ENDBRANCH  16  21
ENDBRANCH   4  13
TORSDOF 2
ENDMDL
MODEL 8
REMARK VINA RESULT:      -6.9     32.748     35.238
REMARK  2 active torsions:
REMARK  status: ('A' for Active; 'I' for Inactive)
REMARK       I    between atoms: C7_12  and  N1_5 
REMARK    1  A    between atoms: C1_6  and  C6_11 
REMARK    2  A    between atoms: C7_12  and  C9_14 
ROOT
HETATM    1 Br1  UNK     1      30.016  -7.378  29.395  1.00  0.00    -0.051 Br
HETATM    2  O2  UNK     1      33.762  -6.826  34.135  1.00  0.00    -0.274 OA
HETATM    3  O3  UNK     1      34.231  -5.979  36.205  1.00  0.00    -0.259 OA
HETATM    4  C9  UNK     1      32.137  -5.390  35.266  1.00  0.00     0.108 A 
HETATM    5  C10 UNK     1      31.288  -5.494  34.236  1.00  0.00     0.037 A 
HETATM    6  C11 UNK     1      33.451  -6.071  35.263  1.00  0.00     0.304 A 
HETATM    7  C12 UNK     1      31.643  -6.289  33.071  1.00  0.00     0.000 A 
HETATM    8  C13 UNK     1      32.873  -6.938  33.048  1.00  0.00     0.089 A 
HETATM    9  C14 UNK     1      30.789  -6.423  31.974  1.00  0.00     0.033 A 
HETATM   10  C15 UNK     1      33.272  -7.715  31.962  1.00  0.00     0.039 A 
HETATM   11  C16 UNK     1      31.175  -7.199  30.878  1.00  0.00     0.011 A 
HETATM   12  C17 UNK     1      32.415  -7.843  30.873  1.00  0.00     0.022 A 
ENDROOT
BRANCH   4  13
HETATM   13  C7  UNK     1      31.686  -4.561  36.403  1.00  0.00     0.260 C 
HETATM   14  O1  UNK     1      32.027  -3.376  36.410  1.00  0.00    -0.267 OA
HETATM   15  N1  UNK     1      30.908  -5.170  37.391  1.00  0.00    -0.343 N 
HETATM   16  C1  UNK     1      30.607  -6.619  37.473  1.00  0.00     0.087 C 
HETATM   17  C5  UNK     1      30.461  -4.350  38.524  1.00  0.00     0.126 C 
HETATM   18  C2  UNK     1      29.145  -6.870  37.878  1.00  0.00     0.025 C 
HETATM   19  C3  UNK     1      28.714  -6.061  39.095  1.00  0.00     0.004 C 
HETATM   20  C4  UNK     1      28.995  -4.582  38.867  1.00  0.00     0.020 C 
BRANCH  16  21
HETATM   21  C6  UNK     1      31.595  -7.329  38.405  1.00  0.00     0.021 C 
HETATM   22  C8  UNK     1      32.150  -8.584  37.762  1.00  0.00     0.007 C 
ENDBRANCH  16  21
ENDBRANCH   4  13
TORSDOF 2
ENDMDL
MODEL 9
REMARK VINA RESULT:      -6.9     34.409     35.603
REMARK  2 active torsions:
REMARK  status: ('A' for Active; 'I' for Inactive)
REMARK       I    between atoms: C7_12  and  N1_5 
REMARK    1  A    between atoms: C1_6  and  C6_11 
REMARK    2  A    between atoms: C7_12  and  C9_14 
ROOT
HETATM    1 Br1  UNK     1      25.638 -11.049  36.452  1.00  0.00    -0.051 Br
HETATM    2  O2  UNK     1      28.593  -5.919  37.779  1.00  0.00    -0.274 OA
HETATM    3  O3  UNK     1      30.236  -4.399  37.318  1.00  0.00    -0.259 OA
HETATM    4  C9  UNK     1      30.057  -6.249  35.849  1.00  0.00     0.108 A 
HETATM    5  C10 UNK     1      29.424  -7.385  35.529  1.00  0.00     0.037 A 
HETATM    6  C11 UNK     1      29.659  -5.441  37.023  1.00  0.00     0.304 A 
HETATM    7  C12 UNK     1      28.315  -7.859  36.341  1.00  0.00     0.000 A 
HETATM    8  C13 UNK     1      27.924  -7.113  37.448  1.00  0.00     0.089 A 
HETATM    9  C14 UNK     1      27.627  -9.039  36.046  1.00  0.00     0.033 A 
HETATM   10  C15 UNK     1      26.868  -7.513  38.266  1.00  0.00     0.039 A 
HETATM   11  C16 UNK     1      26.566  -9.452  36.857  1.00  0.00     0.011 A 
HETATM   12  C17 UNK     1      26.188  -8.690  37.965  1.00  0.00     0.022 A 
ENDROOT
BRANCH   4  13
HETATM   13  C7  UNK     1      31.171  -5.851  34.963  1.00  0.00     0.260 C 
HETATM   14  O1  UNK     1      30.879  -5.373  33.865  1.00  0.00    -0.267 OA
HETATM   15  N1  UNK     1      32.476  -6.043  35.425  1.00  0.00    -0.343 N 
HETATM   16  C1  UNK     1      32.848  -6.743  36.678  1.00  0.00     0.087 C 
HETATM   17  C5  UNK     1      33.586  -5.652  34.546  1.00  0.00     0.126 C 
HETATM   18  C2  UNK     1      33.991  -6.020  37.410  1.00  0.00     0.025 C 
HETATM   19  C3  UNK     1      35.164  -5.679  36.500  1.00  0.00     0.004 C 
HETATM   20  C4  UNK     1      34.677  -4.892  35.290  1.00  0.00     0.020 C 
BRANCH  16  21
HETATM   21  C6  UNK     1      33.177  -8.214  36.403  1.00  0.00     0.021 C 
HETATM   22  C8  UNK     1      32.140  -9.132  37.017  1.00  0.00     0.007 C 
ENDBRANCH  16  21
ENDBRANCH   4  13
TORSDOF 2
ENDMDL
MODEL 10
REMARK VINA RESULT:      -6.9     31.623     34.042
REMARK  2 active torsions:
REMARK  status: ('A' for Active; 'I' for Inactive)
REMARK       I    between atoms: C7_12  and  N1_5 
REMARK    1  A    between atoms: C1_6  and  C6_11 
REMARK    2  A    between atoms: C7_12  and  C9_14 
ROOT
HETATM    1 Br1  UNK     1      25.803  -6.416  30.049  1.00  0.00    -0.051 Br
HETATM    2  O2  UNK     1      30.350  -8.776  33.300  1.00  0.00    -0.274 OA
HETATM    3  O3  UNK     1      31.917  -8.582  34.951  1.00  0.00    -0.259 OA
HETATM    4  C9  UNK     1      30.530  -6.698  34.577  1.00  0.00     0.108 A 
HETATM    5  C10 UNK     1      29.528  -6.150  33.878  1.00  0.00     0.037 A 
HETATM    6  C11 UNK     1      31.000  -8.076  34.312  1.00  0.00     0.304 A 
HETATM    7  C12 UNK     1      28.869  -6.906  32.825  1.00  0.00     0.000 A 
HETATM    8  C13 UNK     1      29.296  -8.204  32.560  1.00  0.00     0.089 A 
HETATM    9  C14 UNK     1      27.822  -6.373  32.069  1.00  0.00     0.033 A 
HETATM   10  C15 UNK     1      28.706  -8.981  31.565  1.00  0.00     0.039 A 
HETATM   11  C16 UNK     1      27.220  -7.142  31.068  1.00  0.00     0.011 A 
HETATM   12  C17 UNK     1      27.663  -8.443  30.817  1.00  0.00     0.022 A 
ENDROOT
BRANCH   4  13
HETATM   13  C7  UNK     1      31.134  -5.851  35.625  1.00  0.00     0.260 C 
HETATM   14  O1  UNK     1      32.148  -5.216  35.326  1.00  0.00    -0.267 OA
HETATM   15  N1  UNK     1      30.521  -5.825  36.881  1.00  0.00    -0.343 N 
HETATM   16  C1  UNK     1      29.390  -6.685  37.302  1.00  0.00     0.087 C 
HETATM   17  C5  UNK     1      31.121  -4.986  37.927  1.00  0.00     0.126 C 
HETATM   18  C2  UNK     1      28.359  -5.898  38.129  1.00  0.00     0.025 C 
HETATM   19  C3  UNK     1      28.990  -5.084  39.252  1.00  0.00     0.004 C 
HETATM   20  C4  UNK     1      30.081  -4.179  38.694  1.00  0.00     0.020 C 
BRANCH  16  21
HETATM   21  C6  UNK     1      29.895  -7.929  38.039  1.00  0.00     0.021 C 
HETATM   22  C8  UNK     1      29.322  -9.195  37.437  1.00  0.00     0.007 C 
ENDBRANCH  16  21
ENDBRANCH   4  13
TORSDOF 2
ENDMDL
