MODEL 1
REMARK VINA RESULT:      -8.2      0.000      0.000
REMARK  8 active torsions:
REMARK  status: ('A' for Active; 'I' for Inactive)
REMARK    1  A    between atoms: C11_18  and  O2_2 
REMARK    2  A    between atoms: C15_22  and  O3_3 
REMARK    3  A    between atoms: C20_27  and  O4_4 
REMARK    4  A    between atoms: C5_12  and  N1_6 
REMARK    5  A    between atoms: C6_13  and  N2_7 
REMARK    6  A    between atoms: C5_12  and  C7_14 
REMARK    7  A    between atoms: C6_13  and  C8_15 
REMARK    8  A    between atoms: C16_23  and  C22_29 
ROOT
HETATM    1  N1  UNK     1      18.430   1.690  33.536  1.00  0.00     0.096 N 
HETATM    2  N2  UNK     1      18.359   4.574  33.343  1.00  0.00     0.096 N 
HETATM    3  C1  UNK     1      17.879   2.362  32.353  1.00  0.00     0.303 C 
HETATM    4  C2  UNK     1      18.256   2.530  34.728  1.00  0.00     0.303 C 
HETATM    5  C3  UNK     1      18.530   3.735  32.151  1.00  0.00     0.303 C 
HETATM    6  C4  UNK     1      18.909   3.903  34.528  1.00  0.00     0.303 C 
ENDROOT
BRANCH   1   7
HETATM    7  C5  UNK     1      17.807   0.382  33.728  1.00  0.00     0.312 C 
BRANCH   7   8
HETATM    8  C7  UNK     1      18.797  -0.728  33.652  1.00  0.00    -0.011 A 
HETATM    9  C10 UNK     1      19.149  -1.419  34.745  1.00  0.00     0.092 A 
HETATM   10  C17 UNK     1      20.122  -2.523  34.719  1.00  0.00     0.288 A 
HETATM   11  O1  UNK     1      20.679  -2.834  33.488  1.00  0.00    -0.275 OA
HETATM   12  O5  UNK     1      20.417  -3.134  35.740  1.00  0.00    -0.260 OA
HETATM   13  C13 UNK     1      20.329  -2.125  32.322  1.00  0.00     0.090 A 
HETATM   14  C9  UNK     1      19.405  -1.080  32.361  1.00  0.00     0.007 A 
HETATM   15  C19 UNK     1      20.953  -2.525  31.138  1.00  0.00     0.039 A 
HETATM   16  C14 UNK     1      19.112  -0.425  31.158  1.00  0.00     0.022 A 
HETATM   17  C16 UNK     1      19.729  -0.815  29.963  1.00  0.00    -0.058 A 
HETATM   18  C21 UNK     1      20.648  -1.862  29.953  1.00  0.00     0.010 A 
BRANCH  17  19
HETATM   19  C22 UNK     1      19.402  -0.103  28.693  1.00  0.00     0.034 C 
HETATM   20  C23 UNK     1      18.668   1.213  28.938  1.00  0.00     0.010 C 
ENDBRANCH  17  19
ENDBRANCH   7   8
ENDBRANCH   1   7
BRANCH   2  21
HETATM   21  C6  UNK     1      18.983   5.882  33.152  1.00  0.00     0.314 C 
BRANCH  21  22
HETATM   22  C8  UNK     1      17.960   6.976  33.001  1.00  0.00     0.006 A 
HETATM   23  C11 UNK     1      17.961   8.077  33.856  1.00  0.00     0.112 A 
HETATM   24  C15 UNK     1      17.006   9.082  33.701  1.00  0.00     0.135 A 
HETATM   25  C20 UNK     1      16.050   8.985  32.689  1.00  0.00     0.104 A 
HETATM   26  C18 UNK     1      16.049   7.884  31.834  1.00  0.00     0.040 A 
HETATM   27  C12 UNK     1      17.004   6.879  31.989  1.00  0.00     0.014 A 
BRANCH  23  28
HETATM   28  O2  UNK     1      18.892   8.174  34.848  1.00  0.00    -0.352 OA
HETATM   29  C24 UNK     1      20.119   8.821  34.522  1.00  0.00     0.210 C 
ENDBRANCH  23  28
BRANCH  24  30
HETATM   30  O3  UNK     1      17.005  10.158  34.538  1.00  0.00    -0.351 OA
HETATM   31  C25 UNK     1      17.672  11.333  34.082  1.00  0.00     0.210 C 
ENDBRANCH  24  30
BRANCH  25  32
HETATM   32  O4  UNK     1      15.111   9.959  32.528  1.00  0.00    -0.353 OA
HETATM   33  C26 UNK     1      13.893   9.811  33.253  1.00  0.00     0.210 C 
ENDBRANCH  25  32
ENDBRANCH  21  22
ENDBRANCH   2  21
TORSDOF 8
ENDMDL
MODEL 2
REMARK VINA RESULT:      -8.2     23.598     25.551
REMARK  8 active torsions:
REMARK  status: ('A' for Active; 'I' for Inactive)
REMARK    1  A    between atoms: C11_18  and  O2_2 
REMARK    2  A    between atoms: C15_22  and  O3_3 
REMARK    3  A    between atoms: C20_27  and  O4_4 
REMARK    4  A    between atoms: C5_12  and  N1_6 
REMARK    5  A    between atoms: C6_13  and  N2_7 
REMARK    6  A    between atoms: C5_12  and  C7_14 
REMARK    7  A    between atoms: C6_13  and  C8_15 
REMARK    8  A    between atoms: C16_23  and  C22_29 
ROOT
HETATM    1  N1  UNK     1      11.891   6.308   7.437  1.00  0.00     0.096 N 
HETATM    2  N2  UNK     1       9.080   6.371   8.107  1.00  0.00     0.096 N 
HETATM    3  C1  UNK     1      11.441   6.546   8.813  1.00  0.00     0.303 C 
HETATM    4  C2  UNK     1      10.890   6.795   6.479  1.00  0.00     0.303 C 
HETATM    5  C3  UNK     1      10.081   5.886   9.065  1.00  0.00     0.303 C 
HETATM    6  C4  UNK     1       9.530   6.134   6.729  1.00  0.00     0.303 C 
ENDROOT
BRANCH   1   7
HETATM    7  C5  UNK     1      13.188   6.939   7.198  1.00  0.00     0.312 C 
BRANCH   7   8
HETATM    8  C7  UNK     1      14.170   6.630   8.273  1.00  0.00    -0.011 A 
HETATM    9  C10 UNK     1      14.453   5.365   8.611  1.00  0.00     0.092 A 
HETATM   10  C17 UNK     1      15.416   5.011   9.667  1.00  0.00     0.288 A 
HETATM   11  O1  UNK     1      16.040   6.063  10.320  1.00  0.00    -0.275 OA
HETATM   12  O5  UNK     1      15.650   3.841   9.947  1.00  0.00    -0.260 OA
HETATM   13  C13 UNK     1      15.762   7.404   9.987  1.00  0.00     0.090 A 
HETATM   14  C9  UNK     1      14.847   7.724   8.984  1.00  0.00     0.007 A 
HETATM   15  C19 UNK     1      16.449   8.381  10.711  1.00  0.00     0.039 A 
HETATM   16  C14 UNK     1      14.626   9.082   8.714  1.00  0.00     0.022 A 
HETATM   17  C16 UNK     1      15.307  10.073   9.431  1.00  0.00    -0.058 A 
HETATM   18  C21 UNK     1      16.217   9.723  10.427  1.00  0.00     0.010 A 
BRANCH  17  19
HETATM   19  C22 UNK     1      15.057  11.512   9.126  1.00  0.00     0.034 C 
HETATM   20  C23 UNK     1      15.597  11.918   7.757  1.00  0.00     0.010 C 
ENDBRANCH  17  19
ENDBRANCH   7   8
ENDBRANCH   1   7
BRANCH   2  21
HETATM   21  C6  UNK     1       7.783   5.739   8.345  1.00  0.00     0.314 C 
BRANCH  21  22
HETATM   22  C8  UNK     1       7.150   6.221   9.622  1.00  0.00     0.006 A 
HETATM   23  C11 UNK     1       6.926   5.345  10.684  1.00  0.00     0.112 A 
HETATM   24  C15 UNK     1       6.338   5.809  11.860  1.00  0.00     0.135 A 
HETATM   25  C20 UNK     1       5.975   7.151  11.976  1.00  0.00     0.104 A 
HETATM   26  C18 UNK     1       6.199   8.028  10.914  1.00  0.00     0.040 A 
HETATM   27  C12 UNK     1       6.786   7.563   9.737  1.00  0.00     0.014 A 
BRANCH  23  28
HETATM   28  O2  UNK     1       7.276   4.031  10.573  1.00  0.00    -0.352 OA
HETATM   29  C24 UNK     1       6.319   3.154   9.985  1.00  0.00     0.210 C 
ENDBRANCH  23  28
BRANCH  24  30
HETATM   30  O3  UNK     1       6.117   4.953  12.898  1.00  0.00    -0.351 OA
HETATM   31  C25 UNK     1       4.818   4.369  12.989  1.00  0.00     0.210 C 
ENDBRANCH  24  30
BRANCH  25  32
HETATM   32  O4  UNK     1       5.399   7.618  13.119  1.00  0.00    -0.353 OA
HETATM   33  C26 UNK     1       4.030   8.007  13.043  1.00  0.00     0.210 C 
ENDBRANCH  25  32
ENDBRANCH  21  22
ENDBRANCH   2  21
TORSDOF 8
ENDMDL
MODEL 3
REMARK VINA RESULT:      -8.2     13.639     17.524
REMARK  8 active torsions:
REMARK  status: ('A' for Active; 'I' for Inactive)
REMARK    1  A    between atoms: C11_18  and  O2_2 
REMARK    2  A    between atoms: C15_22  and  O3_3 
REMARK    3  A    between atoms: C20_27  and  O4_4 
REMARK    4  A    between atoms: C5_12  and  N1_6 
REMARK    5  A    between atoms: C6_13  and  N2_7 
REMARK    6  A    between atoms: C5_12  and  C7_14 
REMARK    7  A    between atoms: C6_13  and  C8_15 
REMARK    8  A    between atoms: C16_23  and  C22_29 
ROOT
HETATM    1  N1  UNK     1      26.989  -9.306  37.490  1.00  0.00     0.096 N 
HETATM    2  N2  UNK     1      29.838  -8.892  37.743  1.00  0.00     0.096 N 
HETATM    3  C1  UNK     1      27.726  -8.474  36.532  1.00  0.00     0.303 C 
HETATM    4  C2  UNK     1      27.640  -9.271  38.805  1.00  0.00     0.303 C 
HETATM    5  C3  UNK     1      29.187  -8.925  36.428  1.00  0.00     0.303 C 
HETATM    6  C4  UNK     1      29.101  -9.724  38.703  1.00  0.00     0.303 C 
ENDROOT
BRANCH   1   7
HETATM    7  C5  UNK     1      25.596  -8.873  37.589  1.00  0.00     0.312 C 
BRANCH   7   8
HETATM    8  C7  UNK     1      24.672  -9.783  36.857  1.00  0.00    -0.011 A 
HETATM    9  C10 UNK     1      25.111 -10.927  36.315  1.00  0.00     0.092 A 
HETATM   10  C17 UNK     1      24.236 -11.858  35.584  1.00  0.00     0.288 A 
HETATM   11  O1  UNK     1      22.901 -11.500  35.471  1.00  0.00    -0.275 OA
HETATM   12  O5  UNK     1      24.673 -12.897  35.103  1.00  0.00    -0.260 OA
HETATM   13  C13 UNK     1      22.410 -10.303  36.029  1.00  0.00     0.090 A 
HETATM   14  C9  UNK     1      23.251  -9.430  36.720  1.00  0.00     0.007 A 
HETATM   15  C19 UNK     1      21.049 -10.044  35.854  1.00  0.00     0.039 A 
HETATM   16  C14 UNK     1      22.686  -8.261  37.245  1.00  0.00     0.022 A 
HETATM   17  C16 UNK     1      21.323  -7.988  37.077  1.00  0.00    -0.058 A 
HETATM   18  C21 UNK     1      20.506  -8.878  36.383  1.00  0.00     0.010 A 
BRANCH  17  19
HETATM   19  C22 UNK     1      20.742  -6.736  37.645  1.00  0.00     0.034 C 
HETATM   20  C23 UNK     1      20.226  -6.930  39.068  1.00  0.00     0.010 C 
ENDBRANCH  17  19
ENDBRANCH   7   8
ENDBRANCH   1   7
BRANCH   2  21
HETATM   21  C6  UNK     1      31.231  -9.326  37.644  1.00  0.00     0.314 C 
BRANCH  21  22
HETATM   22  C8  UNK     1      32.139  -8.206  37.212  1.00  0.00     0.006 A 
HETATM   23  C11 UNK     1      32.882  -8.302  36.036  1.00  0.00     0.112 A 
HETATM   24  C15 UNK     1      33.718  -7.253  35.651  1.00  0.00     0.135 A 
HETATM   25  C20 UNK     1      33.809  -6.107  36.442  1.00  0.00     0.104 A 
HETATM   26  C18 UNK     1      33.065  -6.011  37.618  1.00  0.00     0.040 A 
HETATM   27  C12 UNK     1      32.230  -7.060  38.003  1.00  0.00     0.014 A 
BRANCH  23  28
HETATM   28  O2  UNK     1      32.798  -9.422  35.262  1.00  0.00    -0.352 OA
HETATM   29  C24 UNK     1      31.952  -9.353  34.116  1.00  0.00     0.210 C 
ENDBRANCH  23  28
BRANCH  24  30
HETATM   30  O3  UNK     1      34.446  -7.347  34.502  1.00  0.00    -0.351 OA
HETATM   31  C25 UNK     1      35.833  -7.649  34.639  1.00  0.00     0.210 C 
ENDBRANCH  24  30
BRANCH  25  32
HETATM   32  O4  UNK     1      34.621  -5.077  36.077  1.00  0.00    -0.353 OA
HETATM   33  C26 UNK     1      34.032  -4.025  35.317  1.00  0.00     0.210 C 
ENDBRANCH  25  32
ENDBRANCH  21  22
ENDBRANCH   2  21
TORSDOF 8
ENDMDL
MODEL 4
REMARK VINA RESULT:      -8.2     10.859     15.615
REMARK  8 active torsions:
REMARK  status: ('A' for Active; 'I' for Inactive)
REMARK    1  A    between atoms: C11_18  and  O2_2 
REMARK    2  A    between atoms: C15_22  and  O3_3 
REMARK    3  A    between atoms: C20_27  and  O4_4 
REMARK    4  A    between atoms: C5_12  and  N1_6 
REMARK    5  A    between atoms: C6_13  and  N2_7 
REMARK    6  A    between atoms: C5_12  and  C7_14 
REMARK    7  A    between atoms: C6_13  and  C8_15 
REMARK    8  A    between atoms: C16_23  and  C22_29 
ROOT
HETATM    1  N1  UNK     1      23.732  -9.350  37.202  1.00  0.00     0.096 N 
HETATM    2  N2  UNK     1      26.278  -8.591  38.341  1.00  0.00     0.096 N 
HETATM    3  C1  UNK     1      24.997  -9.741  36.570  1.00  0.00     0.303 C 
HETATM    4  C2  UNK     1      23.894  -8.086  37.932  1.00  0.00     0.303 C 
HETATM    5  C3  UNK     1      26.117  -9.853  37.610  1.00  0.00     0.303 C 
HETATM    6  C4  UNK     1      25.013  -8.198  38.974  1.00  0.00     0.303 C 
ENDROOT
BRANCH   1   7
HETATM    7  C5  UNK     1      22.665  -9.242  36.209  1.00  0.00     0.312 C 
BRANCH   7   8
HETATM    8  C7  UNK     1      21.313  -9.357  36.822  1.00  0.00    -0.011 A 
HETATM    9  C10 UNK     1      20.912 -10.494  37.407  1.00  0.00     0.092 A 
HETATM   10  C17 UNK     1      19.586 -10.656  38.025  1.00  0.00     0.288 A 
HETATM   11  O1  UNK     1      18.741  -9.558  37.983  1.00  0.00    -0.275 OA
HETATM   12  O5  UNK     1      19.255 -11.712  38.553  1.00  0.00    -0.260 OA
HETATM   13  C13 UNK     1      19.134  -8.349  37.374  1.00  0.00     0.090 A 
HETATM   14  C9  UNK     1      20.394  -8.211  36.791  1.00  0.00     0.007 A 
HETATM   15  C19 UNK     1      18.201  -7.310  37.389  1.00  0.00     0.039 A 
HETATM   16  C14 UNK     1      20.708  -6.977  36.206  1.00  0.00     0.022 A 
HETATM   17  C16 UNK     1      19.783  -5.926  36.214  1.00  0.00    -0.058 A 
HETATM   18  C21 UNK     1      18.532  -6.093  36.804  1.00  0.00     0.010 A 
BRANCH  17  19
HETATM   19  C22 UNK     1      20.139  -4.620  35.585  1.00  0.00     0.034 C 
HETATM   20  C23 UNK     1      19.817  -3.434  36.490  1.00  0.00     0.010 C 
ENDBRANCH  17  19
ENDBRANCH   7   8
ENDBRANCH   1   7
BRANCH   2  21
HETATM   21  C6  UNK     1      27.344  -8.700  39.336  1.00  0.00     0.314 C 
BRANCH  21  22
HETATM   22  C8  UNK     1      28.648  -8.149  38.824  1.00  0.00     0.006 A 
HETATM   23  C11 UNK     1      28.947  -6.792  38.945  1.00  0.00     0.112 A 
HETATM   24  C15 UNK     1      30.161  -6.299  38.466  1.00  0.00     0.135 A 
HETATM   25  C20 UNK     1      31.077  -7.164  37.866  1.00  0.00     0.104 A 
HETATM   26  C18 UNK     1      30.778  -8.521  37.745  1.00  0.00     0.040 A 
HETATM   27  C12 UNK     1      29.564  -9.014  38.224  1.00  0.00     0.014 A 
BRANCH  23  28
HETATM   28  O2  UNK     1      28.053  -5.943  39.528  1.00  0.00    -0.352 OA
HETATM   29  C24 UNK     1      27.158  -5.252  38.660  1.00  0.00     0.210 C 
ENDBRANCH  23  28
BRANCH  24  30
HETATM   30  O3  UNK     1      30.453  -4.973  38.582  1.00  0.00    -0.351 OA
HETATM   31  C25 UNK     1      30.317  -4.175  37.407  1.00  0.00     0.210 C 
ENDBRANCH  24  30
BRANCH  25  32
HETATM   32  O4  UNK     1      32.265  -6.696  37.393  1.00  0.00    -0.353 OA
HETATM   33  C26 UNK     1      33.298  -7.654  37.173  1.00  0.00     0.210 C 
ENDBRANCH  25  32
ENDBRANCH  21  22
ENDBRANCH   2  21
TORSDOF 8
ENDMDL
MODEL 5
REMARK VINA RESULT:      -8.1      1.867      3.872
REMARK  8 active torsions:
REMARK  status: ('A' for Active; 'I' for Inactive)
REMARK    1  A    between atoms: C11_18  and  O2_2 
REMARK    2  A    between atoms: C15_22  and  O3_3 
REMARK    3  A    between atoms: C20_27  and  O4_4 
REMARK    4  A    between atoms: C5_12  and  N1_6 
REMARK    5  A    between atoms: C6_13  and  N2_7 
REMARK    6  A    between atoms: C5_12  and  C7_14 
REMARK    7  A    between atoms: C6_13  and  C8_15 
REMARK    8  A    between atoms: C16_23  and  C22_29 
ROOT
HETATM    1  N1  UNK     1      18.838   3.662  31.596  1.00  0.00     0.096 N 
HETATM    2  N2  UNK     1      18.832   6.064  33.204  1.00  0.00     0.096 N 
HETATM    3  C1  UNK     1      19.156   4.971  31.013  1.00  0.00     0.303 C 
HETATM    4  C2  UNK     1      17.919   3.817  32.731  1.00  0.00     0.303 C 
HETATM    5  C3  UNK     1      19.749   5.910  32.068  1.00  0.00     0.303 C 
HETATM    6  C4  UNK     1      18.513   4.755  33.788  1.00  0.00     0.303 C 
ENDROOT
BRANCH   1   7
HETATM    7  C5  UNK     1      18.271   2.768  30.588  1.00  0.00     0.312 C 
BRANCH   7   8
HETATM    8  C7  UNK     1      18.968   1.453  30.548  1.00  0.00    -0.011 A 
HETATM    9  C10 UNK     1      19.644   1.060  29.460  1.00  0.00     0.092 A 
HETATM   10  C17 UNK     1      20.349  -0.230  29.374  1.00  0.00     0.288 A 
HETATM   11  O1  UNK     1      20.288  -1.049  30.490  1.00  0.00    -0.275 OA
HETATM   12  O5  UNK     1      20.960  -0.554  28.361  1.00  0.00    -0.260 OA
HETATM   13  C13 UNK     1      19.584  -0.664  31.648  1.00  0.00     0.090 A 
HETATM   14  C9  UNK     1      18.921   0.562  31.716  1.00  0.00     0.007 A 
HETATM   15  C19 UNK     1      19.590  -1.569  32.713  1.00  0.00     0.039 A 
HETATM   16  C14 UNK     1      18.243   0.870  32.903  1.00  0.00     0.022 A 
HETATM   17  C16 UNK     1      18.240  -0.027  33.978  1.00  0.00    -0.058 A 
HETATM   18  C21 UNK     1      18.913  -1.243  33.883  1.00  0.00     0.010 A 
BRANCH  17  19
HETATM   19  C22 UNK     1      17.513   0.323  35.234  1.00  0.00     0.034 C 
HETATM   20  C23 UNK     1      16.000   0.189  35.083  1.00  0.00     0.010 C 
ENDBRANCH  17  19
ENDBRANCH   7   8
ENDBRANCH   1   7
BRANCH   2  21
HETATM   21  C6  UNK     1      19.400   6.957  34.213  1.00  0.00     0.314 C 
BRANCH  21  22
HETATM   22  C8  UNK     1      18.797   8.334  34.146  1.00  0.00     0.006 A 
HETATM   23  C11 UNK     1      17.413   8.507  34.105  1.00  0.00     0.112 A 
HETATM   24  C15 UNK     1      16.872   9.792  34.045  1.00  0.00     0.135 A 
HETATM   25  C20 UNK     1      17.714  10.904  34.026  1.00  0.00     0.104 A 
HETATM   26  C18 UNK     1      19.098  10.731  34.067  1.00  0.00     0.040 A 
HETATM   27  C12 UNK     1      19.640   9.446  34.127  1.00  0.00     0.014 A 
BRANCH  23  28
HETATM   28  O2  UNK     1      16.587   7.422  34.120  1.00  0.00    -0.352 OA
HETATM   29  C24 UNK     1      15.836   7.166  32.936  1.00  0.00     0.210 C 
ENDBRANCH  23  28
BRANCH  24  30
HETATM   30  O3  UNK     1      15.520   9.961  34.003  1.00  0.00    -0.351 OA
HETATM   31  C25 UNK     1      14.850  10.132  35.251  1.00  0.00     0.210 C 
ENDBRANCH  24  30
BRANCH  25  32
HETATM   32  O4  UNK     1      17.199  12.163  33.967  1.00  0.00    -0.353 OA
HETATM   33  C26 UNK     1      18.108  13.245  34.156  1.00  0.00     0.210 C 
ENDBRANCH  25  32
ENDBRANCH  21  22
ENDBRANCH   2  21
TORSDOF 8
ENDMDL
MODEL 6
REMARK VINA RESULT:      -8.1     11.073     15.730
REMARK  8 active torsions:
REMARK  status: ('A' for Active; 'I' for Inactive)
REMARK    1  A    between atoms: C11_18  and  O2_2 
REMARK    2  A    between atoms: C15_22  and  O3_3 
REMARK    3  A    between atoms: C20_27  and  O4_4 
REMARK    4  A    between atoms: C5_12  and  N1_6 
REMARK    5  A    between atoms: C6_13  and  N2_7 
REMARK    6  A    between atoms: C5_12  and  C7_14 
REMARK    7  A    between atoms: C6_13  and  C8_15 
REMARK    8  A    between atoms: C16_23  and  C22_29 
ROOT
HETATM    1  N1  UNK     1      23.790  -9.383  37.137  1.00  0.00     0.096 N 
HETATM    2  N2  UNK     1      26.380  -8.592  38.149  1.00  0.00     0.096 N 
HETATM    3  C1  UNK     1      25.030  -9.809  36.477  1.00  0.00     0.303 C 
HETATM    4  C2  UNK     1      23.986  -8.090  37.805  1.00  0.00     0.303 C 
HETATM    5  C3  UNK     1      26.186  -9.884  37.480  1.00  0.00     0.303 C 
HETATM    6  C4  UNK     1      25.141  -8.164  38.810  1.00  0.00     0.303 C 
ENDROOT
BRANCH   1   7
HETATM    7  C5  UNK     1      22.689  -9.311  36.179  1.00  0.00     0.312 C 
BRANCH   7   8
HETATM    8  C7  UNK     1      21.361  -9.439  36.840  1.00  0.00    -0.011 A 
HETATM    9  C10 UNK     1      20.979 -10.589  37.413  1.00  0.00     0.092 A 
HETATM   10  C17 UNK     1      19.677 -10.763  38.077  1.00  0.00     0.288 A 
HETATM   11  O1  UNK     1      18.833  -9.663  38.092  1.00  0.00    -0.275 OA
HETATM   12  O5  UNK     1      19.364 -11.830  38.592  1.00  0.00    -0.260 OA
HETATM   13  C13 UNK     1      19.206  -8.441  37.498  1.00  0.00     0.090 A 
HETATM   14  C9  UNK     1      20.443  -8.291  36.871  1.00  0.00     0.007 A 
HETATM   15  C19 UNK     1      18.277  -7.401  37.573  1.00  0.00     0.039 A 
HETATM   16  C14 UNK     1      20.738  -7.044  36.304  1.00  0.00     0.022 A 
HETATM   17  C16 UNK     1      19.817  -5.992  36.371  1.00  0.00    -0.058 A 
HETATM   18  C21 UNK     1      18.589  -6.170  37.005  1.00  0.00     0.010 A 
BRANCH  17  19
HETATM   19  C22 UNK     1      20.152  -4.672  35.761  1.00  0.00     0.034 C 
HETATM   20  C23 UNK     1      20.169  -3.545  36.790  1.00  0.00     0.010 C 
ENDBRANCH  17  19
ENDBRANCH   7   8
ENDBRANCH   1   7
BRANCH   2  21
HETATM   21  C6  UNK     1      27.481  -8.665  39.109  1.00  0.00     0.314 C 
BRANCH  21  22
HETATM   22  C8  UNK     1      28.531  -7.621  38.838  1.00  0.00     0.006 A 
HETATM   23  C11 UNK     1      29.684  -7.937  38.119  1.00  0.00     0.112 A 
HETATM   24  C15 UNK     1      30.646  -6.957  37.877  1.00  0.00     0.135 A 
HETATM   25  C20 UNK     1      30.455  -5.659  38.354  1.00  0.00     0.104 A 
HETATM   26  C18 UNK     1      29.303  -5.343  39.073  1.00  0.00     0.040 A 
HETATM   27  C12 UNK     1      28.340  -6.324  39.315  1.00  0.00     0.014 A 
BRANCH  23  28
HETATM   28  O2  UNK     1      29.875  -9.205  37.654  1.00  0.00    -0.352 OA
HETATM   29  C24 UNK     1      29.626  -9.429  36.268  1.00  0.00     0.210 C 
ENDBRANCH  23  28
BRANCH  24  30
HETATM   30  O3  UNK     1      31.774  -7.265  37.176  1.00  0.00    -0.351 OA
HETATM   31  C25 UNK     1      32.903  -7.705  37.928  1.00  0.00     0.210 C 
ENDBRANCH  24  30
BRANCH  25  32
HETATM   32  O4  UNK     1      31.388  -4.693  38.125  1.00  0.00    -0.353 OA
HETATM   33  C26 UNK     1      31.043  -3.666  37.198  1.00  0.00     0.210 C 
ENDBRANCH  25  32
ENDBRANCH  21  22
ENDBRANCH   2  21
TORSDOF 8
ENDMDL
MODEL 7
REMARK VINA RESULT:      -8.0     13.653     17.354
REMARK  8 active torsions:
REMARK  status: ('A' for Active; 'I' for Inactive)
REMARK    1  A    between atoms: C11_18  and  O2_2 
REMARK    2  A    between atoms: C15_22  and  O3_3 
REMARK    3  A    between atoms: C20_27  and  O4_4 
REMARK    4  A    between atoms: C5_12  and  N1_6 
REMARK    5  A    between atoms: C6_13  and  N2_7 
REMARK    6  A    between atoms: C5_12  and  C7_14 
REMARK    7  A    between atoms: C6_13  and  C8_15 
REMARK    8  A    between atoms: C16_23  and  C22_29 
ROOT
HETATM    1  N1  UNK     1      26.820  -9.393  37.520  1.00  0.00     0.096 N 
HETATM    2  N2  UNK     1      29.665  -9.084  37.923  1.00  0.00     0.096 N 
HETATM    3  C1  UNK     1      27.656  -8.691  36.540  1.00  0.00     0.303 C 
HETATM    4  C2  UNK     1      27.389  -9.261  38.867  1.00  0.00     0.303 C 
HETATM    5  C3  UNK     1      29.096  -9.213  36.576  1.00  0.00     0.303 C 
HETATM    6  C4  UNK     1      28.829  -9.785  38.904  1.00  0.00     0.303 C 
ENDROOT
BRANCH   1   7
HETATM    7  C5  UNK     1      25.447  -8.892  37.485  1.00  0.00     0.312 C 
BRANCH   7   8
HETATM    8  C7  UNK     1      24.525  -9.827  36.783  1.00  0.00    -0.011 A 
HETATM    9  C10 UNK     1      24.972 -10.975  36.255  1.00  0.00     0.092 A 
HETATM   10  C17 UNK     1      24.100 -11.930  35.552  1.00  0.00     0.288 A 
HETATM   11  O1  UNK     1      22.759 -11.592  35.453  1.00  0.00    -0.275 OA
HETATM   12  O5  UNK     1      24.545 -12.972  35.084  1.00  0.00    -0.260 OA
HETATM   13  C13 UNK     1      22.260 -10.392  35.997  1.00  0.00     0.090 A 
HETATM   14  C9  UNK     1      23.098  -9.496  36.660  1.00  0.00     0.007 A 
HETATM   15  C19 UNK     1      20.892 -10.155  35.837  1.00  0.00     0.039 A 
HETATM   16  C14 UNK     1      22.524  -8.325  37.173  1.00  0.00     0.022 A 
HETATM   17  C16 UNK     1      21.156  -8.074  37.020  1.00  0.00    -0.058 A 
HETATM   18  C21 UNK     1      20.341  -8.987  36.353  1.00  0.00     0.010 A 
BRANCH  17  19
HETATM   19  C22 UNK     1      20.565  -6.820  37.574  1.00  0.00     0.034 C 
HETATM   20  C23 UNK     1      20.194  -6.956  39.048  1.00  0.00     0.010 C 
ENDBRANCH  17  19
ENDBRANCH   7   8
ENDBRANCH   1   7
BRANCH   2  21
HETATM   21  C6  UNK     1      31.038  -9.586  37.958  1.00  0.00     0.314 C 
BRANCH  21  22
HETATM   22  C8  UNK     1      31.948  -8.795  37.058  1.00  0.00     0.006 A 
HETATM   23  C11 UNK     1      32.340  -7.500  37.398  1.00  0.00     0.112 A 
HETATM   24  C15 UNK     1      33.185  -6.781  36.552  1.00  0.00     0.135 A 
HETATM   25  C20 UNK     1      33.640  -7.359  35.366  1.00  0.00     0.104 A 
HETATM   26  C18 UNK     1      33.249  -8.654  35.026  1.00  0.00     0.040 A 
HETATM   27  C12 UNK     1      32.403  -9.372  35.872  1.00  0.00     0.014 A 
BRANCH  23  28
HETATM   28  O2  UNK     1      31.894  -6.931  38.555  1.00  0.00    -0.352 OA
HETATM   29  C24 UNK     1      30.765  -6.066  38.456  1.00  0.00     0.210 C 
ENDBRANCH  23  28
BRANCH  24  30
HETATM   30  O3  UNK     1      33.566  -5.515  36.882  1.00  0.00    -0.351 OA
HETATM   31  C25 UNK     1      32.915  -4.445  36.201  1.00  0.00     0.210 C 
ENDBRANCH  24  30
BRANCH  25  32
HETATM   32  O4  UNK     1      34.465  -6.668  34.531  1.00  0.00    -0.353 OA
HETATM   33  C26 UNK     1      35.798  -7.153  34.390  1.00  0.00     0.210 C 
ENDBRANCH  25  32
ENDBRANCH  21  22
ENDBRANCH   2  21
TORSDOF 8
ENDMDL
MODEL 8
REMARK VINA RESULT:      -8.0     14.175     17.250
REMARK  8 active torsions:
REMARK  status: ('A' for Active; 'I' for Inactive)
REMARK    1  A    between atoms: C11_18  and  O2_2 
REMARK    2  A    between atoms: C15_22  and  O3_3 
REMARK    3  A    between atoms: C20_27  and  O4_4 
REMARK    4  A    between atoms: C5_12  and  N1_6 
REMARK    5  A    between atoms: C6_13  and  N2_7 
REMARK    6  A    between atoms: C5_12  and  C7_14 
REMARK    7  A    between atoms: C6_13  and  C8_15 
REMARK    8  A    between atoms: C16_23  and  C22_29 
ROOT
HETATM    1  N1  UNK     1      32.148  -7.294  33.413  1.00  0.00     0.096 N 
HETATM    2  N2  UNK     1      32.489  -6.601  36.199  1.00  0.00     0.096 N 
HETATM    3  C1  UNK     1      33.477  -7.271  34.036  1.00  0.00     0.303 C 
HETATM    4  C2  UNK     1      31.256  -6.333  34.074  1.00  0.00     0.303 C 
HETATM    5  C3  UNK     1      33.382  -7.560  35.538  1.00  0.00     0.303 C 
HETATM    6  C4  UNK     1      31.159  -6.623  35.576  1.00  0.00     0.303 C 
ENDROOT
BRANCH   1   7
HETATM    7  C5  UNK     1      32.241  -7.017  31.981  1.00  0.00     0.312 C 
BRANCH   7   8
HETATM    8  C7  UNK     1      31.817  -8.181  31.155  1.00  0.00    -0.011 A 
HETATM    9  C10 UNK     1      32.701  -9.103  30.752  1.00  0.00     0.092 A 
HETATM   10  C17 UNK     1      32.330 -10.270  29.935  1.00  0.00     0.288 A 
HETATM   11  O1  UNK     1      30.993 -10.386  29.586  1.00  0.00    -0.275 OA
HETATM   12  O5  UNK     1      33.167 -11.095  29.587  1.00  0.00    -0.260 OA
HETATM   13  C13 UNK     1      30.040  -9.432  29.993  1.00  0.00     0.090 A 
HETATM   14  C9  UNK     1      30.407  -8.330  30.768  1.00  0.00     0.007 A 
HETATM   15  C19 UNK     1      28.723  -9.650  29.583  1.00  0.00     0.039 A 
HETATM   16  C14 UNK     1      29.400  -7.427  31.132  1.00  0.00     0.022 A 
HETATM   17  C16 UNK     1      28.075  -7.632  30.728  1.00  0.00    -0.058 A 
HETATM   18  C21 UNK     1      27.737  -8.742  29.956  1.00  0.00     0.010 A 
BRANCH  17  19
HETATM   19  C22 UNK     1      27.018  -6.657  31.127  1.00  0.00     0.034 C 
HETATM   20  C23 UNK     1      25.896  -6.564  30.097  1.00  0.00     0.010 C 
ENDBRANCH  17  19
ENDBRANCH   7   8
ENDBRANCH   1   7
BRANCH   2  21
HETATM   21  C6  UNK     1      32.395  -6.880  37.631  1.00  0.00     0.314 C 
BRANCH  21  22
HETATM   22  C8  UNK     1      31.011  -7.315  38.029  1.00  0.00     0.006 A 
HETATM   23  C11 UNK     1      30.109  -6.409  38.587  1.00  0.00     0.112 A 
HETATM   24  C15 UNK     1      28.830  -6.829  38.949  1.00  0.00     0.135 A 
HETATM   25  C20 UNK     1      28.451  -8.158  38.753  1.00  0.00     0.104 A 
HETATM   26  C18 UNK     1      29.352  -9.065  38.196  1.00  0.00     0.040 A 
HETATM   27  C12 UNK     1      30.632  -8.644  37.833  1.00  0.00     0.014 A 
BRANCH  23  28
HETATM   28  O2  UNK     1      30.477  -5.110  38.783  1.00  0.00    -0.352 OA
HETATM   29  C24 UNK     1      30.109  -4.174  37.772  1.00  0.00     0.210 C 
ENDBRANCH  23  28
BRANCH  24  30
HETATM   30  O3  UNK     1      27.949  -5.944  39.496  1.00  0.00    -0.351 OA
HETATM   31  C25 UNK     1      26.949  -5.409  38.631  1.00  0.00     0.210 C 
ENDBRANCH  24  30
BRANCH  25  32
HETATM   32  O4  UNK     1      27.205  -8.582  39.104  1.00  0.00    -0.353 OA
HETATM   33  C26 UNK     1      27.101  -9.882  39.680  1.00  0.00     0.210 C 
ENDBRANCH  25  32
ENDBRANCH  21  22
ENDBRANCH   2  21
TORSDOF 8
ENDMDL
MODEL 9
REMARK VINA RESULT:      -8.0     14.489     18.635
REMARK  8 active torsions:
REMARK  status: ('A' for Active; 'I' for Inactive)
REMARK    1  A    between atoms: C11_18  and  O2_2 
REMARK    2  A    between atoms: C15_22  and  O3_3 
REMARK    3  A    between atoms: C20_27  and  O4_4 
REMARK    4  A    between atoms: C5_12  and  N1_6 
REMARK    5  A    between atoms: C6_13  and  N2_7 
REMARK    6  A    between atoms: C5_12  and  C7_14 
REMARK    7  A    between atoms: C6_13  and  C8_15 
REMARK    8  A    between atoms: C16_23  and  C22_29 
ROOT
HETATM    1  N1  UNK     1      28.145  -8.931  35.797  1.00  0.00     0.096 N 
HETATM    2  N2  UNK     1      29.329  -8.545  33.189  1.00  0.00     0.096 N 
HETATM    3  C1  UNK     1      28.360  -7.587  35.249  1.00  0.00     0.303 C 
HETATM    4  C2  UNK     1      29.147  -9.865  35.269  1.00  0.00     0.303 C 
HETATM    5  C3  UNK     1      28.329  -7.610  33.717  1.00  0.00     0.303 C 
HETATM    6  C4  UNK     1      29.115  -9.890  33.737  1.00  0.00     0.303 C 
ENDROOT
BRANCH   1   7
HETATM    7  C5  UNK     1      28.176  -8.908  37.258  1.00  0.00     0.312 C 
BRANCH   7   8
HETATM    8  C7  UNK     1      28.175  -7.520  37.798  1.00  0.00    -0.011 A 
HETATM    9  C10 UNK     1      27.028  -6.883  38.071  1.00  0.00     0.092 A 
HETATM   10  C17 UNK     1      26.976  -5.513  38.605  1.00  0.00     0.288 A 
HETATM   11  O1  UNK     1      28.192  -4.884  38.825  1.00  0.00    -0.275 OA
HETATM   12  O5  UNK     1      25.907  -4.963  38.845  1.00  0.00    -0.260 OA
HETATM   13  C13 UNK     1      29.415  -5.527  38.547  1.00  0.00     0.090 A 
HETATM   14  C9  UNK     1      29.448  -6.826  38.041  1.00  0.00     0.007 A 
HETATM   15  C19 UNK     1      30.577  -4.797  38.807  1.00  0.00     0.039 A 
HETATM   16  C14 UNK     1      30.704  -7.395  37.791  1.00  0.00     0.022 A 
HETATM   17  C16 UNK     1      31.878  -6.676  38.046  1.00  0.00    -0.058 A 
HETATM   18  C21 UNK     1      31.814  -5.380  38.553  1.00  0.00     0.010 A 
BRANCH  17  19
HETATM   19  C22 UNK     1      33.205  -7.302  37.773  1.00  0.00     0.034 C 
HETATM   20  C23 UNK     1      34.320  -6.267  37.652  1.00  0.00     0.010 C 
ENDBRANCH  17  19
ENDBRANCH   7   8
ENDBRANCH   1   7
BRANCH   2  21
HETATM   21  C6  UNK     1      29.296  -8.569  31.727  1.00  0.00     0.314 C 
BRANCH  21  22
HETATM   22  C8  UNK     1      30.680  -8.607  31.135  1.00  0.00     0.006 A 
HETATM   23  C11 UNK     1      31.160  -9.760  30.515  1.00  0.00     0.112 A 
HETATM   24  C15 UNK     1      32.445  -9.777  29.971  1.00  0.00     0.135 A 
HETATM   25  C20 UNK     1      33.248  -8.639  30.046  1.00  0.00     0.104 A 
HETATM   26  C18 UNK     1      32.768  -7.485  30.666  1.00  0.00     0.040 A 
HETATM   27  C12 UNK     1      31.483  -7.469  31.210  1.00  0.00     0.014 A 
BRANCH  23  28
HETATM   28  O2  UNK     1      30.378 -10.875  30.443  1.00  0.00    -0.352 OA
HETATM   29  C24 UNK     1      29.744 -11.139  29.194  1.00  0.00     0.210 C 
ENDBRANCH  23  28
BRANCH  24  30
HETATM   30  O3  UNK     1      32.916 -10.904  29.367  1.00  0.00    -0.351 OA
HETATM   31  C25 UNK     1      33.509 -11.890  30.210  1.00  0.00     0.210 C 
ENDBRANCH  24  30
BRANCH  25  32
HETATM   32  O4  UNK     1      34.505  -8.642  29.520  1.00  0.00    -0.353 OA
HETATM   33  C26 UNK     1      34.949  -7.438  28.897  1.00  0.00     0.210 C 
ENDBRANCH  25  32
ENDBRANCH  21  22
ENDBRANCH   2  21
TORSDOF 8
ENDMDL
MODEL 10
REMARK VINA RESULT:      -7.9     15.685     18.907
REMARK  8 active torsions:
REMARK  status: ('A' for Active; 'I' for Inactive)
REMARK    1  A    between atoms: C11_18  and  O2_2 
REMARK    2  A    between atoms: C15_22  and  O3_3 
REMARK    3  A    between atoms: C20_27  and  O4_4 
REMARK    4  A    between atoms: C5_12  and  N1_6 
REMARK    5  A    between atoms: C6_13  and  N2_7 
REMARK    6  A    between atoms: C5_12  and  C7_14 
REMARK    7  A    between atoms: C6_13  and  C8_15 
REMARK    8  A    between atoms: C16_23  and  C22_29 
ROOT
HETATM    1  N1  UNK     1      31.822  -7.469  36.336  1.00  0.00     0.096 N 
HETATM    2  N2  UNK     1      32.924  -7.718  33.675  1.00  0.00     0.096 N 
HETATM    3  C1  UNK     1      33.182  -7.974  36.119  1.00  0.00     0.303 C 
HETATM    4  C2  UNK     1      30.968  -7.785  35.184  1.00  0.00     0.303 C 
HETATM    5  C3  UNK     1      33.777  -7.404  34.827  1.00  0.00     0.303 C 
HETATM    6  C4  UNK     1      31.562  -7.213  33.892  1.00  0.00     0.303 C 
ENDROOT
BRANCH   1   7
HETATM    7  C5  UNK     1      31.254  -8.015  37.567  1.00  0.00     0.312 C 
BRANCH   7   8
HETATM    8  C7  UNK     1      30.215  -7.122  38.151  1.00  0.00    -0.011 A 
HETATM    9  C10 UNK     1      30.509  -5.870  38.527  1.00  0.00     0.092 A 
HETATM   10  C17 UNK     1      29.516  -4.952  39.108  1.00  0.00     0.288 A 
HETATM   11  O1  UNK     1      28.227  -5.441  39.257  1.00  0.00    -0.275 OA
HETATM   12  O5  UNK     1      29.822  -3.812  39.439  1.00  0.00    -0.260 OA
HETATM   13  C13 UNK     1      27.888  -6.753  38.872  1.00  0.00     0.090 A 
HETATM   14  C9  UNK     1      28.840  -7.612  38.322  1.00  0.00     0.007 A 
HETATM   15  C19 UNK     1      26.560  -7.138  39.068  1.00  0.00     0.039 A 
HETATM   16  C14 UNK     1      28.423  -8.902  37.965  1.00  0.00     0.022 A 
HETATM   17  C16 UNK     1      27.095  -9.302  38.156  1.00  0.00    -0.058 A 
HETATM   18  C21 UNK     1      26.166  -8.422  38.706  1.00  0.00     0.010 A 
BRANCH  17  19
HETATM   19  C22 UNK     1      26.673 -10.680  37.768  1.00  0.00     0.034 C 
HETATM   20  C23 UNK     1      25.883 -10.698  36.462  1.00  0.00     0.010 C 
ENDBRANCH  17  19
ENDBRANCH   7   8
ENDBRANCH   1   7
BRANCH   2  21
HETATM   21  C6  UNK     1      33.490  -7.171  32.444  1.00  0.00     0.314 C 
BRANCH  21  22
HETATM   22  C8  UNK     1      32.930  -7.844  31.220  1.00  0.00     0.006 A 
HETATM   23  C11 UNK     1      33.250  -9.169  30.924  1.00  0.00     0.112 A 
HETATM   24  C15 UNK     1      32.721  -9.777  29.785  1.00  0.00     0.135 A 
HETATM   25  C20 UNK     1      31.870  -9.060  28.943  1.00  0.00     0.104 A 
HETATM   26  C18 UNK     1      31.550  -7.735  29.239  1.00  0.00     0.040 A 
HETATM   27  C12 UNK     1      32.079  -7.127  30.378  1.00  0.00     0.014 A 
BRANCH  23  28
HETATM   28  O2  UNK     1      34.084  -9.872  31.743  1.00  0.00    -0.352 OA
HETATM   29  C24 UNK     1      35.464  -9.903  31.386  1.00  0.00     0.210 C 
ENDBRANCH  23  28
BRANCH  24  30
HETATM   30  O3  UNK     1      33.035 -11.071  29.494  1.00  0.00    -0.351 OA
HETATM   31  C25 UNK     1      32.178 -12.080  30.026  1.00  0.00     0.210 C 
ENDBRANCH  24  30
BRANCH  25  32
HETATM   32  O4  UNK     1      31.347  -9.642  27.828  1.00  0.00    -0.353 OA
HETATM   33  C26 UNK     1      29.937  -9.849  27.806  1.00  0.00     0.210 C 
ENDBRANCH  25  32
ENDBRANCH  21  22
ENDBRANCH   2  21
TORSDOF 8
ENDMDL
