MODEL 1
REMARK VINA RESULT:      -7.7      0.000      0.000
REMARK  2 active torsions:
REMARK  status: ('A' for Active; 'I' for Inactive)
REMARK    1  A    between atoms: C9_13  and  O2_3 
REMARK    2  A    between atoms: C2_6  and  C5_9 
ROOT
HETATM    1  O1  UNK     1      18.651   6.055  30.167  1.00  0.00    -0.321 OA
HETATM    2  O3  UNK     1      17.920   3.154  32.941  1.00  0.00    -0.286 OA
HETATM    3  C1  UNK     1      17.815   5.433  32.360  1.00  0.00     0.049 A 
HETATM    4  C2  UNK     1      18.706   3.701  30.761  1.00  0.00     0.048 A 
HETATM    5  C3  UNK     1      18.097   6.383  31.379  1.00  0.00     0.091 A 
HETATM    6  C4  UNK     1      18.125   4.016  32.096  1.00  0.00     0.197 A 
HETATM    7  C6  UNK     1      17.252   5.825  33.577  1.00  0.00     0.021 A 
HETATM    8  C7  UNK     1      17.818   7.730  31.609  1.00  0.00     0.075 A 
HETATM    9  C8  UNK     1      18.914   4.729  29.925  1.00  0.00     0.159 A 
HETATM   10  C9  UNK     1      17.254   8.124  32.823  1.00  0.00     0.070 A 
HETATM   11  C10 UNK     1      16.972   7.173  33.805  1.00  0.00     0.038 A 
ENDROOT
BRANCH   4  12
HETATM   12  C5  UNK     1      19.025   2.323  30.356  1.00  0.00    -0.020 A 
HETATM   13  C11 UNK     1      19.655   1.456  31.250  1.00  0.00     0.014 A 
HETATM   14  C13 UNK     1      19.957   0.150  30.866  1.00  0.00     0.024 A 
HETATM   15  C15 UNK     1      19.629  -0.293  29.584  1.00  0.00     0.034 A 
HETATM   16  C14 UNK     1      18.999   0.570  28.687  1.00  0.00     0.024 A 
HETATM   17 Cl1  UNK     1      20.002  -1.904  29.108  1.00  0.00    -0.084 Cl
HETATM   18  C12 UNK     1      18.697   1.877  29.073  1.00  0.00     0.014 A 
ENDBRANCH   4  12
BRANCH  10  19
HETATM   19  O2  UNK     1      16.978   9.437  33.050  1.00  0.00    -0.356 OA
HETATM   20  C16 UNK     1      16.215   9.748  34.214  1.00  0.00     0.210 C 
ENDBRANCH  10  19
TORSDOF 2
ENDMDL
MODEL 2
REMARK VINA RESULT:      -7.6      3.460      7.353
REMARK  2 active torsions:
REMARK  status: ('A' for Active; 'I' for Inactive)
REMARK    1  A    between atoms: C9_13  and  O2_3 
REMARK    2  A    between atoms: C2_6  and  C5_9 
ROOT
HETATM    1  O1  UNK     1      18.946   3.595  29.521  1.00  0.00    -0.321 OA
HETATM    2  O3  UNK     1      18.011   3.340  33.484  1.00  0.00    -0.286 OA
HETATM    3  C1  UNK     1      18.723   2.244  31.526  1.00  0.00     0.049 A 
HETATM    4  C2  UNK     1      18.262   4.721  31.561  1.00  0.00     0.048 A 
HETATM    5  C3  UNK     1      19.019   2.388  30.171  1.00  0.00     0.091 A 
HETATM    6  C4  UNK     1      18.309   3.429  32.300  1.00  0.00     0.197 A 
HETATM    7  C6  UNK     1      18.812   0.990  32.135  1.00  0.00     0.021 A 
HETATM    8  C7  UNK     1      19.407   1.280  29.418  1.00  0.00     0.075 A 
HETATM    9  C8  UNK     1      18.581   4.694  30.258  1.00  0.00     0.159 A 
HETATM   10  C9  UNK     1      19.499   0.028  30.024  1.00  0.00     0.070 A 
HETATM   11  C10 UNK     1      19.202  -0.118  31.380  1.00  0.00     0.038 A 
ENDROOT
BRANCH   4  12
HETATM   12  C5  UNK     1      17.904   5.985  32.224  1.00  0.00    -0.020 A 
HETATM   13  C11 UNK     1      16.563   6.353  32.354  1.00  0.00     0.014 A 
HETATM   14  C13 UNK     1      16.223   7.551  32.982  1.00  0.00     0.024 A 
HETATM   15  C15 UNK     1      17.225   8.384  33.482  1.00  0.00     0.034 A 
HETATM   16  C14 UNK     1      18.565   8.020  33.353  1.00  0.00     0.024 A 
HETATM   17 Cl1  UNK     1      16.806   9.864  34.256  1.00  0.00    -0.084 Cl
HETATM   18  C12 UNK     1      18.904   6.822  32.724  1.00  0.00     0.014 A 
ENDBRANCH   4  12
BRANCH  10  19
HETATM   19  O2  UNK     1      19.880  -1.056  29.293  1.00  0.00    -0.356 OA
HETATM   20  C16 UNK     1      20.433  -2.159  30.007  1.00  0.00     0.210 C 
ENDBRANCH  10  19
TORSDOF 2
ENDMDL
MODEL 3
REMARK VINA RESULT:      -7.6      3.695      7.767
REMARK  2 active torsions:
REMARK  status: ('A' for Active; 'I' for Inactive)
REMARK    1  A    between atoms: C9_13  and  O2_3 
REMARK    2  A    between atoms: C2_6  and  C5_9 
ROOT
HETATM    1  O1  UNK     1      17.907   4.182  33.553  1.00  0.00    -0.321 OA
HETATM    2  O3  UNK     1      18.527   6.956  30.626  1.00  0.00    -0.286 OA
HETATM    3  C1  UNK     1      18.451   4.685  31.241  1.00  0.00     0.049 A 
HETATM    4  C2  UNK     1      17.940   6.519  32.892  1.00  0.00     0.048 A 
HETATM    5  C3  UNK     1      18.239   3.783  32.283  1.00  0.00     0.091 A 
HETATM    6  C4  UNK     1      18.320   6.130  31.505  1.00  0.00     0.197 A 
HETATM    7  C6  UNK     1      18.789   4.221  29.967  1.00  0.00     0.021 A 
HETATM    8  C7  UNK     1      18.363   2.412  32.057  1.00  0.00     0.075 A 
HETATM    9  C8  UNK     1      17.767   5.529  33.781  1.00  0.00     0.159 A 
HETATM   10  C9  UNK     1      18.699   1.946  30.786  1.00  0.00     0.070 A 
HETATM   11  C10 UNK     1      18.911   2.849  29.743  1.00  0.00     0.038 A 
ENDROOT
BRANCH   4  12
HETATM   12  C5  UNK     1      17.738   7.924  33.278  1.00  0.00    -0.020 A 
HETATM   13  C11 UNK     1      16.462   8.489  33.228  1.00  0.00     0.014 A 
HETATM   14  C13 UNK     1      16.270   9.821  33.594  1.00  0.00     0.024 A 
HETATM   15  C15 UNK     1      17.355  10.592  34.011  1.00  0.00     0.034 A 
HETATM   16  C14 UNK     1      18.632  10.032  34.063  1.00  0.00     0.024 A 
HETATM   17 Cl1  UNK     1      17.120  12.237  34.462  1.00  0.00    -0.084 Cl
HETATM   18  C12 UNK     1      18.823   8.699  33.696  1.00  0.00     0.014 A 
ENDBRANCH   4  12
BRANCH  10  19
HETATM   19  O2  UNK     1      18.818   0.609  30.562  1.00  0.00    -0.356 OA
HETATM   20  C16 UNK     1      20.134   0.060  30.600  1.00  0.00     0.210 C 
ENDBRANCH  10  19
TORSDOF 2
ENDMDL
MODEL 4
REMARK VINA RESULT:      -7.5      2.329      3.895
REMARK  2 active torsions:
REMARK  status: ('A' for Active; 'I' for Inactive)
REMARK    1  A    between atoms: C9_13  and  O2_3 
REMARK    2  A    between atoms: C2_6  and  C5_9 
ROOT
HETATM    1  O1  UNK     1      18.915   8.657  33.761  1.00  0.00    -0.321 OA
HETATM    2  O3  UNK     1      15.745   7.095  31.721  1.00  0.00    -0.286 OA
HETATM    3  C1  UNK     1      16.606   8.849  33.036  1.00  0.00     0.049 A 
HETATM    4  C2  UNK     1      18.028   6.881  32.363  1.00  0.00     0.048 A 
HETATM    5  C3  UNK     1      17.718   9.329  33.726  1.00  0.00     0.091 A 
HETATM    6  C4  UNK     1      16.706   7.566  32.315  1.00  0.00     0.197 A 
HETATM    7  C6  UNK     1      15.412   9.575  33.036  1.00  0.00     0.021 A 
HETATM    8  C7  UNK     1      17.644  10.537  34.419  1.00  0.00     0.075 A 
HETATM    9  C8  UNK     1      19.002   7.475  33.068  1.00  0.00     0.159 A 
HETATM   10  C9  UNK     1      16.454  11.264  34.419  1.00  0.00     0.070 A 
HETATM   11  C10 UNK     1      15.340  10.784  33.729  1.00  0.00     0.038 A 
ENDROOT
BRANCH   4  12
HETATM   12  C5  UNK     1      18.274   5.615  31.654  1.00  0.00    -0.020 A 
HETATM   13  C11 UNK     1      17.976   4.397  32.268  1.00  0.00     0.014 A 
HETATM   14  C13 UNK     1      18.210   3.197  31.596  1.00  0.00     0.024 A 
HETATM   15  C15 UNK     1      18.744   3.213  30.307  1.00  0.00     0.034 A 
HETATM   16  C14 UNK     1      19.043   4.428  29.690  1.00  0.00     0.024 A 
HETATM   17 Cl1  UNK     1      19.034   1.733  29.478  1.00  0.00    -0.084 Cl
HETATM   18  C12 UNK     1      18.809   5.628  30.363  1.00  0.00     0.014 A 
ENDBRANCH   4  12
BRANCH  10  19
HETATM   19  O2  UNK     1      16.378  12.444  35.093  1.00  0.00    -0.356 OA
HETATM   20  C16 UNK     1      17.538  13.274  35.080  1.00  0.00     0.210 C 
ENDBRANCH  10  19
TORSDOF 2
ENDMDL
MODEL 5
REMARK VINA RESULT:      -7.5      5.597      8.397
REMARK  2 active torsions:
REMARK  status: ('A' for Active; 'I' for Inactive)
REMARK    1  A    between atoms: C9_13  and  O2_3 
REMARK    2  A    between atoms: C2_6  and  C5_9 
ROOT
HETATM    1  O1  UNK     1      18.737  -0.394  33.452  1.00  0.00    -0.321 OA
HETATM    2  O3  UNK     1      21.271  -3.512  32.740  1.00  0.00    -0.286 OA
HETATM    3  C1  UNK     1      20.239  -1.555  31.938  1.00  0.00     0.049 A 
HETATM    4  C2  UNK     1      19.848  -2.387  34.283  1.00  0.00     0.048 A 
HETATM    5  C3  UNK     1      19.355  -0.517  32.233  1.00  0.00     0.091 A 
HETATM    6  C4  UNK     1      20.524  -2.569  32.969  1.00  0.00     0.197 A 
HETATM    7  C6  UNK     1      20.838  -1.630  30.678  1.00  0.00     0.021 A 
HETATM    8  C7  UNK     1      19.066   0.451  31.271  1.00  0.00     0.075 A 
HETATM    9  C8  UNK     1      19.028  -1.333  34.411  1.00  0.00     0.159 A 
HETATM   10  C9  UNK     1      19.664   0.378  30.013  1.00  0.00     0.070 A 
HETATM   11  C10 UNK     1      20.548  -0.660  29.717  1.00  0.00     0.038 A 
ENDROOT
BRANCH   4  12
HETATM   12  C5  UNK     1      20.077  -3.306  35.410  1.00  0.00    -0.020 A 
HETATM   13  C11 UNK     1      19.859  -4.676  35.254  1.00  0.00     0.014 A 
HETATM   14  C13 UNK     1      20.076  -5.546  36.322  1.00  0.00     0.024 A 
HETATM   15  C15 UNK     1      20.511  -5.048  37.550  1.00  0.00     0.034 A 
HETATM   16  C14 UNK     1      20.729  -3.679  37.711  1.00  0.00     0.024 A 
HETATM   17 Cl1  UNK     1      20.777  -6.121  38.870  1.00  0.00    -0.084 Cl
HETATM   18  C12 UNK     1      20.512  -2.809  36.642  1.00  0.00     0.014 A 
ENDBRANCH   4  12
BRANCH  10  19
HETATM   19  O2  UNK     1      19.385   1.322  29.073  1.00  0.00    -0.356 OA
HETATM   20  C16 UNK     1      18.016   1.682  28.900  1.00  0.00     0.210 C 
ENDBRANCH  10  19
TORSDOF 2
ENDMDL
MODEL 6
REMARK VINA RESULT:      -7.5      3.375      7.592
REMARK  2 active torsions:
REMARK  status: ('A' for Active; 'I' for Inactive)
REMARK    1  A    between atoms: C9_13  and  O2_3 
REMARK    2  A    between atoms: C2_6  and  C5_9 
ROOT
HETATM    1  O1  UNK     1      18.563   1.750  33.001  1.00  0.00    -0.321 OA
HETATM    2  O3  UNK     1      18.732   4.468  29.963  1.00  0.00    -0.286 OA
HETATM    3  C1  UNK     1      18.958   2.229  30.654  1.00  0.00     0.049 A 
HETATM    4  C2  UNK     1      18.284   4.047  32.263  1.00  0.00     0.048 A 
HETATM    5  C3  UNK     1      18.896   1.347  31.732  1.00  0.00     0.091 A 
HETATM    6  C4  UNK     1      18.660   3.656  30.876  1.00  0.00     0.197 A 
HETATM    7  C6  UNK     1      19.305   1.762  29.384  1.00  0.00     0.021 A 
HETATM    8  C7  UNK     1      19.179  -0.006  31.547  1.00  0.00     0.075 A 
HETATM    9  C8  UNK     1      18.266   3.078  33.190  1.00  0.00     0.159 A 
HETATM   10  C9  UNK     1      19.524  -0.474  30.279  1.00  0.00     0.070 A 
HETATM   11  C10 UNK     1      19.586   0.407  29.200  1.00  0.00     0.038 A 
ENDROOT
BRANCH   4  12
HETATM   12  C5  UNK     1      17.924   5.431  32.611  1.00  0.00    -0.020 A 
HETATM   13  C11 UNK     1      16.661   5.929  32.290  1.00  0.00     0.014 A 
HETATM   14  C13 UNK     1      16.320   7.241  32.619  1.00  0.00     0.024 A 
HETATM   15  C15 UNK     1      17.243   8.058  33.272  1.00  0.00     0.034 A 
HETATM   16  C14 UNK     1      18.507   7.564  33.595  1.00  0.00     0.024 A 
HETATM   17 Cl1  UNK     1      16.824   9.677  33.678  1.00  0.00    -0.084 Cl
HETATM   18  C12 UNK     1      18.847   6.251  33.264  1.00  0.00     0.014 A 
ENDBRANCH   4  12
BRANCH  10  19
HETATM   19  O2  UNK     1      19.799  -1.795  30.094  1.00  0.00    -0.356 OA
HETATM   20  C16 UNK     1      20.557  -2.449  31.110  1.00  0.00     0.210 C 
ENDBRANCH  10  19
TORSDOF 2
ENDMDL
MODEL 7
REMARK VINA RESULT:      -7.3     22.731     24.552
REMARK  2 active torsions:
REMARK  status: ('A' for Active; 'I' for Inactive)
REMARK    1  A    between atoms: C9_13  and  O2_3 
REMARK    2  A    between atoms: C2_6  and  C5_9 
ROOT
HETATM    1  O1  UNK     1      11.211   8.291   9.898  1.00  0.00    -0.321 OA
HETATM    2  O3  UNK     1      13.768   7.485   6.822  1.00  0.00    -0.286 OA
HETATM    3  C1  UNK     1      11.626   7.216   7.762  1.00  0.00     0.049 A 
HETATM    4  C2  UNK     1      13.400   8.602   8.892  1.00  0.00     0.048 A 
HETATM    5  C3  UNK     1      10.800   7.514   8.845  1.00  0.00     0.091 A 
HETATM    6  C4  UNK     1      13.001   7.748   7.740  1.00  0.00     0.197 A 
HETATM    7  C6  UNK     1      11.153   6.417   6.717  1.00  0.00     0.021 A 
HETATM    8  C7  UNK     1       9.498   7.017   8.889  1.00  0.00     0.075 A 
HETATM    9  C8  UNK     1      12.487   8.799   9.855  1.00  0.00     0.159 A 
HETATM   10  C9  UNK     1       9.024   6.221   7.847  1.00  0.00     0.070 A 
HETATM   11  C10 UNK     1       9.850   5.922   6.763  1.00  0.00     0.038 A 
ENDROOT
BRANCH   4  12
HETATM   12  C5  UNK     1      14.729   9.228   8.974  1.00  0.00    -0.020 A 
HETATM   13  C11 UNK     1      15.745   8.623   9.715  1.00  0.00     0.014 A 
HETATM   14  C13 UNK     1      17.005   9.216   9.794  1.00  0.00     0.024 A 
HETATM   15  C15 UNK     1      17.251  10.418   9.130  1.00  0.00     0.034 A 
HETATM   16  C14 UNK     1      16.239  11.027   8.389  1.00  0.00     0.024 A 
HETATM   17 Cl1  UNK     1      18.806  11.152   9.227  1.00  0.00    -0.084 Cl
HETATM   18  C12 UNK     1      14.979  10.433   8.311  1.00  0.00     0.014 A 
ENDBRANCH   4  12
BRANCH  10  19
HETATM   19  O2  UNK     1       7.752   5.735   7.886  1.00  0.00    -0.356 OA
HETATM   20  C16 UNK     1       7.393   4.948   9.020  1.00  0.00     0.210 C 
ENDBRANCH  10  19
TORSDOF 2
ENDMDL
MODEL 8
REMARK VINA RESULT:      -7.3     14.683     16.290
REMARK  2 active torsions:
REMARK  status: ('A' for Active; 'I' for Inactive)
REMARK    1  A    between atoms: C9_13  and  O2_3 
REMARK    2  A    between atoms: C2_6  and  C5_9 
ROOT
HETATM    1  O1  UNK     1      25.881  -5.105  38.844  1.00  0.00    -0.321 OA
HETATM    2  O3  UNK     1      26.092  -9.159  38.438  1.00  0.00    -0.286 OA
HETATM    3  C1  UNK     1      27.234  -7.109  38.628  1.00  0.00     0.049 A 
HETATM    4  C2  UNK     1      24.718  -7.232  38.697  1.00  0.00     0.048 A 
HETATM    5  C3  UNK     1      27.101  -5.727  38.757  1.00  0.00     0.091 A 
HETATM    6  C4  UNK     1      26.020  -7.945  38.579  1.00  0.00     0.197 A 
HETATM    7  C6  UNK     1      28.502  -7.688  38.542  1.00  0.00     0.021 A 
HETATM    8  C7  UNK     1      28.235  -4.916  38.800  1.00  0.00     0.075 A 
HETATM    9  C8  UNK     1      24.759  -5.896  38.819  1.00  0.00     0.159 A 
HETATM   10  C9  UNK     1      29.502  -5.492  38.715  1.00  0.00     0.070 A 
HETATM   11  C10 UNK     1      29.636  -6.875  38.587  1.00  0.00     0.038 A 
ENDROOT
BRANCH   4  12
HETATM   12  C5  UNK     1      23.434  -7.950  38.702  1.00  0.00    -0.020 A 
HETATM   13  C11 UNK     1      22.718  -8.099  39.891  1.00  0.00     0.014 A 
HETATM   14  C13 UNK     1      21.501  -8.781  39.897  1.00  0.00     0.024 A 
HETATM   15  C15 UNK     1      20.997  -9.316  38.711  1.00  0.00     0.034 A 
HETATM   16  C14 UNK     1      21.710  -9.171  37.521  1.00  0.00     0.024 A 
HETATM   17 Cl1  UNK     1      19.496 -10.159  38.717  1.00  0.00    -0.084 Cl
HETATM   18  C12 UNK     1      22.927  -8.488  37.516  1.00  0.00     0.014 A 
ENDBRANCH   4  12
BRANCH  10  19
HETATM   19  O2  UNK     1      30.612  -4.704  38.759  1.00  0.00    -0.356 OA
HETATM   20  C16 UNK     1      31.832  -5.275  38.291  1.00  0.00     0.210 C 
ENDBRANCH  10  19
TORSDOF 2
ENDMDL
MODEL 9
REMARK VINA RESULT:      -7.3     15.092     16.761
REMARK  2 active torsions:
REMARK  status: ('A' for Active; 'I' for Inactive)
REMARK    1  A    between atoms: C9_13  and  O2_3 
REMARK    2  A    between atoms: C2_6  and  C5_9 
ROOT
HETATM    1  O1  UNK     1      27.557  -8.910  38.506  1.00  0.00    -0.321 OA
HETATM    2  O3  UNK     1      25.343  -5.492  38.767  1.00  0.00    -0.286 OA
HETATM    3  C1  UNK     1      27.472  -6.486  38.617  1.00  0.00     0.049 A 
HETATM    4  C2  UNK     1      25.365  -7.868  38.611  1.00  0.00     0.048 A 
HETATM    5  C3  UNK     1      28.177  -7.687  38.540  1.00  0.00     0.091 A 
HETATM    6  C4  UNK     1      25.999  -6.522  38.670  1.00  0.00     0.197 A 
HETATM    7  C6  UNK     1      28.158  -5.269  38.650  1.00  0.00     0.021 A 
HETATM    8  C7  UNK     1      29.571  -7.677  38.495  1.00  0.00     0.075 A 
HETATM    9  C8  UNK     1      26.184  -8.929  38.534  1.00  0.00     0.159 A 
HETATM   10  C9  UNK     1      30.258  -6.463  38.526  1.00  0.00     0.070 A 
HETATM   11  C10 UNK     1      29.552  -5.262  38.603  1.00  0.00     0.038 A 
ENDROOT
BRANCH   4  12
HETATM   12  C5  UNK     1      23.904  -8.042  38.615  1.00  0.00    -0.020 A 
HETATM   13  C11 UNK     1      23.158  -7.686  39.740  1.00  0.00     0.014 A 
HETATM   14  C13 UNK     1      21.773  -7.851  39.744  1.00  0.00     0.024 A 
HETATM   15  C15 UNK     1      21.131  -8.374  38.621  1.00  0.00     0.034 A 
HETATM   16  C14 UNK     1      21.872  -8.732  37.496  1.00  0.00     0.024 A 
HETATM   17 Cl1  UNK     1      19.422  -8.579  38.626  1.00  0.00    -0.084 Cl
HETATM   18  C12 UNK     1      23.258  -8.566  37.492  1.00  0.00     0.014 A 
ENDBRANCH   4  12
BRANCH  10  19
HETATM   19  O2  UNK     1      31.618  -6.450  38.480  1.00  0.00    -0.356 OA
HETATM   20  C16 UNK     1      32.273  -7.701  38.276  1.00  0.00     0.210 C 
ENDBRANCH  10  19
TORSDOF 2
ENDMDL
MODEL 10
REMARK VINA RESULT:      -7.3      6.673      8.593
REMARK  2 active torsions:
REMARK  status: ('A' for Active; 'I' for Inactive)
REMARK    1  A    between atoms: C9_13  and  O2_3 
REMARK    2  A    between atoms: C2_6  and  C5_9 
ROOT
HETATM    1  O1  UNK     1      19.735  -1.893  33.887  1.00  0.00    -0.321 OA
HETATM    2  O3  UNK     1      18.610  -1.940  37.808  1.00  0.00    -0.286 OA
HETATM    3  C1  UNK     1      18.593  -0.817  35.740  1.00  0.00     0.049 A 
HETATM    4  C2  UNK     1      19.700  -3.064  36.014  1.00  0.00     0.048 A 
HETATM    5  C3  UNK     1      19.014  -0.849  34.410  1.00  0.00     0.091 A 
HETATM    6  C4  UNK     1      18.935  -1.943  36.628  1.00  0.00     0.197 A 
HETATM    7  C6  UNK     1      17.863   0.274  36.219  1.00  0.00     0.021 A 
HETATM    8  C7  UNK     1      18.707   0.208  33.554  1.00  0.00     0.075 A 
HETATM    9  C8  UNK     1      20.027  -2.946  34.718  1.00  0.00     0.159 A 
HETATM   10  C9  UNK     1      17.977   1.297  34.030  1.00  0.00     0.070 A 
HETATM   11  C10 UNK     1      17.556   1.330  35.360  1.00  0.00     0.038 A 
ENDROOT
BRANCH   4  12
HETATM   12  C5  UNK     1      20.070  -4.265  36.779  1.00  0.00    -0.020 A 
HETATM   13  C11 UNK     1      21.252  -4.288  37.521  1.00  0.00     0.014 A 
HETATM   14  C13 UNK     1      21.603  -5.427  38.246  1.00  0.00     0.024 A 
HETATM   15  C15 UNK     1      20.771  -6.546  38.230  1.00  0.00     0.034 A 
HETATM   16  C14 UNK     1      19.590  -6.528  37.489  1.00  0.00     0.024 A 
HETATM   17 Cl1  UNK     1      21.205  -7.953  39.123  1.00  0.00    -0.084 Cl
HETATM   18  C12 UNK     1      19.239  -5.388  36.764  1.00  0.00     0.014 A 
ENDBRANCH   4  12
BRANCH  10  19
HETATM   19  O2  UNK     1      17.674   2.329  33.196  1.00  0.00    -0.356 OA
HETATM   20  C16 UNK     1      18.234   3.603  33.510  1.00  0.00     0.210 C 
ENDBRANCH  10  19
TORSDOF 2
ENDMDL
