MODEL 1
REMARK VINA RESULT:      -8.5      0.000      0.000
REMARK  5 active torsions:
REMARK  status: ('A' for Active; 'I' for Inactive)
REMARK    1  A    between atoms: C5_11  and  O2_2 
REMARK    2  A    between atoms: C8_14  and  O3_3 
REMARK    3  A    between atoms: C11_17  and  O5_5 
REMARK    4  A    between atoms: C13_19  and  O6_6 
REMARK    5  A    between atoms: C1_7  and  C4_10 
ROOT
HETATM    1  O1  UNK     1      13.129   7.512   8.527  1.00  0.00    -0.306 OA
HETATM    2  O4  UNK     1      15.124   4.141   9.650  1.00  0.00    -0.284 OA
HETATM    3  C1  UNK     1      12.552   6.258   8.412  1.00  0.00     0.126 A 
HETATM    4  C2  UNK     1      15.130   6.491   9.447  1.00  0.00     0.053 A 
HETATM    5  C3  UNK     1      14.397   7.604   9.043  1.00  0.00     0.090 A 
HETATM    6  C5  UNK     1      13.155   5.105   8.756  1.00  0.00     0.152 A 
HETATM    7  C6  UNK     1      14.527   5.156   9.316  1.00  0.00     0.220 A 
HETATM    8  C7  UNK     1      16.418   6.645   9.966  1.00  0.00     0.055 A 
HETATM    9  C9  UNK     1      14.947   8.882   9.155  1.00  0.00     0.041 A 
HETATM   10  C11 UNK     1      16.966   7.923  10.078  1.00  0.00     0.066 A 
HETATM   11  C12 UNK     1      16.233   9.039   9.673  1.00  0.00     0.039 A 
ENDROOT
BRANCH   3  12
HETATM   12  C4  UNK     1      11.193   6.302   7.843  1.00  0.00     0.037 A 
HETATM   13  C10 UNK     1      10.097   6.318   8.709  1.00  0.00     0.017 A 
HETATM   14  C14 UNK     1       8.801   6.358   8.195  1.00  0.00     0.004 A 
HETATM   15  C15 UNK     1       8.597   6.384   6.815  1.00  0.00     0.039 A 
HETATM   16  C13 UNK     1       9.690   6.368   5.949  1.00  0.00     0.099 A 
HETATM   17  C8  UNK     1      10.986   6.327   6.462  1.00  0.00     0.112 A 
BRANCH  16  18
HETATM   18  O6  UNK     1       9.476   6.392   4.604  1.00  0.00    -0.358 OA
HETATM   19  H10 UNK     1      10.049   7.060   4.194  1.00  0.00     0.217 HD
ENDBRANCH  16  18
BRANCH  17  20
HETATM   20  O3  UNK     1      12.046   6.311   5.602  1.00  0.00    -0.357 OA
HETATM   21  H8  UNK     1      11.928   6.997   4.926  1.00  0.00     0.217 HD
ENDBRANCH  17  20
ENDBRANCH   3  12
BRANCH   6  22
HETATM   22  O2  UNK     1      12.565   3.871   8.598  1.00  0.00    -0.355 OA
HETATM   23  H7  UNK     1      11.674   3.879   8.983  1.00  0.00     0.218 HD
ENDBRANCH   6  22
BRANCH  10  24
HETATM   24  O5  UNK     1      18.221   8.083  10.582  1.00  0.00    -0.361 OA
HETATM   25  H9  UNK     1      18.268   7.652  11.453  1.00  0.00     0.217 HD
ENDBRANCH  10  24
TORSDOF 5
ENDMDL
MODEL 2
REMARK VINA RESULT:      -8.4     24.747     27.065
REMARK  5 active torsions:
REMARK  status: ('A' for Active; 'I' for Inactive)
REMARK    1  A    between atoms: C5_11  and  O2_2 
REMARK    2  A    between atoms: C8_14  and  O3_3 
REMARK    3  A    between atoms: C11_17  and  O5_5 
REMARK    4  A    between atoms: C13_19  and  O6_6 
REMARK    5  A    between atoms: C1_7  and  C4_10 
ROOT
HETATM    1  O1  UNK     1      18.523   0.472  32.780  1.00  0.00    -0.306 OA
HETATM    2  O4  UNK     1      20.696  -2.975  32.746  1.00  0.00    -0.284 OA
HETATM    3  C1  UNK     1      18.597  -0.347  33.895  1.00  0.00     0.126 A 
HETATM    4  C2  UNK     1      19.974  -1.058  31.578  1.00  0.00     0.053 A 
HETATM    5  C3  UNK     1      19.212   0.106  31.652  1.00  0.00     0.090 A 
HETATM    6  C5  UNK     1      19.288  -1.500  33.951  1.00  0.00     0.152 A 
HETATM    7  C6  UNK     1      20.047  -1.937  32.754  1.00  0.00     0.220 A 
HETATM    8  C7  UNK     1      20.655  -1.381  30.401  1.00  0.00     0.055 A 
HETATM    9  C9  UNK     1      19.126   0.956  30.549  1.00  0.00     0.041 A 
HETATM   10  C11 UNK     1      20.568  -0.529  29.299  1.00  0.00     0.066 A 
HETATM   11  C12 UNK     1      19.804   0.637  29.373  1.00  0.00     0.039 A 
ENDROOT
BRANCH   3  12
HETATM   12  C4  UNK     1      17.812   0.162  35.034  1.00  0.00     0.037 A 
HETATM   13  C10 UNK     1      16.443  -0.109  35.087  1.00  0.00     0.017 A 
HETATM   14  C14 UNK     1      15.678   0.362  36.154  1.00  0.00     0.004 A 
HETATM   15  C15 UNK     1      16.280   1.104  37.171  1.00  0.00     0.039 A 
HETATM   16  C13 UNK     1      17.647   1.376  37.120  1.00  0.00     0.099 A 
HETATM   17  C8  UNK     1      18.412   0.906  36.053  1.00  0.00     0.112 A 
BRANCH  16  18
HETATM   18  O6  UNK     1      18.220   2.103  38.119  1.00  0.00    -0.358 OA
HETATM   19  H10 UNK     1      19.156   1.858  38.204  1.00  0.00     0.217 HD
ENDBRANCH  16  18
BRANCH  17  20
HETATM   20  O3  UNK     1      19.748   1.180  36.016  1.00  0.00    -0.357 OA
HETATM   21  H8  UNK     1      20.236   0.490  36.494  1.00  0.00     0.217 HD
ENDBRANCH  17  20
ENDBRANCH   3  12
BRANCH   6  22
HETATM   22  O2  UNK     1      19.314  -2.309  35.065  1.00  0.00    -0.355 OA
HETATM   23  H7  UNK     1      18.629  -2.028  35.692  1.00  0.00     0.218 HD
ENDBRANCH   6  22
BRANCH  10  24
HETATM   24  O5  UNK     1      21.228  -0.835  28.148  1.00  0.00    -0.361 OA
HETATM   25  H9  UNK     1      22.173  -0.638  28.265  1.00  0.00     0.217 HD
ENDBRANCH  10  24
TORSDOF 5
ENDMDL
MODEL 3
REMARK VINA RESULT:      -8.3     23.971     26.322
REMARK  5 active torsions:
REMARK  status: ('A' for Active; 'I' for Inactive)
REMARK    1  A    between atoms: C5_11  and  O2_2 
REMARK    2  A    between atoms: C8_14  and  O3_3 
REMARK    3  A    between atoms: C11_17  and  O5_5 
REMARK    4  A    between atoms: C13_19  and  O6_6 
REMARK    5  A    between atoms: C1_7  and  C4_10 
ROOT
HETATM    1  O1  UNK     1      17.883   3.400  33.585  1.00  0.00    -0.306 OA
HETATM    2  O4  UNK     1      19.250   1.452  30.276  1.00  0.00    -0.284 OA
HETATM    3  C1  UNK     1      18.000   2.019  33.555  1.00  0.00     0.126 A 
HETATM    4  C2  UNK     1      18.727   3.506  31.312  1.00  0.00     0.053 A 
HETATM    5  C3  UNK     1      18.251   4.112  32.472  1.00  0.00     0.090 A 
HETATM    6  C5  UNK     1      18.435   1.313  32.496  1.00  0.00     0.152 A 
HETATM    7  C6  UNK     1      18.842   2.041  31.269  1.00  0.00     0.220 A 
HETATM    8  C7  UNK     1      19.088   4.283  30.207  1.00  0.00     0.055 A 
HETATM    9  C9  UNK     1      18.131   5.501  32.536  1.00  0.00     0.041 A 
HETATM   10  C11 UNK     1      18.967   5.671  30.274  1.00  0.00     0.066 A 
HETATM   11  C12 UNK     1      18.489   6.279  31.436  1.00  0.00     0.039 A 
ENDROOT
BRANCH   3  12
HETATM   12  C4  UNK     1      17.571   1.380  34.811  1.00  0.00     0.037 A 
HETATM   13  C10 UNK     1      16.593   0.384  34.765  1.00  0.00     0.017 A 
HETATM   14  C14 UNK     1      16.169  -0.236  35.940  1.00  0.00     0.004 A 
HETATM   15  C15 UNK     1      16.724   0.138  37.165  1.00  0.00     0.039 A 
HETATM   16  C13 UNK     1      17.701   1.131  37.214  1.00  0.00     0.099 A 
HETATM   17  C8  UNK     1      18.124   1.752  36.039  1.00  0.00     0.112 A 
BRANCH  16  18
HETATM   18  O6  UNK     1      18.232   1.487  38.417  1.00  0.00    -0.358 OA
HETATM   19  H10 UNK     1      18.079   2.433  38.574  1.00  0.00     0.217 HD
ENDBRANCH  16  18
BRANCH  17  20
HETATM   20  O3  UNK     1      19.080   2.723  36.102  1.00  0.00    -0.357 OA
HETATM   21  H8  UNK     1      19.191   3.129  35.228  1.00  0.00     0.217 HD
ENDBRANCH  17  20
ENDBRANCH   3  12
BRANCH   6  22
HETATM   22  O2  UNK     1      18.509  -0.062  32.487  1.00  0.00    -0.355 OA
HETATM   23  H7  UNK     1      19.430  -0.343  32.370  1.00  0.00     0.218 HD
ENDBRANCH   6  22
BRANCH  10  24
HETATM   24  O5  UNK     1      19.315   6.437  29.202  1.00  0.00    -0.361 OA
HETATM   25  H9  UNK     1      19.266   7.375  29.456  1.00  0.00     0.217 HD
ENDBRANCH  10  24
TORSDOF 5
ENDMDL
MODEL 4
REMARK VINA RESULT:      -8.3     24.153     26.585
REMARK  5 active torsions:
REMARK  status: ('A' for Active; 'I' for Inactive)
REMARK    1  A    between atoms: C5_11  and  O2_2 
REMARK    2  A    between atoms: C8_14  and  O3_3 
REMARK    3  A    between atoms: C11_17  and  O5_5 
REMARK    4  A    between atoms: C13_19  and  O6_6 
REMARK    5  A    between atoms: C1_7  and  C4_10 
ROOT
HETATM    1  O1  UNK     1      18.668  -0.228  33.050  1.00  0.00    -0.306 OA
HETATM    2  O4  UNK     1      18.934   3.047  30.641  1.00  0.00    -0.284 OA
HETATM    3  C1  UNK     1      18.150   0.998  33.436  1.00  0.00     0.126 A 
HETATM    4  C2  UNK     1      19.390   0.754  30.951  1.00  0.00     0.053 A 
HETATM    5  C3  UNK     1      19.270  -0.327  31.821  1.00  0.00     0.090 A 
HETATM    6  C5  UNK     1      18.210   2.119  32.695  1.00  0.00     0.152 A 
HETATM    7  C6  UNK     1      18.854   2.060  31.361  1.00  0.00     0.220 A 
HETATM    8  C7  UNK     1      20.014   0.595  29.711  1.00  0.00     0.055 A 
HETATM    9  C9  UNK     1      19.773  -1.576  31.457  1.00  0.00     0.041 A 
HETATM   10  C11 UNK     1      20.516  -0.655  29.349  1.00  0.00     0.066 A 
HETATM   11  C12 UNK     1      20.396  -1.739  30.220  1.00  0.00     0.039 A 
ENDROOT
BRANCH   3  12
HETATM   12  C4  UNK     1      17.534   0.964  34.775  1.00  0.00     0.037 A 
HETATM   13  C10 UNK     1      16.221   0.506  34.905  1.00  0.00     0.017 A 
HETATM   14  C14 UNK     1      15.615   0.466  36.160  1.00  0.00     0.004 A 
HETATM   15  C15 UNK     1      16.322   0.883  37.289  1.00  0.00     0.039 A 
HETATM   16  C13 UNK     1      17.633   1.340  37.162  1.00  0.00     0.099 A 
HETATM   17  C8  UNK     1      18.238   1.382  35.907  1.00  0.00     0.112 A 
BRANCH  16  18
HETATM   18  O6  UNK     1      18.309   1.745  38.273  1.00  0.00    -0.358 OA
HETATM   19  H10 UNK     1      18.271   1.050  38.949  1.00  0.00     0.217 HD
ENDBRANCH  16  18
BRANCH  17  20
HETATM   20  O3  UNK     1      19.522   1.832  35.797  1.00  0.00    -0.357 OA
HETATM   21  H8  UNK     1      19.656   2.584  36.396  1.00  0.00     0.217 HD
ENDBRANCH  17  20
ENDBRANCH   3  12
BRANCH   6  22
HETATM   22  O2  UNK     1      17.714   3.331  33.123  1.00  0.00    -0.355 OA
HETATM   23  H7  UNK     1      17.293   3.795  32.382  1.00  0.00     0.218 HD
ENDBRANCH   6  22
BRANCH  10  24
HETATM   24  O5  UNK     1      21.125  -0.820  28.142  1.00  0.00    -0.361 OA
HETATM   25  H9  UNK     1      21.940  -1.337  28.269  1.00  0.00     0.217 HD
ENDBRANCH  10  24
TORSDOF 5
ENDMDL
MODEL 5
REMARK VINA RESULT:      -8.2      1.267      1.465
REMARK  5 active torsions:
REMARK  status: ('A' for Active; 'I' for Inactive)
REMARK    1  A    between atoms: C5_11  and  O2_2 
REMARK    2  A    between atoms: C8_14  and  O3_3 
REMARK    3  A    between atoms: C11_17  and  O5_5 
REMARK    4  A    between atoms: C13_19  and  O6_6 
REMARK    5  A    between atoms: C1_7  and  C4_10 
ROOT
HETATM    1  O1  UNK     1      13.316   8.512   8.259  1.00  0.00    -0.306 OA
HETATM    2  O4  UNK     1      15.279   6.169  10.954  1.00  0.00    -0.284 OA
HETATM    3  C1  UNK     1      12.778   7.315   8.704  1.00  0.00     0.126 A 
HETATM    4  C2  UNK     1      15.251   8.154   9.679  1.00  0.00     0.053 A 
HETATM    5  C3  UNK     1      14.532   8.908   8.755  1.00  0.00     0.090 A 
HETATM    6  C5  UNK     1      13.373   6.491   9.585  1.00  0.00     0.152 A 
HETATM    7  C6  UNK     1      14.691   6.877  10.147  1.00  0.00     0.220 A 
HETATM    8  C7  UNK     1      16.486   8.607  10.151  1.00  0.00     0.055 A 
HETATM    9  C9  UNK     1      15.043  10.122   8.295  1.00  0.00     0.041 A 
HETATM   10  C11 UNK     1      16.995   9.821   9.689  1.00  0.00     0.066 A 
HETATM   11  C12 UNK     1      16.276  10.577   8.763  1.00  0.00     0.039 A 
ENDROOT
BRANCH   3  12
HETATM   12  C4  UNK     1      11.472   7.010   8.093  1.00  0.00     0.037 A 
HETATM   13  C10 UNK     1      10.311   7.200   8.845  1.00  0.00     0.017 A 
HETATM   14  C14 UNK     1       9.063   6.917   8.289  1.00  0.00     0.004 A 
HETATM   15  C15 UNK     1       8.974   6.446   6.979  1.00  0.00     0.039 A 
HETATM   16  C13 UNK     1      10.132   6.257   6.225  1.00  0.00     0.099 A 
HETATM   17  C8  UNK     1      11.379   6.538   6.781  1.00  0.00     0.112 A 
BRANCH  16  18
HETATM   18  O6  UNK     1      10.029   5.795   4.948  1.00  0.00    -0.358 OA
HETATM   19  H10 UNK     1       9.134   5.962   4.612  1.00  0.00     0.217 HD
ENDBRANCH  16  18
BRANCH  17  20
HETATM   20  O3  UNK     1      12.504   6.347   6.033  1.00  0.00    -0.357 OA
HETATM   21  H8  UNK     1      13.277   6.277   6.616  1.00  0.00     0.217 HD
ENDBRANCH  17  20
ENDBRANCH   3  12
BRANCH   6  22
HETATM   22  O2  UNK     1      12.826   5.292   9.983  1.00  0.00    -0.355 OA
HETATM   23  H7  UNK     1      13.483   4.583   9.890  1.00  0.00     0.218 HD
ENDBRANCH   6  22
BRANCH  10  24
HETATM   24  O5  UNK     1      18.198  10.271  10.142  1.00  0.00    -0.361 OA
HETATM   25  H9  UNK     1      18.174  10.311  11.114  1.00  0.00     0.217 HD
ENDBRANCH  10  24
TORSDOF 5
ENDMDL
MODEL 6
REMARK VINA RESULT:      -8.2     24.019     26.381
REMARK  5 active torsions:
REMARK  status: ('A' for Active; 'I' for Inactive)
REMARK    1  A    between atoms: C5_11  and  O2_2 
REMARK    2  A    between atoms: C8_14  and  O3_3 
REMARK    3  A    between atoms: C11_17  and  O5_5 
REMARK    4  A    between atoms: C13_19  and  O6_6 
REMARK    5  A    between atoms: C1_7  and  C4_10 
ROOT
HETATM    1  O1  UNK     1      18.823   0.013  33.109  1.00  0.00    -0.306 OA
HETATM    2  O4  UNK     1      18.752   3.142  30.500  1.00  0.00    -0.284 OA
HETATM    3  C1  UNK     1      18.307   1.246  33.473  1.00  0.00     0.126 A 
HETATM    4  C2  UNK     1      19.307   0.885  30.896  1.00  0.00     0.053 A 
HETATM    5  C3  UNK     1      19.305  -0.145  31.834  1.00  0.00     0.090 A 
HETATM    6  C5  UNK     1      18.260   2.322  32.666  1.00  0.00     0.152 A 
HETATM    7  C6  UNK     1      18.772   2.199  31.280  1.00  0.00     0.220 A 
HETATM    8  C7  UNK     1      19.812   0.667  29.611  1.00  0.00     0.055 A 
HETATM    9  C9  UNK     1      19.809  -1.401  31.495  1.00  0.00     0.041 A 
HETATM   10  C11 UNK     1      20.315  -0.590  29.274  1.00  0.00     0.066 A 
HETATM   11  C12 UNK     1      20.314  -1.622  30.214  1.00  0.00     0.039 A 
ENDROOT
BRANCH   3  12
HETATM   12  C4  UNK     1      17.825   1.278  34.865  1.00  0.00     0.037 A 
HETATM   13  C10 UNK     1      18.705   1.668  35.877  1.00  0.00     0.017 A 
HETATM   14  C14 UNK     1      18.273   1.706  37.203  1.00  0.00     0.004 A 
HETATM   15  C15 UNK     1      16.960   1.355  37.520  1.00  0.00     0.039 A 
HETATM   16  C13 UNK     1      16.080   0.965  36.511  1.00  0.00     0.099 A 
HETATM   17  C8  UNK     1      16.511   0.926  35.186  1.00  0.00     0.112 A 
BRANCH  16  18
HETATM   18  O6  UNK     1      14.802   0.624  36.835  1.00  0.00    -0.358 OA
HETATM   19  H10 UNK     1      14.680  -0.332  36.717  1.00  0.00     0.217 HD
ENDBRANCH  16  18
BRANCH  17  20
HETATM   20  O3  UNK     1      15.640   0.543  34.208  1.00  0.00    -0.357 OA
HETATM   21  H8  UNK     1      16.109   0.019  33.540  1.00  0.00     0.217 HD
ENDBRANCH  17  20
ENDBRANCH   3  12
BRANCH   6  22
HETATM   22  O2  UNK     1      17.770   3.544  33.070  1.00  0.00    -0.355 OA
HETATM   23  H7  UNK     1      18.218   3.826  33.884  1.00  0.00     0.218 HD
ENDBRANCH   6  22
BRANCH  10  24
HETATM   24  O5  UNK     1      20.810  -0.812  28.025  1.00  0.00    -0.361 OA
HETATM   25  H9  UNK     1      21.692  -1.214  28.102  1.00  0.00     0.217 HD
ENDBRANCH  10  24
TORSDOF 5
ENDMDL
MODEL 7
REMARK VINA RESULT:      -7.9     28.555     30.860
REMARK  5 active torsions:
REMARK  status: ('A' for Active; 'I' for Inactive)
REMARK    1  A    between atoms: C5_11  and  O2_2 
REMARK    2  A    between atoms: C8_14  and  O3_3 
REMARK    3  A    between atoms: C11_17  and  O5_5 
REMARK    4  A    between atoms: C13_19  and  O6_6 
REMARK    5  A    between atoms: C1_7  and  C4_10 
ROOT
HETATM    1  O1  UNK     1      18.951  -2.577  37.486  1.00  0.00    -0.306 OA
HETATM    2  O4  UNK     1      19.756  -1.244  33.720  1.00  0.00    -0.284 OA
HETATM    3  C1  UNK     1      19.561  -3.391  36.546  1.00  0.00     0.126 A 
HETATM    4  C2  UNK     1      18.879  -0.777  35.859  1.00  0.00     0.053 A 
HETATM    5  C3  UNK     1      18.628  -1.293  37.128  1.00  0.00     0.090 A 
HETATM    6  C5  UNK     1      19.849  -3.020  35.285  1.00  0.00     0.152 A 
HETATM    7  C6  UNK     1      19.515  -1.640  34.853  1.00  0.00     0.220 A 
HETATM    8  C7  UNK     1      18.528   0.540  35.551  1.00  0.00     0.055 A 
HETATM    9  C9  UNK     1      18.023  -0.494  38.100  1.00  0.00     0.041 A 
HETATM   10  C11 UNK     1      17.923   1.337  36.524  1.00  0.00     0.066 A 
HETATM   11  C12 UNK     1      17.671   0.821  37.796  1.00  0.00     0.039 A 
ENDROOT
BRANCH   3  12
HETATM   12  C4  UNK     1      19.852  -4.742  37.059  1.00  0.00     0.037 A 
HETATM   13  C10 UNK     1      21.139  -5.028  37.520  1.00  0.00     0.017 A 
HETATM   14  C14 UNK     1      21.440  -6.299  38.010  1.00  0.00     0.004 A 
HETATM   15  C15 UNK     1      20.455  -7.286  38.040  1.00  0.00     0.039 A 
HETATM   16  C13 UNK     1      19.169  -7.003  37.580  1.00  0.00     0.099 A 
HETATM   17  C8  UNK     1      18.868  -5.733  37.090  1.00  0.00     0.112 A 
BRANCH  16  18
HETATM   18  O6  UNK     1      18.218  -7.978  37.614  1.00  0.00    -0.358 OA
HETATM   19  H10 UNK     1      17.860  -8.114  36.722  1.00  0.00     0.217 HD
ENDBRANCH  16  18
BRANCH  17  20
HETATM   20  O3  UNK     1      17.606  -5.470  36.642  1.00  0.00    -0.357 OA
HETATM   21  H8  UNK     1      17.652  -5.009  35.789  1.00  0.00     0.217 HD
ENDBRANCH  17  20
ENDBRANCH   3  12
BRANCH   6  22
HETATM   22  O2  UNK     1      20.426  -3.865  34.364  1.00  0.00    -0.355 OA
HETATM   23  H7  UNK     1      20.442  -4.771  34.712  1.00  0.00     0.218 HD
ENDBRANCH   6  22
BRANCH  10  24
HETATM   24  O5  UNK     1      17.577   2.621  36.233  1.00  0.00    -0.361 OA
HETATM   25  H9  UNK     1      16.773   2.614  35.685  1.00  0.00     0.217 HD
ENDBRANCH  10  24
TORSDOF 5
ENDMDL
MODEL 8
REMARK VINA RESULT:      -7.9      1.813      3.107
REMARK  5 active torsions:
REMARK  status: ('A' for Active; 'I' for Inactive)
REMARK    1  A    between atoms: C5_11  and  O2_2 
REMARK    2  A    between atoms: C8_14  and  O3_3 
REMARK    3  A    between atoms: C11_17  and  O5_5 
REMARK    4  A    between atoms: C13_19  and  O6_6 
REMARK    5  A    between atoms: C1_7  and  C4_10 
ROOT
HETATM    1  O1  UNK     1      13.036   6.442   8.376  1.00  0.00    -0.306 OA
HETATM    2  O4  UNK     1      13.899  10.075  10.009  1.00  0.00    -0.284 OA
HETATM    3  C1  UNK     1      12.120   7.481   8.353  1.00  0.00     0.126 A 
HETATM    4  C2  UNK     1      14.616   7.880   9.528  1.00  0.00     0.053 A 
HETATM    5  C3  UNK     1      14.260   6.661   8.955  1.00  0.00     0.090 A 
HETATM    6  C5  UNK     1      12.335   8.701   8.878  1.00  0.00     0.152 A 
HETATM    7  C6  UNK     1      13.644   8.983   9.517  1.00  0.00     0.220 A 
HETATM    8  C7  UNK     1      15.879   8.047  10.104  1.00  0.00     0.055 A 
HETATM    9  C9  UNK     1      15.165   5.599   8.955  1.00  0.00     0.041 A 
HETATM   10  C11 UNK     1      16.782   6.983  10.102  1.00  0.00     0.066 A 
HETATM   11  C12 UNK     1      16.425   5.761   9.529  1.00  0.00     0.039 A 
ENDROOT
BRANCH   3  12
HETATM   12  C4  UNK     1      10.849   7.111   7.704  1.00  0.00     0.037 A 
HETATM   13  C10 UNK     1      10.855   6.766   6.351  1.00  0.00     0.017 A 
HETATM   14  C14 UNK     1       9.665   6.413   5.714  1.00  0.00     0.004 A 
HETATM   15  C15 UNK     1       8.467   6.404   6.429  1.00  0.00     0.039 A 
HETATM   16  C13 UNK     1       8.459   6.749   7.781  1.00  0.00     0.099 A 
HETATM   17  C8  UNK     1       9.648   7.102   8.417  1.00  0.00     0.112 A 
BRANCH  16  18
HETATM   18  O6  UNK     1       7.281   6.737   8.465  1.00  0.00    -0.358 OA
HETATM   19  H10 UNK     1       7.400   6.272   9.309  1.00  0.00     0.217 HD
ENDBRANCH  16  18
BRANCH  17  20
HETATM   20  O3  UNK     1       9.625   7.438   9.740  1.00  0.00    -0.357 OA
HETATM   21  H8  UNK     1      10.132   8.253   9.879  1.00  0.00     0.217 HD
ENDBRANCH  17  20
ENDBRANCH   3  12
BRANCH   6  22
HETATM   22  O2  UNK     1      11.391   9.703   8.868  1.00  0.00    -0.355 OA
HETATM   23  H7  UNK     1      10.686   9.485   8.236  1.00  0.00     0.218 HD
ENDBRANCH   6  22
BRANCH  10  24
HETATM   24  O5  UNK     1      18.014   7.135  10.661  1.00  0.00    -0.361 OA
HETATM   25  H9  UNK     1      18.141   6.446  11.336  1.00  0.00     0.217 HD
ENDBRANCH  10  24
TORSDOF 5
ENDMDL
MODEL 9
REMARK VINA RESULT:      -7.9     22.024     23.983
REMARK  5 active torsions:
REMARK  status: ('A' for Active; 'I' for Inactive)
REMARK    1  A    between atoms: C5_11  and  O2_2 
REMARK    2  A    between atoms: C8_14  and  O3_3 
REMARK    3  A    between atoms: C11_17  and  O5_5 
REMARK    4  A    between atoms: C13_19  and  O6_6 
REMARK    5  A    between atoms: C1_7  and  C4_10 
ROOT
HETATM    1  O1  UNK     1      19.075   3.266  30.361  1.00  0.00    -0.306 OA
HETATM    2  O4  UNK     1      17.748   3.208  34.213  1.00  0.00    -0.284 OA
HETATM    3  C1  UNK     1      18.983   2.083  31.077  1.00  0.00     0.126 A 
HETATM    4  C2  UNK     1      18.232   4.480  32.287  1.00  0.00     0.053 A 
HETATM    5  C3  UNK     1      18.696   4.433  30.974  1.00  0.00     0.090 A 
HETATM    6  C5  UNK     1      18.561   1.993  32.351  1.00  0.00     0.152 A 
HETATM    7  C6  UNK     1      18.143   3.229  33.055  1.00  0.00     0.220 A 
HETATM    8  C7  UNK     1      17.859   5.698  32.860  1.00  0.00     0.055 A 
HETATM    9  C9  UNK     1      18.791   5.606  30.224  1.00  0.00     0.041 A 
HETATM   10  C11 UNK     1      17.955   6.870  32.109  1.00  0.00     0.066 A 
HETATM   11  C12 UNK     1      18.420   6.824  30.794  1.00  0.00     0.039 A 
ENDROOT
BRANCH   3  12
HETATM   12  C4  UNK     1      19.421   0.908  30.302  1.00  0.00     0.037 A 
HETATM   13  C10 UNK     1      20.417   0.083  30.829  1.00  0.00     0.017 A 
HETATM   14  C14 UNK     1      20.850  -1.034  30.115  1.00  0.00     0.004 A 
HETATM   15  C15 UNK     1      20.288  -1.330  28.873  1.00  0.00     0.039 A 
HETATM   16  C13 UNK     1      19.293  -0.507  28.345  1.00  0.00     0.099 A 
HETATM   17  C8  UNK     1      18.861   0.610  29.058  1.00  0.00     0.112 A 
BRANCH  16  18
HETATM   18  O6  UNK     1      18.754  -0.807  27.130  1.00  0.00    -0.358 OA
HETATM   19  H10 UNK     1      17.870  -0.413  27.060  1.00  0.00     0.217 HD
ENDBRANCH  16  18
BRANCH  17  20
HETATM   20  O3  UNK     1      17.887   1.407  28.529  1.00  0.00    -0.357 OA
HETATM   21  H8  UNK     1      18.026   1.501  27.573  1.00  0.00     0.217 HD
ENDBRANCH  17  20
ENDBRANCH   3  12
BRANCH   6  22
HETATM   22  O2  UNK     1      18.513   0.804  33.045  1.00  0.00    -0.355 OA
HETATM   23  H7  UNK     1      18.240   0.969  33.962  1.00  0.00     0.218 HD
ENDBRANCH   6  22
BRANCH  10  24
HETATM   24  O5  UNK     1      17.595   8.062  32.659  1.00  0.00    -0.361 OA
HETATM   25  H9  UNK     1      16.898   8.464  32.112  1.00  0.00     0.217 HD
ENDBRANCH  10  24
TORSDOF 5
ENDMDL
MODEL 10
REMARK VINA RESULT:      -7.6      4.179      7.910
REMARK  5 active torsions:
REMARK  status: ('A' for Active; 'I' for Inactive)
REMARK    1  A    between atoms: C5_11  and  O2_2 
REMARK    2  A    between atoms: C8_14  and  O3_3 
REMARK    3  A    between atoms: C11_17  and  O5_5 
REMARK    4  A    between atoms: C13_19  and  O6_6 
REMARK    5  A    between atoms: C1_7  and  C4_10 
ROOT
HETATM    1  O1  UNK     1       7.757   4.473   9.009  1.00  0.00    -0.306 OA
HETATM    2  O4  UNK     1       6.572   7.323  11.670  1.00  0.00    -0.284 OA
HETATM    3  C1  UNK     1       8.345   5.728   9.035  1.00  0.00     0.126 A 
HETATM    4  C2  UNK     1       6.315   5.127  10.850  1.00  0.00     0.053 A 
HETATM    5  C3  UNK     1       6.763   4.197   9.914  1.00  0.00     0.090 A 
HETATM    6  C5  UNK     1       7.998   6.716   9.880  1.00  0.00     0.152 A 
HETATM    7  C6  UNK     1       6.927   6.463  10.874  1.00  0.00     0.220 A 
HETATM    8  C7  UNK     1       5.299   4.790  11.748  1.00  0.00     0.055 A 
HETATM    9  C9  UNK     1       6.198   2.922   9.869  1.00  0.00     0.041 A 
HETATM   10  C11 UNK     1       4.735   3.514  11.701  1.00  0.00     0.066 A 
HETATM   11  C12 UNK     1       5.183   2.583  10.764  1.00  0.00     0.039 A 
ENDROOT
BRANCH   3  12
HETATM   12  C4  UNK     1       9.394   5.891   8.013  1.00  0.00     0.037 A 
HETATM   13  C10 UNK     1       9.031   6.316   6.733  1.00  0.00     0.017 A 
HETATM   14  C14 UNK     1      10.005   6.477   5.747  1.00  0.00     0.004 A 
HETATM   15  C15 UNK     1      11.344   6.215   6.040  1.00  0.00     0.039 A 
HETATM   16  C13 UNK     1      11.708   5.791   7.317  1.00  0.00     0.099 A 
HETATM   17  C8  UNK     1      10.735   5.629   8.303  1.00  0.00     0.112 A 
BRANCH  16  18
HETATM   18  O6  UNK     1      13.019   5.537   7.588  1.00  0.00    -0.358 OA
HETATM   19  H10 UNK     1      13.224   4.614   7.371  1.00  0.00     0.217 HD
ENDBRANCH  16  18
BRANCH  17  20
HETATM   20  O3  UNK     1      11.106   5.213   9.548  1.00  0.00    -0.357 OA
HETATM   21  H8  UNK     1      10.750   5.821  10.215  1.00  0.00     0.217 HD
ENDBRANCH  17  20
ENDBRANCH   3  12
BRANCH   6  22
HETATM   22  O2  UNK     1       8.580   7.964   9.857  1.00  0.00    -0.355 OA
HETATM   23  H7  UNK     1       7.983   8.613  10.263  1.00  0.00     0.218 HD
ENDBRANCH   6  22
BRANCH  10  24
HETATM   24  O5  UNK     1       3.744   3.177  12.572  1.00  0.00    -0.361 OA
HETATM   25  H9  UNK     1       3.760   3.795  13.323  1.00  0.00     0.217 HD
ENDBRANCH  10  24
TORSDOF 5
ENDMDL
