MODEL 1
REMARK VINA RESULT:      -7.5      0.000      0.000
REMARK  2 active torsions:
REMARK  status: ('A' for Active; 'I' for Inactive)
REMARK    1  A    between atoms: C11_18  and  O4_5 
REMARK       I    between atoms: C5_12  and  N1_7 
REMARK    2  A    between atoms: C5_12  and  C6_13 
ROOT
HETATM    1 Cl1  UNK     1      18.463  -0.884  33.602  1.00  0.00    -0.084 Cl
HETATM    2  O2  UNK     1      18.693   4.311  30.817  1.00  0.00    -0.271 OA
HETATM    3  O5  UNK     1      18.565   6.592  30.861  1.00  0.00    -0.259 OA
HETATM    4  C6  UNK     1      18.254   5.471  32.925  1.00  0.00     0.108 A 
HETATM    5  C7  UNK     1      18.388   3.053  32.876  1.00  0.00     0.004 A 
HETATM    6  C8  UNK     1      18.195   4.309  33.585  1.00  0.00     0.037 A 
HETATM    7  C9  UNK     1      18.633   3.084  31.507  1.00  0.00     0.123 A 
HETATM    8  C10 UNK     1      18.513   5.528  31.469  1.00  0.00     0.304 A 
HETATM    9  C11 UNK     1      18.826   1.917  30.770  1.00  0.00     0.104 A 
HETATM   10  C12 UNK     1      18.336   1.817  33.524  1.00  0.00     0.038 A 
HETATM   11  C13 UNK     1      18.773   0.688  31.424  1.00  0.00     0.063 A 
HETATM   12  C14 UNK     1      18.528   0.637  32.798  1.00  0.00     0.037 A 
ENDROOT
BRANCH   4  13
HETATM   13  C5  UNK     1      18.045   6.690  33.732  1.00  0.00     0.260 C 
HETATM   14  O3  UNK     1      18.954   7.033  34.490  1.00  0.00    -0.267 OA
HETATM   15  N1  UNK     1      16.840   7.369  33.588  1.00  0.00    -0.344 N 
HETATM   16  C1  UNK     1      16.601   8.580  34.376  1.00  0.00     0.152 C 
HETATM   17  C2  UNK     1      15.672   6.936  32.811  1.00  0.00     0.152 C 
HETATM   18  C3  UNK     1      16.025   9.678  33.492  1.00  0.00     0.187 C 
HETATM   19  O1  UNK     1      14.845   9.215  32.830  1.00  0.00    -0.388 OA
HETATM   20  C4  UNK     1      15.132   8.097  31.986  1.00  0.00     0.187 C 
ENDBRANCH   4  13
BRANCH   9  21
HETATM   21  O4  UNK     1      19.065   1.962  29.432  1.00  0.00    -0.353 OA
HETATM   22  C15 UNK     1      17.952   1.746  28.565  1.00  0.00     0.210 C 
ENDBRANCH   9  21
TORSDOF 2
ENDMDL
MODEL 2
REMARK VINA RESULT:      -7.4      5.405      7.980
REMARK  2 active torsions:
REMARK  status: ('A' for Active; 'I' for Inactive)
REMARK    1  A    between atoms: C11_18  and  O4_5 
REMARK       I    between atoms: C5_12  and  N1_7 
REMARK    2  A    between atoms: C5_12  and  C6_13 
ROOT
HETATM    1 Cl1  UNK     1      16.155   0.578  37.049  1.00  0.00    -0.084 Cl
HETATM    2  O2  UNK     1      20.510  -2.468  34.491  1.00  0.00    -0.271 OA
HETATM    3  O5  UNK     1      21.633  -3.126  32.613  1.00  0.00    -0.259 OA
HETATM    4  C6  UNK     1      19.783  -1.680  32.293  1.00  0.00     0.108 A 
HETATM    5  C7  UNK     1      18.593  -0.986  34.285  1.00  0.00     0.004 A 
HETATM    6  C8  UNK     1      18.785  -0.979  32.843  1.00  0.00     0.037 A 
HETATM    7  C9  UNK     1      19.462  -1.731  35.076  1.00  0.00     0.123 A 
HETATM    8  C10 UNK     1      20.719  -2.481  33.115  1.00  0.00     0.304 A 
HETATM    9  C11 UNK     1      19.332  -1.780  36.463  1.00  0.00     0.104 A 
HETATM   10  C12 UNK     1      17.566  -0.269  34.903  1.00  0.00     0.038 A 
HETATM   11  C13 UNK     1      18.304  -1.061  37.071  1.00  0.00     0.063 A 
HETATM   12  C14 UNK     1      17.423  -0.308  36.293  1.00  0.00     0.037 A 
ENDROOT
BRANCH   4  13
HETATM   13  C5  UNK     1      19.896  -1.610  30.822  1.00  0.00     0.260 C 
HETATM   14  O3  UNK     1      20.155  -2.655  30.221  1.00  0.00    -0.267 OA
HETATM   15  N1  UNK     1      19.706  -0.376  30.212  1.00  0.00    -0.344 N 
HETATM   16  C1  UNK     1      19.814  -0.272  28.755  1.00  0.00     0.152 C 
HETATM   17  C2  UNK     1      19.535   0.921  30.880  1.00  0.00     0.152 C 
HETATM   18  C3  UNK     1      18.655   0.544  28.198  1.00  0.00     0.187 C 
HETATM   19  O1  UNK     1      18.598   1.823  28.834  1.00  0.00    -0.388 OA
HETATM   20  C4  UNK     1      18.386   1.691  30.242  1.00  0.00     0.187 C 
ENDBRANCH   4  13
BRANCH   9  21
HETATM   21  O4  UNK     1      20.188  -2.513  37.224  1.00  0.00    -0.353 OA
HETATM   22  C15 UNK     1      20.038  -3.932  37.190  1.00  0.00     0.210 C 
ENDBRANCH   9  21
TORSDOF 2
ENDMDL
MODEL 3
REMARK VINA RESULT:      -7.4     14.529     16.222
REMARK  2 active torsions:
REMARK  status: ('A' for Active; 'I' for Inactive)
REMARK    1  A    between atoms: C11_18  and  O4_5 
REMARK       I    between atoms: C5_12  and  N1_7 
REMARK    2  A    between atoms: C5_12  and  C6_13 
ROOT
HETATM    1 Cl1  UNK     1      30.208  -9.663  38.422  1.00  0.00    -0.084 Cl
HETATM    2  O2  UNK     1      25.710  -5.854  38.647  1.00  0.00    -0.271 OA
HETATM    3  O5  UNK     1      23.478  -5.432  38.902  1.00  0.00    -0.259 OA
HETATM    4  C6  UNK     1      24.153  -7.700  39.038  1.00  0.00     0.108 A 
HETATM    5  C7  UNK     1      26.519  -8.144  38.765  1.00  0.00     0.004 A 
HETATM    6  C8  UNK     1      25.152  -8.589  38.991  1.00  0.00     0.037 A 
HETATM    7  C9  UNK     1      26.765  -6.785  38.598  1.00  0.00     0.123 A 
HETATM    8  C10 UNK     1      24.392  -6.249  38.863  1.00  0.00     0.304 A 
HETATM    9  C11 UNK     1      28.051  -6.294  38.378  1.00  0.00     0.104 A 
HETATM   10  C12 UNK     1      27.592  -9.036  38.709  1.00  0.00     0.038 A 
HETATM   11  C13 UNK     1      29.116  -7.191  38.324  1.00  0.00     0.063 A 
HETATM   12  C14 UNK     1      28.888  -8.559  38.490  1.00  0.00     0.037 A 
ENDROOT
BRANCH   4  13
HETATM   13  C5  UNK     1      22.803  -8.249  39.272  1.00  0.00     0.260 C 
HETATM   14  O3  UNK     1      22.399  -8.288  40.436  1.00  0.00    -0.267 OA
HETATM   15  N1  UNK     1      22.077  -8.688  38.171  1.00  0.00    -0.344 N 
HETATM   16  C1  UNK     1      20.735  -9.240  38.369  1.00  0.00     0.152 C 
HETATM   17  C2  UNK     1      22.555  -8.796  36.786  1.00  0.00     0.152 C 
HETATM   18  C3  UNK     1      19.767  -8.652  37.351  1.00  0.00     0.187 C 
HETATM   19  O1  UNK     1      20.255  -8.865  36.024  1.00  0.00    -0.388 OA
HETATM   20  C4  UNK     1      21.518  -8.224  35.828  1.00  0.00     0.187 C 
ENDBRANCH   4  13
BRANCH   9  21
HETATM   21  O4  UNK     1      28.278  -4.963  38.217  1.00  0.00    -0.353 OA
HETATM   22  C15 UNK     1      29.343  -4.388  38.973  1.00  0.00     0.210 C 
ENDBRANCH   9  21
TORSDOF 2
ENDMDL
MODEL 4
REMARK VINA RESULT:      -7.4     23.086     24.883
REMARK  2 active torsions:
REMARK  status: ('A' for Active; 'I' for Inactive)
REMARK    1  A    between atoms: C11_18  and  O4_5 
REMARK       I    between atoms: C5_12  and  N1_7 
REMARK    2  A    between atoms: C5_12  and  C6_13 
ROOT
HETATM    1 Cl1  UNK     1      17.009  11.998   8.113  1.00  0.00    -0.084 Cl
HETATM    2  O2  UNK     1      14.508   7.058  10.147  1.00  0.00    -0.271 OA
HETATM    3  O5  UNK     1      12.662   5.741  10.432  1.00  0.00    -0.259 OA
HETATM    4  C6  UNK     1      12.339   7.790   9.286  1.00  0.00     0.108 A 
HETATM    5  C7  UNK     1      14.296   9.185   8.987  1.00  0.00     0.004 A 
HETATM    6  C8  UNK     1      12.876   8.920   8.813  1.00  0.00     0.037 A 
HETATM    7  C9  UNK     1      15.079   8.246   9.651  1.00  0.00     0.123 A 
HETATM    8  C10 UNK     1      13.153   6.777   9.995  1.00  0.00     0.304 A 
HETATM    9  C11 UNK     1      16.445   8.440   9.851  1.00  0.00     0.104 A 
HETATM   10  C12 UNK     1      14.900  10.350   8.511  1.00  0.00     0.038 A 
HETATM   11  C13 UNK     1      17.039   9.605   9.372  1.00  0.00     0.063 A 
HETATM   12  C14 UNK     1      16.269  10.559   8.703  1.00  0.00     0.037 A 
ENDROOT
BRANCH   4  13
HETATM   13  C5  UNK     1      10.891   7.612   9.059  1.00  0.00     0.260 C 
HETATM   14  O3  UNK     1      10.120   8.223   9.802  1.00  0.00    -0.267 OA
HETATM   15  N1  UNK     1      10.490   6.768   8.030  1.00  0.00    -0.344 N 
HETATM   16  C1  UNK     1       9.060   6.568   7.781  1.00  0.00     0.152 C 
HETATM   17  C2  UNK     1      11.353   5.910   7.207  1.00  0.00     0.152 C 
HETATM   18  C3  UNK     1       8.766   6.670   6.290  1.00  0.00     0.187 C 
HETATM   19  O1  UNK     1       9.581   5.751   5.560  1.00  0.00    -0.388 OA
HETATM   20  C4  UNK     1      10.971   6.038   5.738  1.00  0.00     0.187 C 
ENDBRANCH   4  13
BRANCH   9  21
HETATM   21  O4  UNK     1      17.199   7.513  10.502  1.00  0.00    -0.353 OA
HETATM   22  C15 UNK     1      17.857   6.532   9.702  1.00  0.00     0.210 C 
ENDBRANCH   9  21
TORSDOF 2
ENDMDL
MODEL 5
REMARK VINA RESULT:      -7.3      7.070     10.401
REMARK  2 active torsions:
REMARK  status: ('A' for Active; 'I' for Inactive)
REMARK    1  A    between atoms: C11_18  and  O4_5 
REMARK       I    between atoms: C5_12  and  N1_7 
REMARK    2  A    between atoms: C5_12  and  C6_13 
ROOT
HETATM    1 Cl1  UNK     1      20.527  -1.587  29.996  1.00  0.00    -0.084 Cl
HETATM    2  O2  UNK     1      18.611  -1.266  35.565  1.00  0.00    -0.271 OA
HETATM    3  O5  UNK     1      18.650  -2.017  37.723  1.00  0.00    -0.259 OA
HETATM    4  C6  UNK     1      20.084  -3.116  36.189  1.00  0.00     0.108 A 
HETATM    5  C7  UNK     1      20.039  -2.318  33.902  1.00  0.00     0.004 A 
HETATM    6  C8  UNK     1      20.538  -3.214  34.935  1.00  0.00     0.037 A 
HETATM    7  C9  UNK     1      19.086  -1.364  34.243  1.00  0.00     0.123 A 
HETATM    8  C10 UNK     1      19.070  -2.108  36.574  1.00  0.00     0.304 A 
HETATM    9  C11 UNK     1      18.567  -0.477  33.301  1.00  0.00     0.104 A 
HETATM   10  C12 UNK     1      20.484  -2.385  32.580  1.00  0.00     0.038 A 
HETATM   11  C13 UNK     1      19.017  -0.550  31.985  1.00  0.00     0.063 A 
HETATM   12  C14 UNK     1      19.974  -1.501  31.625  1.00  0.00     0.037 A 
ENDROOT
BRANCH   4  13
HETATM   13  C5  UNK     1      20.650  -4.068  37.165  1.00  0.00     0.260 C 
HETATM   14  O3  UNK     1      21.558  -3.663  37.894  1.00  0.00    -0.267 OA
HETATM   15  N1  UNK     1      20.130  -5.357  37.196  1.00  0.00    -0.344 N 
HETATM   16  C1  UNK     1      20.672  -6.327  38.150  1.00  0.00     0.152 C 
HETATM   17  C2  UNK     1      19.153  -5.936  36.265  1.00  0.00     0.152 C 
HETATM   18  C3  UNK     1      19.540  -7.068  38.849  1.00  0.00     0.187 C 
HETATM   19  O1  UNK     1      18.676  -7.675  37.885  1.00  0.00    -0.388 OA
HETATM   20  C4  UNK     1      18.078  -6.691  37.036  1.00  0.00     0.187 C 
ENDBRANCH   4  13
BRANCH   9  21
HETATM   21  O4  UNK     1      17.636   0.451  33.648  1.00  0.00    -0.353 OA
HETATM   22  C15 UNK     1      18.097   1.783  33.875  1.00  0.00     0.210 C 
ENDBRANCH   9  21
TORSDOF 2
ENDMDL
MODEL 6
REMARK VINA RESULT:      -7.3      4.311      7.378
REMARK  2 active torsions:
REMARK  status: ('A' for Active; 'I' for Inactive)
REMARK    1  A    between atoms: C11_18  and  O4_5 
REMARK       I    between atoms: C5_12  and  N1_7 
REMARK    2  A    between atoms: C5_12  and  C6_13 
ROOT
HETATM    1 Cl1  UNK     1      18.547   6.627  32.556  1.00  0.00    -0.084 Cl
HETATM    2  O2  UNK     1      18.528   0.774  31.825  1.00  0.00    -0.271 OA
HETATM    3  O5  UNK     1      18.284  -1.331  32.680  1.00  0.00    -0.259 OA
HETATM    4  C6  UNK     1      18.010   0.470  34.196  1.00  0.00     0.108 A 
HETATM    5  C7  UNK     1      18.272   2.700  33.287  1.00  0.00     0.004 A 
HETATM    6  C8  UNK     1      18.007   1.793  34.394  1.00  0.00     0.037 A 
HETATM    7  C9  UNK     1      18.527   2.168  32.028  1.00  0.00     0.123 A 
HETATM    8  C10 UNK     1      18.278  -0.119  32.864  1.00  0.00     0.304 A 
HETATM    9  C11 UNK     1      18.787   2.982  30.927  1.00  0.00     0.104 A 
HETATM   10  C12 UNK     1      18.279   4.087  33.447  1.00  0.00     0.038 A 
HETATM   11  C13 UNK     1      18.793   4.365  31.095  1.00  0.00     0.063 A 
HETATM   12  C14 UNK     1      18.539   4.917  32.352  1.00  0.00     0.037 A 
ENDROOT
BRANCH   4  13
HETATM   13  C5  UNK     1      17.730  -0.367  35.380  1.00  0.00     0.260 C 
HETATM   14  O3  UNK     1      16.574  -0.380  35.808  1.00  0.00    -0.267 OA
HETATM   15  N1  UNK     1      18.785  -1.082  35.937  1.00  0.00    -0.344 N 
HETATM   16  C1  UNK     1      18.542  -1.919  37.113  1.00  0.00     0.152 C 
HETATM   17  C2  UNK     1      20.202  -0.999  35.560  1.00  0.00     0.152 C 
HETATM   18  C3  UNK     1      19.198  -3.282  36.935  1.00  0.00     0.187 C 
HETATM   19  O1  UNK     1      20.591  -3.128  36.652  1.00  0.00    -0.388 OA
HETATM   20  C4  UNK     1      20.794  -2.397  35.440  1.00  0.00     0.187 C 
ENDBRANCH   4  13
BRANCH   9  21
HETATM   21  O4  UNK     1      19.035   2.448  29.700  1.00  0.00    -0.353 OA
HETATM   22  C15 UNK     1      17.905   2.145  28.883  1.00  0.00     0.210 C 
ENDBRANCH   9  21
TORSDOF 2
ENDMDL
MODEL 7
REMARK VINA RESULT:      -7.3      6.933     10.376
REMARK  2 active torsions:
REMARK  status: ('A' for Active; 'I' for Inactive)
REMARK    1  A    between atoms: C11_18  and  O4_5 
REMARK       I    between atoms: C5_12  and  N1_7 
REMARK    2  A    between atoms: C5_12  and  C6_13 
ROOT
HETATM    1 Cl1  UNK     1      16.037   1.812  37.628  1.00  0.00    -0.084 Cl
HETATM    2  O2  UNK     1      19.452  -1.633  34.273  1.00  0.00    -0.271 OA
HETATM    3  O5  UNK     1      20.825  -3.445  34.044  1.00  0.00    -0.259 OA
HETATM    4  C6  UNK     1      19.938  -3.050  36.206  1.00  0.00     0.108 A 
HETATM    5  C7  UNK     1      18.485  -1.127  36.446  1.00  0.00     0.004 A 
HETATM    6  C8  UNK     1      19.171  -2.288  36.993  1.00  0.00     0.037 A 
HETATM    7  C9  UNK     1      18.642  -0.827  35.097  1.00  0.00     0.123 A 
HETATM    8  C10 UNK     1      20.120  -2.750  34.768  1.00  0.00     0.304 A 
HETATM    9  C11 UNK     1      18.013   0.270  34.511  1.00  0.00     0.104 A 
HETATM   10  C12 UNK     1      17.674  -0.304  37.230  1.00  0.00     0.038 A 
HETATM   11  C13 UNK     1      17.206   1.086  35.301  1.00  0.00     0.063 A 
HETATM   12  C14 UNK     1      17.036   0.800  36.657  1.00  0.00     0.037 A 
ENDROOT
BRANCH   4  13
HETATM   13  C5  UNK     1      20.592  -4.205  36.854  1.00  0.00     0.260 C 
HETATM   14  O3  UNK     1      21.672  -4.007  37.414  1.00  0.00    -0.267 OA
HETATM   15  N1  UNK     1      19.953  -5.438  36.788  1.00  0.00    -0.344 N 
HETATM   16  C1  UNK     1      20.576  -6.604  37.417  1.00  0.00     0.152 C 
HETATM   17  C2  UNK     1      18.743  -5.764  36.020  1.00  0.00     0.152 C 
HETATM   18  C3  UNK     1      19.544  -7.383  38.222  1.00  0.00     0.187 C 
HETATM   19  O1  UNK     1      18.434  -7.737  37.394  1.00  0.00    -0.388 OA
HETATM   20  C4  UNK     1      17.781  -6.574  36.879  1.00  0.00     0.187 C 
ENDBRANCH   4  13
BRANCH   9  21
HETATM   21  O4  UNK     1      18.176   0.552  33.191  1.00  0.00    -0.353 OA
HETATM   22  C15 UNK     1      18.247   1.930  32.824  1.00  0.00     0.210 C 
ENDBRANCH   9  21
TORSDOF 2
ENDMDL
MODEL 8
REMARK VINA RESULT:      -7.1     23.103     24.907
REMARK  2 active torsions:
REMARK  status: ('A' for Active; 'I' for Inactive)
REMARK    1  A    between atoms: C11_18  and  O4_5 
REMARK       I    between atoms: C5_12  and  N1_7 
REMARK    2  A    between atoms: C5_12  and  C6_13 
ROOT
HETATM    1 Cl1  UNK     1      16.135  14.191   6.456  1.00  0.00    -0.084 Cl
HETATM    2  O2  UNK     1      17.652   9.311   9.402  1.00  0.00    -0.271 OA
HETATM    3  O5  UNK     1      17.067   7.407  10.521  1.00  0.00    -0.259 OA
HETATM    4  C6  UNK     1      15.292   8.733   9.680  1.00  0.00     0.108 A 
HETATM    5  C7  UNK     1      15.916  10.752   8.496  1.00  0.00     0.004 A 
HETATM    6  C8  UNK     1      14.916   9.832   9.016  1.00  0.00     0.037 A 
HETATM    7  C9  UNK     1      17.262  10.469   8.702  1.00  0.00     0.123 A 
HETATM    8  C10 UNK     1      16.719   8.412   9.911  1.00  0.00     0.304 A 
HETATM    9  C11 UNK     1      18.269  11.310   8.230  1.00  0.00     0.104 A 
HETATM   10  C12 UNK     1      15.570  11.911   7.797  1.00  0.00     0.038 A 
HETATM   11  C13 UNK     1      17.915  12.463   7.533  1.00  0.00     0.063 A 
HETATM   12  C14 UNK     1      16.568  12.764   7.317  1.00  0.00     0.037 A 
ENDROOT
BRANCH   4  13
HETATM   13  C5  UNK     1      14.205   7.862  10.168  1.00  0.00     0.260 C 
HETATM   14  O3  UNK     1      13.844   8.004  11.339  1.00  0.00    -0.267 OA
HETATM   15  N1  UNK     1      13.660   6.940   9.282  1.00  0.00    -0.344 N 
HETATM   16  C1  UNK     1      12.582   6.059   9.736  1.00  0.00     0.152 C 
HETATM   17  C2  UNK     1      14.138   6.630   7.928  1.00  0.00     0.152 C 
HETATM   18  C3  UNK     1      11.467   6.014   8.700  1.00  0.00     0.187 C 
HETATM   19  O1  UNK     1      11.989   5.627   7.426  1.00  0.00    -0.388 OA
HETATM   20  C4  UNK     1      12.964   6.564   6.961  1.00  0.00     0.187 C 
ENDBRANCH   4  13
BRANCH   9  21
HETATM   21  O4  UNK     1      19.582  11.021   8.438  1.00  0.00    -0.353 OA
HETATM   22  C15 UNK     1      20.511  12.099   8.324  1.00  0.00     0.210 C 
ENDBRANCH   9  21
TORSDOF 2
ENDMDL
MODEL 9
REMARK VINA RESULT:      -7.1     22.929     24.718
REMARK  2 active torsions:
REMARK  status: ('A' for Active; 'I' for Inactive)
REMARK    1  A    between atoms: C11_18  and  O4_5 
REMARK       I    between atoms: C5_12  and  N1_7 
REMARK    2  A    between atoms: C5_12  and  C6_13 
ROOT
HETATM    1 Cl1  UNK     1      10.046   5.924   5.134  1.00  0.00    -0.084 Cl
HETATM    2  O2  UNK     1      11.806   8.109  10.322  1.00  0.00    -0.271 OA
HETATM    3  O5  UNK     1      13.468   8.878  11.690  1.00  0.00    -0.259 OA
HETATM    4  C6  UNK     1      14.115   8.188   9.517  1.00  0.00     0.108 A 
HETATM    5  C7  UNK     1      12.352   7.373   8.070  1.00  0.00     0.004 A 
HETATM    6  C8  UNK     1      13.747   7.693   8.330  1.00  0.00     0.037 A 
HETATM    7  C9  UNK     1      11.413   7.589   9.074  1.00  0.00     0.123 A 
HETATM    8  C10 UNK     1      13.133   8.426  10.600  1.00  0.00     0.304 A 
HETATM    9  C11 UNK     1      10.062   7.302   8.889  1.00  0.00     0.104 A 
HETATM   10  C12 UNK     1      11.923   6.854   6.846  1.00  0.00     0.038 A 
HETATM   11  C13 UNK     1       9.642   6.786   7.665  1.00  0.00     0.063 A 
HETATM   12  C14 UNK     1      10.570   6.562   6.645  1.00  0.00     0.037 A 
ENDROOT
BRANCH   4  13
HETATM   13  C5  UNK     1      15.552   8.482   9.684  1.00  0.00     0.260 C 
HETATM   14  O3  UNK     1      16.282   7.560  10.055  1.00  0.00    -0.267 OA
HETATM   15  N1  UNK     1      15.989   9.775   9.417  1.00  0.00    -0.344 N 
HETATM   16  C1  UNK     1      17.408  10.099   9.576  1.00  0.00     0.152 C 
HETATM   17  C2  UNK     1      15.152  10.942   9.110  1.00  0.00     0.152 C 
HETATM   18  C3  UNK     1      17.904  10.896   8.377  1.00  0.00     0.187 C 
HETATM   19  O1  UNK     1      17.095  12.060   8.186  1.00  0.00    -0.388 OA
HETATM   20  C4  UNK     1      15.733  11.706   7.928  1.00  0.00     0.187 C 
ENDBRANCH   4  13
BRANCH   9  21
HETATM   21  O4  UNK     1       9.155   7.518   9.879  1.00  0.00    -0.353 OA
HETATM   22  C15 UNK     1       7.811   7.789   9.483  1.00  0.00     0.210 C 
ENDBRANCH   9  21
TORSDOF 2
ENDMDL
MODEL 10
REMARK VINA RESULT:      -7.0      3.083      6.947
REMARK  2 active torsions:
REMARK  status: ('A' for Active; 'I' for Inactive)
REMARK    1  A    between atoms: C11_18  and  O4_5 
REMARK       I    between atoms: C5_12  and  N1_7 
REMARK    2  A    between atoms: C5_12  and  C6_13 
ROOT
HETATM    1 Cl1  UNK     1      14.154   9.324  33.862  1.00  0.00    -0.084 Cl
HETATM    2  O2  UNK     1      19.599   7.289  32.861  1.00  0.00    -0.271 OA
HETATM    3  O5  UNK     1      21.005   5.794  31.855  1.00  0.00    -0.259 OA
HETATM    4  C6  UNK     1      18.690   5.540  31.414  1.00  0.00     0.108 A 
HETATM    5  C7  UNK     1      17.203   7.125  32.483  1.00  0.00     0.004 A 
HETATM    6  C8  UNK     1      17.443   5.977  31.622  1.00  0.00     0.037 A 
HETATM    7  C9  UNK     1      18.289   7.754  33.083  1.00  0.00     0.123 A 
HETATM    8  C10 UNK     1      19.861   6.194  32.042  1.00  0.00     0.304 A 
HETATM    9  C11 UNK     1      18.127   8.858  33.918  1.00  0.00     0.104 A 
HETATM   10  C12 UNK     1      15.919   7.616  32.728  1.00  0.00     0.038 A 
HETATM   11  C13 UNK     1      16.842   9.342  34.157  1.00  0.00     0.063 A 
HETATM   12  C14 UNK     1      15.740   8.722  33.564  1.00  0.00     0.037 A 
ENDROOT
BRANCH   4  13
HETATM   13  C5  UNK     1      18.831   4.369  30.525  1.00  0.00     0.260 C 
HETATM   14  O3  UNK     1      19.221   4.573  29.373  1.00  0.00    -0.267 OA
HETATM   15  N1  UNK     1      18.513   3.117  31.039  1.00  0.00    -0.344 N 
HETATM   16  C1  UNK     1      18.640   1.936  30.182  1.00  0.00     0.152 C 
HETATM   17  C2  UNK     1      17.915   2.829  32.349  1.00  0.00     0.152 C 
HETATM   18  C3  UNK     1      19.345   0.814  30.932  1.00  0.00     0.187 C 
HETATM   19  O1  UNK     1      18.662   0.531  32.156  1.00  0.00    -0.388 OA
HETATM   20  C4  UNK     1      18.648   1.673  33.016  1.00  0.00     0.187 C 
ENDBRANCH   4  13
BRANCH   9  21
HETATM   21  O4  UNK     1      19.197   9.464  34.498  1.00  0.00    -0.353 OA
HETATM   22  C15 UNK     1      19.398  10.847  34.208  1.00  0.00     0.210 C 
ENDBRANCH   9  21
TORSDOF 2
ENDMDL
