MODEL 1
REMARK VINA RESULT:      -9.3      0.000      0.000
REMARK  2 active torsions:
REMARK  status: ('A' for Active; 'I' for Inactive)
REMARK    1  A    between atoms: C5_9  and  N1_4 
REMARK       I    between atoms: C6_10  and  N1_4 
REMARK    2  A    between atoms: C2_6  and  C6_10 
ROOT
HETATM    1  O1  UNK     1      19.119   1.457  28.759  1.00  0.00    -0.274 OA
HETATM    2  O3  UNK     1      18.311   3.588  28.914  1.00  0.00    -0.259 OA
HETATM    3  C1  UNK     1      19.546   0.184  30.786  1.00  0.00    -0.001 A 
HETATM    4  C2  UNK     1      18.687   2.444  30.954  1.00  0.00     0.108 A 
HETATM    5  C3  UNK     1      19.548   0.276  29.398  1.00  0.00     0.089 A 
HETATM    6  C4  UNK     1      19.093   1.325  31.567  1.00  0.00     0.037 A 
HETATM    7  C8  UNK     1      19.978  -1.002  31.383  1.00  0.00     0.014 A 
HETATM    8  C10 UNK     1      18.681   2.564  29.479  1.00  0.00     0.304 A 
HETATM    9  C11 UNK     1      19.970  -0.779  28.593  1.00  0.00     0.038 A 
HETATM   10  C14 UNK     1      20.404  -2.071  30.589  1.00  0.00     0.001 A 
HETATM   11  C15 UNK     1      20.399  -1.958  29.197  1.00  0.00     0.003 A 
ENDROOT
BRANCH   4  12
HETATM   12  C6  UNK     1      18.250   3.539  31.828  1.00  0.00     0.262 C 
HETATM   13  O2  UNK     1      17.620   3.284  32.852  1.00  0.00    -0.267 OA
HETATM   14  N1  UNK     1      18.638   4.778  31.336  1.00  0.00    -0.323 N 
HETATM   15  H2  UNK     1      19.141   4.822  30.454  1.00  0.00     0.169 HD
BRANCH  14  16
HETATM   16  C5  UNK     1      18.380   6.018  31.929  1.00  0.00     0.035 A 
HETATM   17  C12 UNK     1      17.216   6.713  31.606  1.00  0.00     0.029 A 
HETATM   18  C16 UNK     1      16.959   7.949  32.197  1.00  0.00     0.003 A 
HETATM   19  C13 UNK     1      17.864   8.488  33.111  1.00  0.00     0.007 A 
HETATM   20  C7  UNK     1      19.028   7.790  33.434  1.00  0.00    -0.060 A 
HETATM   21  C17 UNK     1      19.996   8.366  34.411  1.00  0.00     0.048 C 
HETATM   22  C9  UNK     1      19.286   6.553  32.842  1.00  0.00     0.036 A 
ENDBRANCH  14  16
ENDBRANCH   4  12
TORSDOF 2
ENDMDL
MODEL 2
REMARK VINA RESULT:      -9.2      1.689      7.426
REMARK  2 active torsions:
REMARK  status: ('A' for Active; 'I' for Inactive)
REMARK    1  A    between atoms: C5_9  and  N1_4 
REMARK       I    between atoms: C6_10  and  N1_4 
REMARK    2  A    between atoms: C2_6  and  C6_10 
ROOT
HETATM    1  O1  UNK     1      19.257   6.657  31.395  1.00  0.00    -0.274 OA
HETATM    2  O3  UNK     1      19.776   5.180  29.732  1.00  0.00    -0.259 OA
HETATM    3  C1  UNK     1      17.826   5.946  33.228  1.00  0.00    -0.001 A 
HETATM    4  C2  UNK     1      18.377   4.377  31.465  1.00  0.00     0.108 A 
HETATM    5  C3  UNK     1      18.586   6.930  32.604  1.00  0.00     0.089 A 
HETATM    6  C4  UNK     1      17.736   4.631  32.613  1.00  0.00     0.037 A 
HETATM    7  C8  UNK     1      17.176   6.255  34.424  1.00  0.00     0.014 A 
HETATM    8  C10 UNK     1      19.189   5.409  30.784  1.00  0.00     0.304 A 
HETATM    9  C11 UNK     1      18.712   8.210  33.139  1.00  0.00     0.038 A 
HETATM   10  C14 UNK     1      17.293   7.535  34.975  1.00  0.00     0.001 A 
HETATM   11  C15 UNK     1      18.060   8.510  34.333  1.00  0.00     0.003 A 
ENDROOT
BRANCH   4  12
HETATM   12  C6  UNK     1      18.224   3.021  30.924  1.00  0.00     0.262 C 
HETATM   13  O2  UNK     1      17.101   2.598  30.658  1.00  0.00    -0.267 OA
HETATM   14  N1  UNK     1      19.447   2.380  30.785  1.00  0.00    -0.323 N 
HETATM   15  H2  UNK     1      20.293   2.864  31.073  1.00  0.00     0.169 HD
BRANCH  14  16
HETATM   16  C5  UNK     1      19.647   1.085  30.298  1.00  0.00     0.035 A 
HETATM   17  C12 UNK     1      19.438   0.810  28.948  1.00  0.00     0.029 A 
HETATM   18  C16 UNK     1      19.638  -0.481  28.462  1.00  0.00     0.003 A 
HETATM   19  C13 UNK     1      20.046  -1.497  29.326  1.00  0.00     0.007 A 
HETATM   20  C7  UNK     1      20.255  -1.220  30.678  1.00  0.00    -0.060 A 
HETATM   21  C17 UNK     1      20.692  -2.306  31.603  1.00  0.00     0.048 C 
HETATM   22  C9  UNK     1      20.056   0.072  31.164  1.00  0.00     0.036 A 
ENDBRANCH  14  16
ENDBRANCH   4  12
TORSDOF 2
ENDMDL
MODEL 3
REMARK VINA RESULT:      -9.0      7.180     11.415
REMARK  2 active torsions:
REMARK  status: ('A' for Active; 'I' for Inactive)
REMARK    1  A    between atoms: C5_9  and  N1_4 
REMARK       I    between atoms: C6_10  and  N1_4 
REMARK    2  A    between atoms: C2_6  and  C6_10 
ROOT
HETATM    1  O1  UNK     1      19.492  -1.083  34.592  1.00  0.00    -0.274 OA
HETATM    2  O3  UNK     1      20.618  -2.984  34.011  1.00  0.00    -0.259 OA
HETATM    3  C1  UNK     1      18.509  -0.901  36.808  1.00  0.00    -0.001 A 
HETATM    4  C2  UNK     1      19.704  -2.918  36.195  1.00  0.00     0.108 A 
HETATM    5  C3  UNK     1      18.762  -0.356  35.553  1.00  0.00     0.089 A 
HETATM    6  C4  UNK     1      19.010  -2.232  37.112  1.00  0.00     0.037 A 
HETATM    7  C8  UNK     1      17.781  -0.150  37.734  1.00  0.00     0.014 A 
HETATM    8  C10 UNK     1      19.984  -2.358  34.854  1.00  0.00     0.304 A 
HETATM    9  C11 UNK     1      18.309   0.912  35.199  1.00  0.00     0.038 A 
HETATM   10  C14 UNK     1      17.320   1.125  37.393  1.00  0.00     0.001 A 
HETATM   11  C15 UNK     1      17.584   1.654  36.128  1.00  0.00     0.003 A 
ENDROOT
BRANCH   4  12
HETATM   12  C6  UNK     1      20.166  -4.252  36.596  1.00  0.00     0.262 C 
HETATM   13  O2  UNK     1      21.187  -4.361  37.273  1.00  0.00    -0.267 OA
HETATM   14  N1  UNK     1      19.330  -5.253  36.122  1.00  0.00    -0.323 N 
HETATM   15  H2  UNK     1      18.528  -4.996  35.551  1.00  0.00     0.169 HD
BRANCH  14  16
HETATM   16  C5  UNK     1      19.490  -6.626  36.328  1.00  0.00     0.035 A 
HETATM   17  C12 UNK     1      18.716  -7.279  37.286  1.00  0.00     0.029 A 
HETATM   18  C16 UNK     1      18.875  -8.648  37.492  1.00  0.00     0.003 A 
HETATM   19  C13 UNK     1      19.806  -9.364  36.740  1.00  0.00     0.007 A 
HETATM   20  C7  UNK     1      20.580  -8.708  35.781  1.00  0.00    -0.060 A 
HETATM   21  C17 UNK     1      21.577  -9.474  34.977  1.00  0.00     0.048 C 
HETATM   22  C9  UNK     1      20.421  -7.338  35.575  1.00  0.00     0.036 A 
ENDBRANCH  14  16
ENDBRANCH   4  12
TORSDOF 2
ENDMDL
MODEL 4
REMARK VINA RESULT:      -9.0      7.796     11.425
REMARK  2 active torsions:
REMARK  status: ('A' for Active; 'I' for Inactive)
REMARK    1  A    between atoms: C5_9  and  N1_4 
REMARK       I    between atoms: C6_10  and  N1_4 
REMARK    2  A    between atoms: C2_6  and  C6_10 
ROOT
HETATM    1  O1  UNK     1      19.673  -0.986  34.777  1.00  0.00    -0.274 OA
HETATM    2  O3  UNK     1      20.784  -2.854  34.077  1.00  0.00    -0.259 OA
HETATM    3  C1  UNK     1      18.484  -1.020  36.897  1.00  0.00    -0.001 A 
HETATM    4  C2  UNK     1      19.663  -3.004  36.157  1.00  0.00     0.108 A 
HETATM    5  C3  UNK     1      18.878  -0.344  35.746  1.00  0.00     0.089 A 
HETATM    6  C4  UNK     1      18.907  -2.399  37.082  1.00  0.00     0.037 A 
HETATM    7  C8  UNK     1      17.695  -0.351  37.835  1.00  0.00     0.014 A 
HETATM    8  C10 UNK     1      20.093  -2.304  34.926  1.00  0.00     0.304 A 
HETATM    9  C11 UNK     1      18.506   0.977  35.508  1.00  0.00     0.038 A 
HETATM   10  C14 UNK     1      17.314   0.976  37.610  1.00  0.00     0.001 A 
HETATM   11  C15 UNK     1      17.719   1.637  36.449  1.00  0.00     0.003 A 
ENDROOT
BRANCH   4  12
HETATM   12  C6  UNK     1      20.037  -4.396  36.435  1.00  0.00     0.262 C 
HETATM   13  O2  UNK     1      20.068  -5.210  35.514  1.00  0.00    -0.267 OA
HETATM   14  N1  UNK     1      20.319  -4.597  37.779  1.00  0.00    -0.323 N 
HETATM   15  H2  UNK     1      20.225  -3.816  38.424  1.00  0.00     0.169 HD
BRANCH  14  16
HETATM   16  C5  UNK     1      20.705  -5.804  38.368  1.00  0.00     0.035 A 
HETATM   17  C12 UNK     1      19.741  -6.650  38.914  1.00  0.00     0.029 A 
HETATM   18  C16 UNK     1      20.126  -7.854  39.501  1.00  0.00     0.003 A 
HETATM   19  C13 UNK     1      21.473  -8.212  39.542  1.00  0.00     0.007 A 
HETATM   20  C7  UNK     1      22.436  -7.364  38.995  1.00  0.00    -0.060 A 
HETATM   21  C17 UNK     1      23.878  -7.747  39.038  1.00  0.00     0.048 C 
HETATM   22  C9  UNK     1      22.052  -6.159  38.407  1.00  0.00     0.036 A 
ENDBRANCH  14  16
ENDBRANCH   4  12
TORSDOF 2
ENDMDL
MODEL 5
REMARK VINA RESULT:      -9.0      1.718      2.413
REMARK  2 active torsions:
REMARK  status: ('A' for Active; 'I' for Inactive)
REMARK    1  A    between atoms: C5_9  and  N1_4 
REMARK       I    between atoms: C6_10  and  N1_4 
REMARK    2  A    between atoms: C2_6  and  C6_10 
ROOT
HETATM    1  O1  UNK     1      18.821   0.407  32.883  1.00  0.00    -0.274 OA
HETATM    2  O3  UNK     1      17.964   1.989  34.290  1.00  0.00    -0.259 OA
HETATM    3  C1  UNK     1      19.321   0.997  30.578  1.00  0.00    -0.001 A 
HETATM    4  C2  UNK     1      18.413   2.677  32.069  1.00  0.00     0.108 A 
HETATM    5  C3  UNK     1      19.292   0.056  31.602  1.00  0.00     0.089 A 
HETATM    6  C4  UNK     1      18.859   2.349  30.850  1.00  0.00     0.037 A 
HETATM    7  C8  UNK     1      19.794   0.610  29.322  1.00  0.00     0.014 A 
HETATM    8  C10 UNK     1      18.372   1.692  33.173  1.00  0.00     0.304 A 
HETATM    9  C11 UNK     1      19.718  -1.256  31.407  1.00  0.00     0.038 A 
HETATM   10  C14 UNK     1      20.227  -0.702  29.110  1.00  0.00     0.001 A 
HETATM   11  C15 UNK     1      20.189  -1.633  30.151  1.00  0.00     0.003 A 
ENDROOT
BRANCH   4  12
HETATM   12  C6  UNK     1      17.968   4.065  32.244  1.00  0.00     0.262 C 
HETATM   13  O2  UNK     1      17.153   4.543  31.459  1.00  0.00    -0.267 OA
HETATM   14  N1  UNK     1      18.573   4.666  33.340  1.00  0.00    -0.323 N 
HETATM   15  H2  UNK     1      19.250   4.136  33.882  1.00  0.00     0.169 HD
BRANCH  14  16
HETATM   16  C5  UNK     1      18.365   5.977  33.778  1.00  0.00     0.035 A 
HETATM   17  C12 UNK     1      17.083   6.397  34.128  1.00  0.00     0.029 A 
HETATM   18  C16 UNK     1      16.875   7.705  34.565  1.00  0.00     0.003 A 
HETATM   19  C13 UNK     1      17.949   8.591  34.653  1.00  0.00     0.007 A 
HETATM   20  C7  UNK     1      19.231   8.168  34.301  1.00  0.00    -0.060 A 
HETATM   21  C17 UNK     1      20.380   9.116  34.394  1.00  0.00     0.048 C 
HETATM   22  C9  UNK     1      19.440   6.860  33.864  1.00  0.00     0.036 A 
ENDBRANCH  14  16
ENDBRANCH   4  12
TORSDOF 2
ENDMDL
MODEL 6
REMARK VINA RESULT:      -8.9      1.807      7.846
REMARK  2 active torsions:
REMARK  status: ('A' for Active; 'I' for Inactive)
REMARK    1  A    between atoms: C5_9  and  N1_4 
REMARK       I    between atoms: C6_10  and  N1_4 
REMARK    2  A    between atoms: C2_6  and  C6_10 
ROOT
HETATM    1  O1  UNK     1      17.311   6.260  34.411  1.00  0.00    -0.274 OA
HETATM    2  O3  UNK     1      18.618   4.407  34.133  1.00  0.00    -0.259 OA
HETATM    3  C1  UNK     1      16.558   7.501  32.461  1.00  0.00    -0.001 A 
HETATM    4  C2  UNK     1      17.943   5.535  32.163  1.00  0.00     0.108 A 
HETATM    5  C3  UNK     1      16.597   7.332  33.842  1.00  0.00     0.089 A 
HETATM    6  C4  UNK     1      17.267   6.553  31.616  1.00  0.00     0.037 A 
HETATM    7  C8  UNK     1      15.840   8.576  31.934  1.00  0.00     0.014 A 
HETATM    8  C10 UNK     1      17.999   5.337  33.628  1.00  0.00     0.304 A 
HETATM    9  C11 UNK     1      15.941   8.205  34.706  1.00  0.00     0.038 A 
HETATM   10  C14 UNK     1      15.176   9.461  32.789  1.00  0.00     0.001 A 
HETATM   11  C15 UNK     1      15.227   9.275  34.172  1.00  0.00     0.003 A 
ENDROOT
BRANCH   4  12
HETATM   12  C6  UNK     1      18.626   4.633  31.227  1.00  0.00     0.262 C 
HETATM   13  O2  UNK     1      19.603   5.036  30.600  1.00  0.00    -0.267 OA
HETATM   14  N1  UNK     1      18.028   3.381  31.189  1.00  0.00    -0.323 N 
HETATM   15  H2  UNK     1      17.204   3.210  31.759  1.00  0.00     0.169 HD
BRANCH  14  16
HETATM   16  C5  UNK     1      18.434   2.298  30.403  1.00  0.00     0.035 A 
HETATM   17  C12 UNK     1      17.933   2.151  29.111  1.00  0.00     0.029 A 
HETATM   18  C16 UNK     1      18.338   1.071  28.328  1.00  0.00     0.003 A 
HETATM   19  C13 UNK     1      19.244   0.141  28.836  1.00  0.00     0.007 A 
HETATM   20  C7  UNK     1      19.744   0.290  30.129  1.00  0.00    -0.060 A 
HETATM   21  C17 UNK     1      20.713  -0.705  30.673  1.00  0.00     0.048 C 
HETATM   22  C9  UNK     1      19.340   1.370  30.914  1.00  0.00     0.036 A 
ENDBRANCH  14  16
ENDBRANCH   4  12
TORSDOF 2
ENDMDL
MODEL 7
REMARK VINA RESULT:      -8.7      8.181     10.159
REMARK  2 active torsions:
REMARK  status: ('A' for Active; 'I' for Inactive)
REMARK    1  A    between atoms: C5_9  and  N1_4 
REMARK       I    between atoms: C6_10  and  N1_4 
REMARK    2  A    between atoms: C2_6  and  C6_10 
ROOT
HETATM    1  O1  UNK     1      20.112  -7.681  35.654  1.00  0.00    -0.274 OA
HETATM    2  O3  UNK     1      20.219  -5.805  34.355  1.00  0.00    -0.259 OA
HETATM    3  C1  UNK     1      19.950  -7.460  38.070  1.00  0.00    -0.001 A 
HETATM    4  C2  UNK     1      20.061  -5.468  36.694  1.00  0.00     0.108 A 
HETATM    5  C3  UNK     1      20.020  -8.261  36.934  1.00  0.00     0.089 A 
HETATM    6  C4  UNK     1      19.974  -6.014  37.914  1.00  0.00     0.037 A 
HETATM    7  C8  UNK     1      19.859  -8.072  39.322  1.00  0.00     0.014 A 
HETATM    8  C10 UNK     1      20.137  -6.301  35.473  1.00  0.00     0.304 A 
HETATM    9  C11 UNK     1      20.003  -9.652  37.015  1.00  0.00     0.038 A 
HETATM   10  C14 UNK     1      19.840  -9.467  39.419  1.00  0.00     0.001 A 
HETATM   11  C15 UNK     1      19.912 -10.254  38.268  1.00  0.00     0.003 A 
ENDROOT
BRANCH   4  12
HETATM   12  C6  UNK     1      20.079  -4.001  36.641  1.00  0.00     0.262 C 
HETATM   13  O2  UNK     1      21.154  -3.411  36.557  1.00  0.00    -0.267 OA
HETATM   14  N1  UNK     1      18.799  -3.467  36.696  1.00  0.00    -0.323 N 
HETATM   15  H2  UNK     1      18.006  -4.096  36.787  1.00  0.00     0.169 HD
BRANCH  14  16
HETATM   16  C5  UNK     1      18.472  -2.108  36.665  1.00  0.00     0.035 A 
HETATM   17  C12 UNK     1      18.098  -1.457  37.839  1.00  0.00     0.029 A 
HETATM   18  C16 UNK     1      17.772  -0.103  37.810  1.00  0.00     0.003 A 
HETATM   19  C13 UNK     1      17.820   0.601  36.606  1.00  0.00     0.007 A 
HETATM   20  C7  UNK     1      18.194  -0.053  35.432  1.00  0.00    -0.060 A 
HETATM   21  C17 UNK     1      18.245   0.699  34.144  1.00  0.00     0.048 C 
HETATM   22  C9  UNK     1      18.521  -1.408  35.461  1.00  0.00     0.036 A 
ENDBRANCH  14  16
ENDBRANCH   4  12
TORSDOF 2
ENDMDL
MODEL 8
REMARK VINA RESULT:      -8.4      3.777      7.133
REMARK  2 active torsions:
REMARK  status: ('A' for Active; 'I' for Inactive)
REMARK    1  A    between atoms: C5_9  and  N1_4 
REMARK       I    between atoms: C6_10  and  N1_4 
REMARK    2  A    between atoms: C2_6  and  C6_10 
ROOT
HETATM    1  O1  UNK     1      19.006   2.543  30.676  1.00  0.00    -0.274 OA
HETATM    2  O3  UNK     1      18.811   0.375  31.370  1.00  0.00    -0.259 OA
HETATM    3  C1  UNK     1      18.336   4.344  32.165  1.00  0.00    -0.001 A 
HETATM    4  C2  UNK     1      18.129   2.046  32.904  1.00  0.00     0.108 A 
HETATM    5  C3  UNK     1      18.846   3.917  30.942  1.00  0.00     0.089 A 
HETATM    6  C4  UNK     1      17.973   3.350  33.162  1.00  0.00     0.037 A 
HETATM    7  C8  UNK     1      18.190   5.714  32.392  1.00  0.00     0.014 A 
HETATM    8  C10 UNK     1      18.668   1.569  31.611  1.00  0.00     0.304 A 
HETATM    9  C11 UNK     1      19.211   4.817  29.944  1.00  0.00     0.038 A 
HETATM   10  C14 UNK     1      18.554   6.631  31.400  1.00  0.00     0.001 A 
HETATM   11  C15 UNK     1      19.063   6.182  30.179  1.00  0.00     0.003 A 
ENDROOT
BRANCH   4  12
HETATM   12  C6  UNK     1      17.733   1.121  33.973  1.00  0.00     0.262 C 
HETATM   13  O2  UNK     1      16.541   0.894  34.168  1.00  0.00    -0.267 OA
HETATM   14  N1  UNK     1      18.834   0.609  34.646  1.00  0.00    -0.323 N 
HETATM   15  H2  UNK     1      19.765   0.916  34.374  1.00  0.00     0.169 HD
BRANCH  14  16
HETATM   16  C5  UNK     1      18.800  -0.296  35.712  1.00  0.00     0.035 A 
HETATM   17  C12 UNK     1      18.097   0.024  36.871  1.00  0.00     0.029 A 
HETATM   18  C16 UNK     1      18.063  -0.877  37.934  1.00  0.00     0.003 A 
HETATM   19  C13 UNK     1      18.732  -2.097  37.837  1.00  0.00     0.007 A 
HETATM   20  C7  UNK     1      19.435  -2.415  36.675  1.00  0.00    -0.060 A 
HETATM   21  C17 UNK     1      20.151  -3.720  36.570  1.00  0.00     0.048 C 
HETATM   22  C9  UNK     1      19.470  -1.514  35.611  1.00  0.00     0.036 A 
ENDBRANCH  14  16
ENDBRANCH   4  12
TORSDOF 2
ENDMDL
MODEL 9
REMARK VINA RESULT:      -8.3     13.638     16.294
REMARK  2 active torsions:
REMARK  status: ('A' for Active; 'I' for Inactive)
REMARK    1  A    between atoms: C5_9  and  N1_4 
REMARK       I    between atoms: C6_10  and  N1_4 
REMARK    2  A    between atoms: C2_6  and  C6_10 
ROOT
HETATM    1  O1  UNK     1      19.309  -2.809  13.089  1.00  0.00    -0.274 OA
HETATM    2  O3  UNK     1      19.415  -0.761  14.095  1.00  0.00    -0.259 OA
HETATM    3  C1  UNK     1      18.244  -4.662  14.248  1.00  0.00    -0.001 A 
HETATM    4  C2  UNK     1      18.354  -2.490  15.317  1.00  0.00     0.108 A 
HETATM    5  C3  UNK     1      18.908  -4.158  13.133  1.00  0.00     0.089 A 
HETATM    6  C4  UNK     1      17.971  -3.772  15.366  1.00  0.00     0.037 A 
HETATM    7  C8  UNK     1      17.863  -6.005  14.255  1.00  0.00     0.014 A 
HETATM    8  C10 UNK     1      19.061  -1.934  14.143  1.00  0.00     0.304 A 
HETATM    9  C11 UNK     1      19.200  -4.958  12.031  1.00  0.00     0.038 A 
HETATM   10  C14 UNK     1      18.149  -6.820  13.156  1.00  0.00     0.001 A 
HETATM   11  C15 UNK     1      18.817  -6.296  12.046  1.00  0.00     0.003 A 
ENDROOT
BRANCH   4  12
HETATM   12  C6  UNK     1      18.034  -1.673  16.494  1.00  0.00     0.262 C 
HETATM   13  O2  UNK     1      16.927  -1.775  17.019  1.00  0.00    -0.267 OA
HETATM   14  N1  UNK     1      19.095  -0.857  16.860  1.00  0.00    -0.323 N 
HETATM   15  H2  UNK     1      19.945  -0.874  16.303  1.00  0.00     0.169 HD
BRANCH  14  16
HETATM   16  C5  UNK     1      19.113   0.039  17.934  1.00  0.00     0.035 A 
HETATM   17  C12 UNK     1      18.934  -0.432  19.233  1.00  0.00     0.029 A 
HETATM   18  C16 UNK     1      18.952   0.460  20.304  1.00  0.00     0.003 A 
HETATM   19  C13 UNK     1      19.150   1.822  20.075  1.00  0.00     0.007 A 
HETATM   20  C7  UNK     1      19.329   2.291  18.773  1.00  0.00    -0.060 A 
HETATM   21  C17 UNK     1      19.540   3.747  18.528  1.00  0.00     0.048 C 
HETATM   22  C9  UNK     1      19.311   1.399  17.702  1.00  0.00     0.036 A 
ENDBRANCH  14  16
ENDBRANCH   4  12
TORSDOF 2
ENDMDL
MODEL 10
REMARK VINA RESULT:      -8.3      8.250     10.167
REMARK  2 active torsions:
REMARK  status: ('A' for Active; 'I' for Inactive)
REMARK    1  A    between atoms: C5_9  and  N1_4 
REMARK       I    between atoms: C6_10  and  N1_4 
REMARK    2  A    between atoms: C2_6  and  C6_10 
ROOT
HETATM    1  O1  UNK     1      18.986  -7.259  37.698  1.00  0.00    -0.274 OA
HETATM    2  O3  UNK     1      17.779  -5.837  36.379  1.00  0.00    -0.259 OA
HETATM    3  C1  UNK     1      21.176  -6.578  38.506  1.00  0.00    -0.001 A 
HETATM    4  C2  UNK     1      19.897  -5.068  37.108  1.00  0.00     0.108 A 
HETATM    5  C3  UNK     1      20.157  -7.523  38.436  1.00  0.00     0.089 A 
HETATM    6  C4  UNK     1      21.012  -5.314  37.806  1.00  0.00     0.037 A 
HETATM    7  C8  UNK     1      22.322  -6.877  39.246  1.00  0.00     0.014 A 
HETATM    8  C10 UNK     1      18.801  -6.058  37.019  1.00  0.00     0.304 A 
HETATM    9  C11 UNK     1      20.251  -8.754  39.081  1.00  0.00     0.038 A 
HETATM   10  C14 UNK     1      22.431  -8.108  39.900  1.00  0.00     0.001 A 
HETATM   11  C15 UNK     1      21.397  -9.044  39.817  1.00  0.00     0.003 A 
ENDROOT
BRANCH   4  12
HETATM   12  C6  UNK     1      19.827  -3.764  36.437  1.00  0.00     0.262 C 
HETATM   13  O2  UNK     1      20.693  -3.454  35.621  1.00  0.00    -0.267 OA
HETATM   14  N1  UNK     1      18.723  -3.030  36.849  1.00  0.00    -0.323 N 
HETATM   15  H2  UNK     1      18.106  -3.423  37.555  1.00  0.00     0.169 HD
BRANCH  14  16
HETATM   16  C5  UNK     1      18.369  -1.753  36.402  1.00  0.00     0.035 A 
HETATM   17  C12 UNK     1      18.424  -1.454  35.042  1.00  0.00     0.029 A 
HETATM   18  C16 UNK     1      18.071  -0.181  34.597  1.00  0.00     0.003 A 
HETATM   19  C13 UNK     1      17.665   0.791  35.510  1.00  0.00     0.007 A 
HETATM   20  C7  UNK     1      17.611   0.489  36.871  1.00  0.00    -0.060 A 
HETATM   21  C17 UNK     1      17.177   1.529  37.849  1.00  0.00     0.048 C 
HETATM   22  C9  UNK     1      17.964  -0.784  37.318  1.00  0.00     0.036 A 
ENDBRANCH  14  16
ENDBRANCH   4  12
TORSDOF 2
ENDMDL
