MODEL 1
REMARK VINA RESULT:      -9.4      0.000      0.000
REMARK  2 active torsions:
REMARK  status: ('A' for Active; 'I' for Inactive)
REMARK    1  A    between atoms: C17_20  and  O3_3 
REMARK    2  A    between atoms: C11_14  and  C6_9 
ROOT
HETATM    1  O1  UNK     1      18.145   3.968  31.174  1.00  0.00    -0.309 OA
HETATM    2  O2  UNK     1      18.695   1.202  34.100  1.00  0.00    -0.287 OA
HETATM    3  C1  UNK     1      18.815   1.680  31.750  1.00  0.00     0.059 A 
HETATM    4  C2  UNK     1      19.274   0.401  31.295  1.00  0.00    -0.009 A 
HETATM    5  C3  UNK     1      18.582   2.713  30.831  1.00  0.00     0.091 A 
HETATM    6  C4  UNK     1      19.477   0.226  29.897  1.00  0.00    -0.025 A 
HETATM    7  C5  UNK     1      18.554   1.999  33.183  1.00  0.00     0.188 A 
HETATM    8  C6  UNK     1      17.928   4.254  32.506  1.00  0.00     0.090 A 
HETATM    9  C7  UNK     1      18.788   2.513  29.469  1.00  0.00     0.039 A 
HETATM   10  C8  UNK     1      19.231   1.281  29.009  1.00  0.00     0.015 A 
HETATM   11  C9  UNK     1      19.555  -0.727  32.112  1.00  0.00     0.013 A 
HETATM   12  C10 UNK     1      18.097   3.368  33.495  1.00  0.00     0.093 A 
HETATM   13  C12 UNK     1      19.926  -1.001  29.382  1.00  0.00     0.012 A 
HETATM   14  C13 UNK     1      20.001  -1.943  31.584  1.00  0.00     0.001 A 
HETATM   15  C14 UNK     1      20.187  -2.080  30.219  1.00  0.00     0.001 A 
ENDROOT
BRANCH   8  16
HETATM   16  C11 UNK     1      17.462   5.632  32.760  1.00  0.00     0.001 A 
HETATM   17  C15 UNK     1      16.943   6.402  31.715  1.00  0.00     0.050 A 
HETATM   18  C17 UNK     1      16.504   7.704  31.955  1.00  0.00     0.066 A 
HETATM   19  C19 UNK     1      16.583   8.240  33.240  1.00  0.00     0.036 A 
HETATM   20  C18 UNK     1      17.101   7.476  34.286  1.00  0.00     0.004 A 
HETATM   21  C16 UNK     1      17.540   6.173  34.045  1.00  0.00     0.014 A 
BRANCH  18  22
HETATM   22  O3  UNK     1      15.999   8.450  30.935  1.00  0.00    -0.361 OA
HETATM   23  H12 UNK     1      15.142   8.077  30.667  1.00  0.00     0.217 HD
ENDBRANCH  18  22
ENDBRANCH   8  16
TORSDOF 2
ENDMDL
MODEL 2
REMARK VINA RESULT:      -9.2      0.946      2.302
REMARK  2 active torsions:
REMARK  status: ('A' for Active; 'I' for Inactive)
REMARK    1  A    between atoms: C17_20  and  O3_3 
REMARK    2  A    between atoms: C11_14  and  C6_9 
ROOT
HETATM    1  O1  UNK     1      17.860   3.515  33.026  1.00  0.00    -0.309 OA
HETATM    2  O2  UNK     1      19.209   2.947  29.236  1.00  0.00    -0.287 OA
HETATM    3  C1  UNK     1      18.795   1.954  31.382  1.00  0.00     0.059 A 
HETATM    4  C2  UNK     1      19.245   0.625  31.094  1.00  0.00    -0.009 A 
HETATM    5  C3  UNK     1      18.313   2.273  32.660  1.00  0.00     0.091 A 
HETATM    6  C4  UNK     1      19.188  -0.338  32.140  1.00  0.00    -0.025 A 
HETATM    7  C5  UNK     1      18.806   3.062  30.384  1.00  0.00     0.188 A 
HETATM    8  C6  UNK     1      17.857   4.525  32.086  1.00  0.00     0.090 A 
HETATM    9  C7  UNK     1      18.269   1.310  33.664  1.00  0.00     0.039 A 
HETATM   10  C8  UNK     1      18.703   0.018  33.404  1.00  0.00     0.015 A 
HETATM   11  C9  UNK     1      19.750   0.163  29.848  1.00  0.00     0.013 A 
HETATM   12  C10 UNK     1      18.295   4.374  30.830  1.00  0.00     0.093 A 
HETATM   13  C12 UNK     1      19.614  -1.660  31.927  1.00  0.00     0.012 A 
HETATM   14  C13 UNK     1      20.170  -1.156  29.652  1.00  0.00     0.001 A 
HETATM   15  C14 UNK     1      20.102  -2.068  30.691  1.00  0.00     0.001 A 
ENDROOT
BRANCH   8  16
HETATM   16  C11 UNK     1      17.347   5.816  32.588  1.00  0.00     0.001 A 
HETATM   17  C15 UNK     1      16.715   6.709  31.718  1.00  0.00     0.050 A 
HETATM   18  C17 UNK     1      16.234   7.930  32.193  1.00  0.00     0.066 A 
HETATM   19  C19 UNK     1      16.385   8.261  33.539  1.00  0.00     0.036 A 
HETATM   20  C18 UNK     1      17.016   7.374  34.411  1.00  0.00     0.004 A 
HETATM   21  C16 UNK     1      17.496   6.153  33.936  1.00  0.00     0.014 A 
BRANCH  18  22
HETATM   22  O3  UNK     1      15.618   8.796  31.343  1.00  0.00    -0.361 OA
HETATM   23  H12 UNK     1      14.666   8.598  31.328  1.00  0.00     0.217 HD
ENDBRANCH  18  22
ENDBRANCH   8  16
TORSDOF 2
ENDMDL
MODEL 3
REMARK VINA RESULT:      -8.9      1.676      7.272
REMARK  2 active torsions:
REMARK  status: ('A' for Active; 'I' for Inactive)
REMARK    1  A    between atoms: C17_20  and  O3_3 
REMARK    2  A    between atoms: C11_14  and  C6_9 
ROOT
HETATM    1  O1  UNK     1      19.126   2.937  30.432  1.00  0.00    -0.309 OA
HETATM    2  O2  UNK     1      17.754   2.994  34.256  1.00  0.00    -0.287 OA
HETATM    3  C1  UNK     1      18.244   4.277  32.287  1.00  0.00     0.059 A 
HETATM    4  C2  UNK     1      17.864   5.570  32.774  1.00  0.00    -0.009 A 
HETATM    5  C3  UNK     1      18.741   4.133  30.983  1.00  0.00     0.091 A 
HETATM    6  C4  UNK     1      18.012   6.681  31.897  1.00  0.00    -0.025 A 
HETATM    7  C5  UNK     1      18.150   3.031  33.100  1.00  0.00     0.188 A 
HETATM    8  C6  UNK     1      19.013   1.790  31.189  1.00  0.00     0.090 A 
HETATM    9  C7  UNK     1      18.874   5.238  30.147  1.00  0.00     0.039 A 
HETATM   10  C8  UNK     1      18.513   6.498  30.602  1.00  0.00     0.015 A 
HETATM   11  C9  UNK     1      17.345   5.859  34.065  1.00  0.00     0.013 A 
HETATM   12  C10 UNK     1      18.568   1.771  32.451  1.00  0.00     0.093 A 
HETATM   13  C12 UNK     1      17.659   7.976  32.308  1.00  0.00     0.012 A 
HETATM   14  C13 UNK     1      16.998   7.155  34.460  1.00  0.00     0.001 A 
HETATM   15  C14 UNK     1      17.155   8.214  33.582  1.00  0.00     0.001 A 
ENDROOT
BRANCH   8  16
HETATM   16  C11 UNK     1      19.454   0.563  30.496  1.00  0.00     0.001 A 
HETATM   17  C15 UNK     1      19.892  -0.541  31.231  1.00  0.00     0.050 A 
HETATM   18  C17 UNK     1      20.310  -1.700  30.575  1.00  0.00     0.066 A 
HETATM   19  C19 UNK     1      20.291  -1.757  29.182  1.00  0.00     0.036 A 
HETATM   20  C18 UNK     1      19.855  -0.657  28.444  1.00  0.00     0.004 A 
HETATM   21  C16 UNK     1      19.437   0.501  29.100  1.00  0.00     0.014 A 
BRANCH  18  22
HETATM   22  O3  UNK     1      20.736  -2.773  31.295  1.00  0.00    -0.361 OA
HETATM   23  H12 UNK     1      20.803  -3.542  30.704  1.00  0.00     0.217 HD
ENDBRANCH  18  22
ENDBRANCH   8  16
TORSDOF 2
ENDMDL
MODEL 4
REMARK VINA RESULT:      -8.6      6.812      9.607
REMARK  2 active torsions:
REMARK  status: ('A' for Active; 'I' for Inactive)
REMARK    1  A    between atoms: C17_20  and  O3_3 
REMARK    2  A    between atoms: C11_14  and  C6_9 
ROOT
HETATM    1  O1  UNK     1      18.620  -4.398  36.514  1.00  0.00    -0.309 OA
HETATM    2  O2  UNK     1      22.366  -5.182  37.879  1.00  0.00    -0.287 OA
HETATM    3  C1  UNK     1      20.311  -6.095  37.038  1.00  0.00     0.059 A 
HETATM    4  C2  UNK     1      20.660  -7.484  37.082  1.00  0.00    -0.009 A 
HETATM    5  C3  UNK     1      19.041  -5.701  36.592  1.00  0.00     0.091 A 
HETATM    6  C4  UNK     1      19.682  -8.429  36.664  1.00  0.00    -0.025 A 
HETATM    7  C5  UNK     1      21.235  -5.000  37.453  1.00  0.00     0.188 A 
HETATM    8  C6  UNK     1      19.494  -3.395  36.882  1.00  0.00     0.090 A 
HETATM    9  C7  UNK     1      18.104  -6.648  36.190  1.00  0.00     0.039 A 
HETATM   10  C8  UNK     1      18.423  -7.998  36.226  1.00  0.00     0.015 A 
HETATM   11  C9  UNK     1      21.906  -8.021  37.504  1.00  0.00     0.013 A 
HETATM   12  C10 UNK     1      20.732  -3.616  37.337  1.00  0.00     0.093 A 
HETATM   13  C12 UNK     1      19.957  -9.806  36.681  1.00  0.00     0.012 A 
HETATM   14  C13 UNK     1      22.165  -9.396  37.515  1.00  0.00     0.001 A 
HETATM   15  C14 UNK     1      21.191 -10.289  37.103  1.00  0.00     0.001 A 
ENDROOT
BRANCH   8  16
HETATM   16  C11 UNK     1      18.937  -2.033  36.756  1.00  0.00     0.001 A 
HETATM   17  C15 UNK     1      19.134  -1.298  35.584  1.00  0.00     0.050 A 
HETATM   18  C17 UNK     1      18.609  -0.011  35.467  1.00  0.00     0.066 A 
HETATM   19  C19 UNK     1      17.884   0.544  36.522  1.00  0.00     0.036 A 
HETATM   20  C18 UNK     1      17.686  -0.185  37.693  1.00  0.00     0.004 A 
HETATM   21  C16 UNK     1      18.211  -1.472  37.810  1.00  0.00     0.014 A 
BRANCH  18  22
HETATM   22  O3  UNK     1      18.803   0.702  34.324  1.00  0.00    -0.361 OA
HETATM   23  H12 UNK     1      19.560   1.299  34.450  1.00  0.00     0.217 HD
ENDBRANCH  18  22
ENDBRANCH   8  16
TORSDOF 2
ENDMDL
MODEL 5
REMARK VINA RESULT:      -8.5      4.666      7.129
REMARK  2 active torsions:
REMARK  status: ('A' for Active; 'I' for Inactive)
REMARK    1  A    between atoms: C17_20  and  O3_3 
REMARK    2  A    between atoms: C11_14  and  C6_9 
ROOT
HETATM    1  O1  UNK     1      16.613   9.422  34.588  1.00  0.00    -0.309 OA
HETATM    2  O2  UNK     1      15.711   8.046  30.873  1.00  0.00    -0.287 OA
HETATM    3  C1  UNK     1      17.314   8.079  32.659  1.00  0.00     0.059 A 
HETATM    4  C2  UNK     1      18.317   7.247  32.063  1.00  0.00    -0.009 A 
HETATM    5  C3  UNK     1      17.516   8.619  33.938  1.00  0.00     0.091 A 
HETATM    6  C4  UNK     1      19.505   7.001  32.806  1.00  0.00    -0.025 A 
HETATM    7  C5  UNK     1      16.027   8.425  31.991  1.00  0.00     0.188 A 
HETATM    8  C6  UNK     1      15.417   9.716  33.965  1.00  0.00     0.090 A 
HETATM    9  C7  UNK     1      18.689   8.361  34.641  1.00  0.00     0.039 A 
HETATM   10  C8  UNK     1      19.673   7.560  34.079  1.00  0.00     0.015 A 
HETATM   11  C9  UNK     1      18.243   6.633  30.784  1.00  0.00     0.013 A 
HETATM   12  C10 UNK     1      15.088   9.283  32.743  1.00  0.00     0.093 A 
HETATM   13  C12 UNK     1      20.530   6.196  32.282  1.00  0.00     0.012 A 
HETATM   14  C13 UNK     1      19.271   5.833  30.275  1.00  0.00     0.001 A 
HETATM   15  C14 UNK     1      20.415   5.614  31.024  1.00  0.00     0.001 A 
ENDROOT
BRANCH   8  16
HETATM   16  C11 UNK     1      14.522  10.585  34.756  1.00  0.00     0.001 A 
HETATM   17  C15 UNK     1      14.695  10.699  36.138  1.00  0.00     0.050 A 
HETATM   18  C17 UNK     1      13.848  11.519  36.885  1.00  0.00     0.066 A 
HETATM   19  C19 UNK     1      12.826  12.226  36.251  1.00  0.00     0.036 A 
HETATM   20  C18 UNK     1      12.650  12.114  34.872  1.00  0.00     0.004 A 
HETATM   21  C16 UNK     1      13.497  11.295  34.126  1.00  0.00     0.014 A 
BRANCH  18  22
HETATM   22  O3  UNK     1      14.019  11.628  38.230  1.00  0.00    -0.361 OA
HETATM   23  H12 UNK     1      14.195  10.745  38.598  1.00  0.00     0.217 HD
ENDBRANCH  18  22
ENDBRANCH   8  16
TORSDOF 2
ENDMDL
MODEL 6
REMARK VINA RESULT:      -8.5     13.048     15.288
REMARK  2 active torsions:
REMARK  status: ('A' for Active; 'I' for Inactive)
REMARK    1  A    between atoms: C17_20  and  O3_3 
REMARK    2  A    between atoms: C11_14  and  C6_9 
ROOT
HETATM    1  O1  UNK     1      24.681  -8.324  38.863  1.00  0.00    -0.309 OA
HETATM    2  O2  UNK     1      26.327  -4.610  38.943  1.00  0.00    -0.287 OA
HETATM    3  C1  UNK     1      26.721  -6.968  38.729  1.00  0.00     0.059 A 
HETATM    4  C2  UNK     1      28.145  -6.934  38.575  1.00  0.00    -0.009 A 
HETATM    5  C3  UNK     1      26.041  -8.195  38.725  1.00  0.00     0.091 A 
HETATM    6  C4  UNK     1      28.827  -8.174  38.425  1.00  0.00    -0.025 A 
HETATM    7  C5  UNK     1      25.882  -5.748  38.903  1.00  0.00     0.188 A 
HETATM    8  C6  UNK     1      23.917  -7.184  39.001  1.00  0.00     0.090 A 
HETATM    9  C7  UNK     1      26.734  -9.392  38.576  1.00  0.00     0.039 A 
HETATM   10  C8  UNK     1      28.114  -9.379  38.428  1.00  0.00     0.015 A 
HETATM   11  C9  UNK     1      28.958  -5.769  38.556  1.00  0.00     0.013 A 
HETATM   12  C10 UNK     1      24.424  -5.946  39.034  1.00  0.00     0.093 A 
HETATM   13  C12 UNK     1      30.223  -8.215  38.271  1.00  0.00     0.012 A 
HETATM   14  C13 UNK     1      30.347  -5.826  38.401  1.00  0.00     0.001 A 
HETATM   15  C14 UNK     1      30.980  -7.048  38.258  1.00  0.00     0.001 A 
ENDROOT
BRANCH   8  16
HETATM   16  C11 UNK     1      22.469  -7.441  39.140  1.00  0.00     0.001 A 
HETATM   17  C15 UNK     1      22.002  -8.744  39.329  1.00  0.00     0.050 A 
HETATM   18  C17 UNK     1      20.634  -8.987  39.458  1.00  0.00     0.066 A 
HETATM   19  C19 UNK     1      19.730  -7.926  39.399  1.00  0.00     0.036 A 
HETATM   20  C18 UNK     1      20.192  -6.624  39.209  1.00  0.00     0.004 A 
HETATM   21  C16 UNK     1      21.560  -6.382  39.080  1.00  0.00     0.014 A 
BRANCH  18  22
HETATM   22  O3  UNK     1      20.183 -10.257  39.644  1.00  0.00    -0.361 OA
HETATM   23  H12 UNK     1      20.897 -10.879  39.424  1.00  0.00     0.217 HD
ENDBRANCH  18  22
ENDBRANCH   8  16
TORSDOF 2
ENDMDL
MODEL 7
REMARK VINA RESULT:      -8.3     13.498     16.317
REMARK  2 active torsions:
REMARK  status: ('A' for Active; 'I' for Inactive)
REMARK    1  A    between atoms: C17_20  and  O3_3 
REMARK    2  A    between atoms: C11_14  and  C6_9 
ROOT
HETATM    1  O1  UNK     1      20.420  -2.016  17.461  1.00  0.00    -0.309 OA
HETATM    2  O2  UNK     1      17.379  -2.771  14.875  1.00  0.00    -0.287 OA
HETATM    3  C1  UNK     1      19.519  -3.473  15.706  1.00  0.00     0.059 A 
HETATM    4  C2  UNK     1      19.698  -4.633  14.884  1.00  0.00    -0.009 A 
HETATM    5  C3  UNK     1      20.506  -3.107  16.633  1.00  0.00     0.091 A 
HETATM    6  C4  UNK     1      20.897  -5.381  15.043  1.00  0.00    -0.025 A 
HETATM    7  C5  UNK     1      18.316  -2.594  15.640  1.00  0.00     0.188 A 
HETATM    8  C6  UNK     1      19.291  -1.225  17.403  1.00  0.00     0.090 A 
HETATM    9  C7  UNK     1      21.670  -3.858  16.766  1.00  0.00     0.039 A 
HETATM   10  C8  UNK     1      21.862  -4.984  15.977  1.00  0.00     0.015 A 
HETATM   11  C9  UNK     1      18.782  -5.120  13.913  1.00  0.00     0.013 A 
HETATM   12  C10 UNK     1      18.272  -1.442  16.563  1.00  0.00     0.093 A 
HETATM   13  C12 UNK     1      21.139  -6.529  14.270  1.00  0.00     0.012 A 
HETATM   14  C13 UNK     1      19.036  -6.265  13.151  1.00  0.00     0.001 A 
HETATM   15  C14 UNK     1      20.214  -6.970  13.329  1.00  0.00     0.001 A 
ENDROOT
BRANCH   8  16
HETATM   16  C11 UNK     1      19.306  -0.083  18.339  1.00  0.00     0.001 A 
HETATM   17  C15 UNK     1      19.562  -0.290  19.697  1.00  0.00     0.050 A 
HETATM   18  C17 UNK     1      19.574   0.790  20.581  1.00  0.00     0.066 A 
HETATM   19  C19 UNK     1      19.330   2.079  20.108  1.00  0.00     0.036 A 
HETATM   20  C18 UNK     1      19.072   2.290  18.754  1.00  0.00     0.004 A 
HETATM   21  C16 UNK     1      19.060   1.211  17.871  1.00  0.00     0.014 A 
BRANCH  18  22
HETATM   22  O3  UNK     1      19.826   0.584  21.902  1.00  0.00    -0.361 OA
HETATM   23  H12 UNK     1      18.985   0.406  22.358  1.00  0.00     0.217 HD
ENDBRANCH  18  22
ENDBRANCH   8  16
TORSDOF 2
ENDMDL
MODEL 8
REMARK VINA RESULT:      -8.3      1.947      8.072
REMARK  2 active torsions:
REMARK  status: ('A' for Active; 'I' for Inactive)
REMARK    1  A    between atoms: C17_20  and  O3_3 
REMARK    2  A    between atoms: C11_14  and  C6_9 
ROOT
HETATM    1  O1  UNK     1      16.902   5.408  31.921  1.00  0.00    -0.309 OA
HETATM    2  O2  UNK     1      19.807   7.795  33.461  1.00  0.00    -0.287 OA
HETATM    3  C1  UNK     1      17.480   7.576  32.912  1.00  0.00     0.059 A 
HETATM    4  C2  UNK     1      17.036   8.869  33.340  1.00  0.00    -0.009 A 
HETATM    5  C3  UNK     1      16.569   6.666  32.355  1.00  0.00     0.091 A 
HETATM    6  C4  UNK     1      15.659   9.187  33.177  1.00  0.00    -0.025 A 
HETATM    7  C5  UNK     1      18.894   7.114  33.015  1.00  0.00     0.188 A 
HETATM    8  C6  UNK     1      18.210   4.988  32.043  1.00  0.00     0.090 A 
HETATM    9  C7  UNK     1      15.227   7.005  32.209  1.00  0.00     0.039 A 
HETATM   10  C8  UNK     1      14.778   8.254  32.616  1.00  0.00     0.015 A 
HETATM   11  C9  UNK     1      17.846   9.882  33.922  1.00  0.00     0.013 A 
HETATM   12  C10 UNK     1      19.192   5.747  32.543  1.00  0.00     0.093 A 
HETATM   13  C12 UNK     1      15.155  10.436  33.575  1.00  0.00     0.012 A 
HETATM   14  C13 UNK     1      17.330  11.121  34.313  1.00  0.00     0.001 A 
HETATM   15  C14 UNK     1      15.984  11.399  34.141  1.00  0.00     0.001 A 
ENDROOT
BRANCH   8  16
HETATM   16  C11 UNK     1      18.453   3.619  31.546  1.00  0.00     0.001 A 
HETATM   17  C15 UNK     1      18.463   2.540  32.434  1.00  0.00     0.050 A 
HETATM   18  C17 UNK     1      18.694   1.247  31.964  1.00  0.00     0.066 A 
HETATM   19  C19 UNK     1      18.916   1.030  30.604  1.00  0.00     0.036 A 
HETATM   20  C18 UNK     1      18.909   2.104  29.714  1.00  0.00     0.004 A 
HETATM   21  C16 UNK     1      18.677   3.396  30.185  1.00  0.00     0.014 A 
BRANCH  18  22
HETATM   22  O3  UNK     1      18.702   0.199  32.831  1.00  0.00    -0.361 OA
HETATM   23  H12 UNK     1      19.618  -0.112  32.941  1.00  0.00     0.217 HD
ENDBRANCH  18  22
ENDBRANCH   8  16
TORSDOF 2
ENDMDL
MODEL 9
REMARK VINA RESULT:      -8.1     13.978     15.628
REMARK  2 active torsions:
REMARK  status: ('A' for Active; 'I' for Inactive)
REMARK    1  A    between atoms: C17_20  and  O3_3 
REMARK    2  A    between atoms: C11_14  and  C6_9 
ROOT
HETATM    1  O1  UNK     1      25.711  -6.417  38.622  1.00  0.00    -0.309 OA
HETATM    2  O2  UNK     1      28.286  -9.537  38.237  1.00  0.00    -0.287 OA
HETATM    3  C1  UNK     1      28.043  -7.159  38.462  1.00  0.00     0.059 A 
HETATM    4  C2  UNK     1      29.430  -6.799  38.433  1.00  0.00    -0.009 A 
HETATM    5  C3  UNK     1      27.060  -6.167  38.583  1.00  0.00     0.091 A 
HETATM    6  C4  UNK     1      29.760  -5.418  38.529  1.00  0.00    -0.025 A 
HETATM    7  C5  UNK     1      27.556  -8.564  38.363  1.00  0.00     0.188 A 
HETATM    8  C6  UNK     1      25.277  -7.725  38.551  1.00  0.00     0.090 A 
HETATM    9  C7  UNK     1      27.412  -4.824  38.675  1.00  0.00     0.039 A 
HETATM   10  C8  UNK     1      28.750  -4.455  38.647  1.00  0.00     0.015 A 
HETATM   11  C9  UNK     1      30.526  -7.696  38.320  1.00  0.00     0.013 A 
HETATM   12  C10 UNK     1      26.095  -8.776  38.422  1.00  0.00     0.093 A 
HETATM   13  C12 UNK     1      31.099  -4.993  38.508  1.00  0.00     0.012 A 
HETATM   14  C13 UNK     1      31.854  -7.258  38.300  1.00  0.00     0.001 A 
HETATM   15  C14 UNK     1      32.141  -5.907  38.394  1.00  0.00     0.001 A 
ENDROOT
BRANCH   8  16
HETATM   16  C11 UNK     1      23.808  -7.877  38.603  1.00  0.00     0.001 A 
HETATM   17  C15 UNK     1      23.144  -8.626  37.628  1.00  0.00     0.050 A 
HETATM   18  C17 UNK     1      21.757  -8.768  37.677  1.00  0.00     0.066 A 
HETATM   19  C19 UNK     1      21.031  -8.160  38.701  1.00  0.00     0.036 A 
HETATM   20  C18 UNK     1      21.690  -7.410  39.675  1.00  0.00     0.004 A 
HETATM   21  C16 UNK     1      23.076  -7.269  39.626  1.00  0.00     0.014 A 
BRANCH  18  22
HETATM   22  O3  UNK     1      21.114  -9.500  36.727  1.00  0.00    -0.361 OA
HETATM   23  H12 UNK     1      20.655 -10.241  37.158  1.00  0.00     0.217 HD
ENDBRANCH  18  22
ENDBRANCH   8  16
TORSDOF 2
ENDMDL
MODEL 10
REMARK VINA RESULT:      -8.1      3.156      9.369
REMARK  2 active torsions:
REMARK  status: ('A' for Active; 'I' for Inactive)
REMARK    1  A    between atoms: C17_20  and  O3_3 
REMARK    2  A    between atoms: C11_14  and  C6_9 
ROOT
HETATM    1  O1  UNK     1      18.103   8.441  32.935  1.00  0.00    -0.309 OA
HETATM    2  O2  UNK     1      14.238   8.410  34.187  1.00  0.00    -0.287 OA
HETATM    3  C1  UNK     1      16.294   9.644  34.073  1.00  0.00     0.059 A 
HETATM    4  C2  UNK     1      15.870  10.831  34.755  1.00  0.00    -0.009 A 
HETATM    5  C3  UNK     1      17.610   9.535  33.600  1.00  0.00     0.091 A 
HETATM    6  C4  UNK     1      16.823  11.872  34.933  1.00  0.00    -0.025 A 
HETATM    7  C5  UNK     1      15.403   8.475  33.824  1.00  0.00     0.188 A 
HETATM    8  C6  UNK     1      17.260   7.375  32.694  1.00  0.00     0.090 A 
HETATM    9  C7  UNK     1      18.521  10.570  33.788  1.00  0.00     0.039 A 
HETATM   10  C8  UNK     1      18.129  11.726  34.449  1.00  0.00     0.015 A 
HETATM   11  C9  UNK     1      14.572  11.077  35.279  1.00  0.00     0.013 A 
HETATM   12  C10 UNK     1      15.984   7.330  33.093  1.00  0.00     0.093 A 
HETATM   13  C12 UNK     1      16.476  13.062  35.594  1.00  0.00     0.012 A 
HETATM   14  C13 UNK     1      14.241  12.267  35.935  1.00  0.00     0.001 A 
HETATM   15  C14 UNK     1      15.193  13.260  36.092  1.00  0.00     0.001 A 
ENDROOT
BRANCH   8  16
HETATM   16  C11 UNK     1      17.895   6.256  31.970  1.00  0.00     0.001 A 
HETATM   17  C15 UNK     1      17.591   4.935  32.311  1.00  0.00     0.050 A 
HETATM   18  C17 UNK     1      18.192   3.878  31.628  1.00  0.00     0.066 A 
HETATM   19  C19 UNK     1      19.100   4.139  30.602  1.00  0.00     0.036 A 
HETATM   20  C18 UNK     1      19.408   5.455  30.258  1.00  0.00     0.004 A 
HETATM   21  C16 UNK     1      18.806   6.512  30.942  1.00  0.00     0.014 A 
BRANCH  18  22
HETATM   22  O3  UNK     1      17.893   2.593  31.963  1.00  0.00    -0.361 OA
HETATM   23  H12 UNK     1      18.037   2.024  31.187  1.00  0.00     0.217 HD
ENDBRANCH  18  22
ENDBRANCH   8  16
TORSDOF 2
ENDMDL
