MODEL 1
REMARK VINA RESULT:      -9.6      0.000      0.000
REMARK  5 active torsions:
REMARK  status: ('A' for Active; 'I' for Inactive)
REMARK    1  A    between atoms: C17_24  and  O2_4 
REMARK    2  A    between atoms: C23_30  and  O2_4 
REMARK    3  A    between atoms: C5_12  and  N1_7 
REMARK    4  A    between atoms: C1_8  and  C2_9 
REMARK    5  A    between atoms: C12_19  and  C15_22 
ROOT
HETATM    1  C2  UNK     1      18.604   3.648  30.831  1.00  0.00    -0.020 A 
HETATM    2  C5  UNK     1      17.978   6.239  31.653  1.00  0.00     0.031 A 
HETATM    3  C7  UNK     1      19.042   4.741  30.083  1.00  0.00     0.014 A 
HETATM    4  C8  UNK     1      17.854   3.849  31.990  1.00  0.00     0.014 A 
HETATM    5  C9  UNK     1      18.729   6.037  30.494  1.00  0.00     0.030 A 
HETATM    6  C10 UNK     1      17.540   5.145  32.400  1.00  0.00     0.030 A 
ENDROOT
BRANCH   2   7
HETATM    7  N1  UNK     1      17.661   7.548  32.068  1.00  0.00    -0.365 N 
HETATM    8  C15 UNK     1      16.936   7.941  33.139  1.00  0.00     0.105 C 
HETATM    9  H6  UNK     1      18.038   8.273  31.471  1.00  0.00     0.165 HD
BRANCH   8  10
HETATM   10  C12 UNK     1      16.644   9.187  33.520  1.00  0.00     0.051 A 
HETATM   11  C16 UNK     1      17.842  10.036  33.858  1.00  0.00     0.218 A 
HETATM   12  O4  UNK     1      18.999   9.632  33.790  1.00  0.00    -0.284 OA
HETATM   13  C17 UNK     1      17.564  11.429  34.292  1.00  0.00     0.121 A 
HETATM   14  C21 UNK     1      16.305  11.871  34.364  1.00  0.00     0.061 A 
HETATM   15  C22 UNK     1      15.152  11.053  34.034  1.00  0.00     0.032 A 
HETATM   16 Br2  UNK     1      13.498  11.933  34.222  1.00  0.00    -0.050 Br
HETATM   17  C20 UNK     1      15.300   9.771  33.630  1.00  0.00     0.044 A 
HETATM   18 Br1  UNK     1      13.814   8.687  33.193  1.00  0.00    -0.049 Br
BRANCH  13  19
HETATM   19  O2  UNK     1      18.627  12.246  34.615  1.00  0.00    -0.347 OA
BRANCH  19  20
HETATM   20  C23 UNK     1      18.309  13.603  34.377  1.00  0.00     0.171 C 
HETATM   21  C24 UNK     1      18.807  13.992  33.001  1.00  0.00     0.034 C 
ENDBRANCH  19  20
ENDBRANCH  13  19
ENDBRANCH   8  10
ENDBRANCH   2   7
BRANCH   1  22
HETATM   22  C1  UNK     1      18.936   2.279  30.396  1.00  0.00     0.051 A 
HETATM   23  C11 UNK     1      18.661   1.846  28.998  1.00  0.00     0.299 A 
HETATM   24  O1  UNK     1      19.030   0.548  28.655  1.00  0.00    -0.274 OA
HETATM   25  O3  UNK     1      18.130   2.589  28.179  1.00  0.00    -0.259 OA
HETATM   26  C6  UNK     1      19.618  -0.331  29.583  1.00  0.00     0.089 A 
HETATM   27  C14 UNK     1      19.940  -1.615  29.147  1.00  0.00     0.038 A 
HETATM   28  C3  UNK     1      19.861   0.082  30.888  1.00  0.00    -0.001 A 
HETATM   29  C19 UNK     1      20.523  -2.507  30.045  1.00  0.00     0.003 A 
HETATM   30  C18 UNK     1      20.775  -2.110  31.360  1.00  0.00     0.001 A 
HETATM   31  C13 UNK     1      20.446  -0.819  31.782  1.00  0.00     0.014 A 
HETATM   32  C4  UNK     1      19.502   1.436  31.273  1.00  0.00     0.032 A 
ENDBRANCH   1  22
TORSDOF 5
ENDMDL
MODEL 2
REMARK VINA RESULT:      -9.6      2.059      2.730
REMARK  5 active torsions:
REMARK  status: ('A' for Active; 'I' for Inactive)
REMARK    1  A    between atoms: C17_24  and  O2_4 
REMARK    2  A    between atoms: C23_30  and  O2_4 
REMARK    3  A    between atoms: C5_12  and  N1_7 
REMARK    4  A    between atoms: C1_8  and  C2_9 
REMARK    5  A    between atoms: C12_19  and  C15_22 
ROOT
HETATM    1  C2  UNK     1      18.586   3.685  30.788  1.00  0.00    -0.020 A 
HETATM    2  C5  UNK     1      17.963   6.278  31.605  1.00  0.00     0.031 A 
HETATM    3  C7  UNK     1      17.821   3.889  31.937  1.00  0.00     0.014 A 
HETATM    4  C8  UNK     1      19.038   4.776  30.047  1.00  0.00     0.014 A 
HETATM    5  C9  UNK     1      17.510   5.185  32.345  1.00  0.00     0.030 A 
HETATM    6  C10 UNK     1      18.727   6.073  30.456  1.00  0.00     0.030 A 
ENDROOT
BRANCH   2   7
HETATM    7  N1  UNK     1      17.648   7.589  32.017  1.00  0.00    -0.365 N 
HETATM    8  C15 UNK     1      16.918   7.986  33.082  1.00  0.00     0.105 C 
HETATM    9  H6  UNK     1      18.030   8.312  31.421  1.00  0.00     0.165 HD
BRANCH   8  10
HETATM   10  C12 UNK     1      16.629   9.233  33.460  1.00  0.00     0.051 A 
HETATM   11  C16 UNK     1      15.179   9.614  33.311  1.00  0.00     0.218 A 
HETATM   12  O4  UNK     1      14.319   8.849  32.883  1.00  0.00    -0.284 OA
HETATM   13  C17 UNK     1      14.812  10.995  33.715  1.00  0.00     0.121 A 
HETATM   14  C21 UNK     1      15.748  11.828  34.183  1.00  0.00     0.061 A 
HETATM   15  C22 UNK     1      17.144  11.459  34.330  1.00  0.00     0.032 A 
HETATM   16 Br2  UNK     1      18.239  12.827  35.017  1.00  0.00    -0.050 Br
HETATM   17  C20 UNK     1      17.578  10.224  33.989  1.00  0.00     0.044 A 
HETATM   18 Br1  UNK     1      19.391   9.719  34.172  1.00  0.00    -0.049 Br
BRANCH  13  19
HETATM   19  O2  UNK     1      13.498  11.393  33.596  1.00  0.00    -0.347 OA
BRANCH  19  20
HETATM   20  C23 UNK     1      13.345  12.312  32.531  1.00  0.00     0.171 C 
HETATM   21  C24 UNK     1      12.243  13.291  32.880  1.00  0.00     0.034 C 
ENDBRANCH  19  20
ENDBRANCH  13  19
ENDBRANCH   8  10
ENDBRANCH   2   7
BRANCH   1  22
HETATM   22  C1  UNK     1      18.915   2.313  30.357  1.00  0.00     0.051 A 
HETATM   23  C11 UNK     1      18.611   1.869  28.969  1.00  0.00     0.299 A 
HETATM   24  O1  UNK     1      18.978   0.569  28.628  1.00  0.00    -0.274 OA
HETATM   25  O3  UNK     1      18.058   2.602  28.155  1.00  0.00    -0.259 OA
HETATM   26  C6  UNK     1      19.590  -0.299  29.550  1.00  0.00     0.089 A 
HETATM   27  C14 UNK     1      19.909  -1.586  29.116  1.00  0.00     0.038 A 
HETATM   28  C3  UNK     1      19.861   0.125  30.845  1.00  0.00    -0.001 A 
HETATM   29  C19 UNK     1      20.515  -2.467  30.009  1.00  0.00     0.003 A 
HETATM   30  C18 UNK     1      20.795  -2.059  31.314  1.00  0.00     0.001 A 
HETATM   31  C13 UNK     1      20.470  -0.766  31.733  1.00  0.00     0.014 A 
HETATM   32  C4  UNK     1      19.504   1.481  31.227  1.00  0.00     0.032 A 
ENDBRANCH   1  22
TORSDOF 5
ENDMDL
MODEL 3
REMARK VINA RESULT:      -9.2     23.163     24.461
REMARK  5 active torsions:
REMARK  status: ('A' for Active; 'I' for Inactive)
REMARK    1  A    between atoms: C17_24  and  O2_4 
REMARK    2  A    between atoms: C23_30  and  O2_4 
REMARK    3  A    between atoms: C5_12  and  N1_7 
REMARK    4  A    between atoms: C1_8  and  C2_9 
REMARK    5  A    between atoms: C12_19  and  C15_22 
ROOT
HETATM    1  C2  UNK     1      14.729   8.888   8.907  1.00  0.00    -0.020 A 
HETATM    2  C5  UNK     1      17.234  10.095   9.124  1.00  0.00     0.031 A 
HETATM    3  C7  UNK     1      14.960  10.125   8.307  1.00  0.00     0.014 A 
HETATM    4  C8  UNK     1      15.749   8.253   9.615  1.00  0.00     0.014 A 
HETATM    5  C9  UNK     1      16.213  10.728   8.415  1.00  0.00     0.030 A 
HETATM    6  C10 UNK     1      17.002   8.857   9.724  1.00  0.00     0.030 A 
ENDROOT
BRANCH   2   7
HETATM    7  N1  UNK     1      18.500  10.704   9.234  1.00  0.00    -0.365 N 
HETATM    8  C15 UNK     1      18.867  11.956   8.883  1.00  0.00     0.105 C 
HETATM    9  H6  UNK     1      19.213  10.105   9.630  1.00  0.00     0.165 HD
BRANCH   8  10
HETATM   10  C12 UNK     1      20.072  12.520   8.994  1.00  0.00     0.051 A 
HETATM   11  C16 UNK     1      20.906  11.997  10.135  1.00  0.00     0.218 A 
HETATM   12  O4  UNK     1      20.526  11.122  10.907  1.00  0.00    -0.284 OA
HETATM   13  C17 UNK     1      22.254  12.600  10.299  1.00  0.00     0.121 A 
HETATM   14  C21 UNK     1      22.670  13.552   9.458  1.00  0.00     0.061 A 
HETATM   15  C22 UNK     1      21.867  14.051   8.357  1.00  0.00     0.032 A 
HETATM   16 Br2  UNK     1      22.705  15.390   7.331  1.00  0.00    -0.050 Br
HETATM   17  C20 UNK     1      20.626  13.568   8.124  1.00  0.00     0.044 A 
HETATM   18 Br1  UNK     1      19.561  14.201   6.696  1.00  0.00    -0.049 Br
BRANCH  13  19
HETATM   19  O2  UNK     1      23.056  12.157  11.329  1.00  0.00    -0.347 OA
BRANCH  19  20
HETATM   20  C23 UNK     1      24.371  12.661  11.196  1.00  0.00     0.171 C 
HETATM   21  C24 UNK     1      25.337  11.498  11.099  1.00  0.00     0.034 C 
ENDBRANCH  19  20
ENDBRANCH  13  19
ENDBRANCH   8  10
ENDBRANCH   2   7
BRANCH   1  22
HETATM   22  C1  UNK     1      13.404   8.250   8.792  1.00  0.00     0.051 A 
HETATM   23  C11 UNK     1      12.547   8.074   9.997  1.00  0.00     0.299 A 
HETATM   24  O1  UNK     1      11.297   7.490   9.802  1.00  0.00    -0.274 OA
HETATM   25  O3  UNK     1      12.916   8.418  11.115  1.00  0.00    -0.259 OA
HETATM   26  C6  UNK     1      10.861   7.065   8.534  1.00  0.00     0.089 A 
HETATM   27  C14 UNK     1       9.599   6.481   8.444  1.00  0.00     0.038 A 
HETATM   28  C3  UNK     1      11.674   7.227   7.418  1.00  0.00    -0.001 A 
HETATM   29  C19 UNK     1       9.142   6.050   7.200  1.00  0.00     0.003 A 
HETATM   30  C18 UNK     1       9.944   6.205   6.069  1.00  0.00     0.001 A 
HETATM   31  C13 UNK     1      11.208   6.793   6.175  1.00  0.00     0.014 A 
HETATM   32  C4  UNK     1      12.978   7.847   7.586  1.00  0.00     0.032 A 
ENDBRANCH   1  22
TORSDOF 5
ENDMDL
MODEL 4
REMARK VINA RESULT:      -9.0      1.618      2.171
REMARK  5 active torsions:
REMARK  status: ('A' for Active; 'I' for Inactive)
REMARK    1  A    between atoms: C17_24  and  O2_4 
REMARK    2  A    between atoms: C23_30  and  O2_4 
REMARK    3  A    between atoms: C5_12  and  N1_7 
REMARK    4  A    between atoms: C1_8  and  C2_9 
REMARK    5  A    between atoms: C12_19  and  C15_22 
ROOT
HETATM    1  C2  UNK     1      18.351   4.145  32.039  1.00  0.00    -0.020 A 
HETATM    2  C5  UNK     1      17.730   6.845  32.368  1.00  0.00     0.031 A 
HETATM    3  C7  UNK     1      17.927   4.616  33.282  1.00  0.00     0.014 A 
HETATM    4  C8  UNK     1      18.463   5.022  30.960  1.00  0.00     0.014 A 
HETATM    5  C9  UNK     1      17.617   5.966  33.446  1.00  0.00     0.030 A 
HETATM    6  C10 UNK     1      18.153   6.372  31.125  1.00  0.00     0.030 A 
ENDROOT
BRANCH   2   7
HETATM    7  N1  UNK     1      17.417   8.209  32.533  1.00  0.00    -0.365 N 
HETATM    8  C15 UNK     1      17.037   8.857  33.656  1.00  0.00     0.105 C 
HETATM    9  H6  UNK     1      17.494   8.756  31.685  1.00  0.00     0.165 HD
BRANCH   8  10
HETATM   10  C12 UNK     1      16.743  10.152  33.796  1.00  0.00     0.051 A 
HETATM   11  C16 UNK     1      17.935  11.044  34.029  1.00  0.00     0.218 A 
HETATM   12  O4  UNK     1      19.090  10.630  34.082  1.00  0.00    -0.284 OA
HETATM   13  C17 UNK     1      17.655  12.493  34.195  1.00  0.00     0.121 A 
HETATM   14  C21 UNK     1      16.398  12.944  34.135  1.00  0.00     0.061 A 
HETATM   15  C22 UNK     1      15.251  12.084  33.907  1.00  0.00     0.032 A 
HETATM   16 Br2  UNK     1      13.600  12.989  33.866  1.00  0.00    -0.050 Br
HETATM   17  C20 UNK     1      15.402  10.750  33.744  1.00  0.00     0.044 A 
HETATM   18 Br1  UNK     1      13.923   9.610  33.444  1.00  0.00    -0.049 Br
BRANCH  13  19
HETATM   19  O2  UNK     1      18.711  13.351  34.412  1.00  0.00    -0.347 OA
BRANCH  19  20
HETATM   20  C23 UNK     1      18.804  14.308  33.375  1.00  0.00     0.171 C 
HETATM   21  C24 UNK     1      19.436  15.570  33.924  1.00  0.00     0.034 C 
ENDBRANCH  19  20
ENDBRANCH  13  19
ENDBRANCH   8  10
ENDBRANCH   2   7
BRANCH   1  22
HETATM   22  C1  UNK     1      18.678   2.718  31.866  1.00  0.00     0.051 A 
HETATM   23  C11 UNK     1      18.477   1.759  32.988  1.00  0.00     0.299 A 
HETATM   24  O1  UNK     1      18.780   0.423  32.738  1.00  0.00    -0.274 OA
HETATM   25  O3  UNK     1      18.067   2.119  34.087  1.00  0.00    -0.259 OA
HETATM   26  C6  UNK     1      19.274  -0.010  31.494  1.00  0.00     0.089 A 
HETATM   27  C14 UNK     1      19.560  -1.366  31.346  1.00  0.00     0.038 A 
HETATM   28  C3  UNK     1      19.466   0.896  30.458  1.00  0.00    -0.001 A 
HETATM   29  C19 UNK     1      20.052  -1.823  30.125  1.00  0.00     0.003 A 
HETATM   30  C18 UNK     1      20.250  -0.928  29.073  1.00  0.00     0.001 A 
HETATM   31  C13 UNK     1      19.958   0.429  29.236  1.00  0.00     0.014 A 
HETATM   32  C4  UNK     1      19.144   2.295  30.681  1.00  0.00     0.032 A 
ENDBRANCH   1  22
TORSDOF 5
ENDMDL
MODEL 5
REMARK VINA RESULT:      -8.8     22.630     24.506
REMARK  5 active torsions:
REMARK  status: ('A' for Active; 'I' for Inactive)
REMARK    1  A    between atoms: C17_24  and  O2_4 
REMARK    2  A    between atoms: C23_30  and  O2_4 
REMARK    3  A    between atoms: C5_12  and  N1_7 
REMARK    4  A    between atoms: C1_8  and  C2_9 
REMARK    5  A    between atoms: C12_19  and  C15_22 
ROOT
HETATM    1  C2  UNK     1      14.689   8.893   8.907  1.00  0.00    -0.020 A 
HETATM    2  C5  UNK     1      17.148  10.185   9.155  1.00  0.00     0.031 A 
HETATM    3  C7  UNK     1      14.891  10.130   8.294  1.00  0.00     0.014 A 
HETATM    4  C8  UNK     1      15.715   8.301   9.642  1.00  0.00     0.014 A 
HETATM    5  C9  UNK     1      16.121  10.775   8.418  1.00  0.00     0.030 A 
HETATM    6  C10 UNK     1      16.945   8.948   9.767  1.00  0.00     0.030 A 
ENDROOT
BRANCH   2   7
HETATM    7  N1  UNK     1      18.391  10.837   9.281  1.00  0.00    -0.365 N 
HETATM    8  C15 UNK     1      18.639  12.126   9.603  1.00  0.00     0.105 C 
HETATM    9  H6  UNK     1      19.190  10.242   9.102  1.00  0.00     0.165 HD
BRANCH   8  10
HETATM   10  C12 UNK     1      19.824  12.729   9.719  1.00  0.00     0.051 A 
HETATM   11  C16 UNK     1      20.569  12.904   8.421  1.00  0.00     0.218 A 
HETATM   12  O4  UNK     1      20.133  12.531   7.335  1.00  0.00    -0.284 OA
HETATM   13  C17 UNK     1      21.896  13.567   8.503  1.00  0.00     0.121 A 
HETATM   14  C21 UNK     1      22.369  13.975   9.685  1.00  0.00     0.061 A 
HETATM   15  C22 UNK     1      21.649  13.810  10.934  1.00  0.00     0.032 A 
HETATM   16 Br2  UNK     1      22.552  14.481  12.444  1.00  0.00    -0.050 Br
HETATM   17  C20 UNK     1      20.434  13.217  10.965  1.00  0.00     0.044 A 
HETATM   18 Br1  UNK     1      19.476  12.992  12.579  1.00  0.00    -0.049 Br
BRANCH  13  19
HETATM   19  O2  UNK     1      22.617  13.748   7.343  1.00  0.00    -0.347 OA
BRANCH  19  20
HETATM   20  C23 UNK     1      22.796  15.125   7.071  1.00  0.00     0.171 C 
HETATM   21  C24 UNK     1      21.845  15.536   5.966  1.00  0.00     0.034 C 
ENDBRANCH  19  20
ENDBRANCH  13  19
ENDBRANCH   8  10
ENDBRANCH   2   7
BRANCH   1  22
HETATM   22  C1  UNK     1      13.388   8.210   8.774  1.00  0.00     0.051 A 
HETATM   23  C11 UNK     1      12.567   7.916   9.981  1.00  0.00     0.299 A 
HETATM   24  O1  UNK     1      11.338   7.296   9.772  1.00  0.00    -0.274 OA
HETATM   25  O3  UNK     1      12.948   8.196  11.113  1.00  0.00    -0.259 OA
HETATM   26  C6  UNK     1      10.889   6.942   8.487  1.00  0.00     0.089 A 
HETATM   27  C14 UNK     1       9.649   6.313   8.382  1.00  0.00     0.038 A 
HETATM   28  C3  UNK     1      11.668   7.214   7.368  1.00  0.00    -0.001 A 
HETATM   29  C19 UNK     1       9.181   5.950   7.121  1.00  0.00     0.003 A 
HETATM   30  C18 UNK     1       9.949   6.217   5.987  1.00  0.00     0.001 A 
HETATM   31  C13 UNK     1      11.191   6.848   6.108  1.00  0.00     0.014 A 
HETATM   32  C4  UNK     1      12.950   7.875   7.552  1.00  0.00     0.032 A 
ENDBRANCH   1  22
TORSDOF 5
ENDMDL
MODEL 6
REMARK VINA RESULT:      -8.8      6.804      9.425
REMARK  5 active torsions:
REMARK  status: ('A' for Active; 'I' for Inactive)
REMARK    1  A    between atoms: C17_24  and  O2_4 
REMARK    2  A    between atoms: C23_30  and  O2_4 
REMARK    3  A    between atoms: C5_12  and  N1_7 
REMARK    4  A    between atoms: C1_8  and  C2_9 
REMARK    5  A    between atoms: C12_19  and  C15_22 
ROOT
HETATM    1  C2  UNK     1      19.529  -3.703  36.570  1.00  0.00    -0.020 A 
HETATM    2  C5  UNK     1      19.283  -1.195  35.373  1.00  0.00     0.031 A 
HETATM    3  C7  UNK     1      20.159  -3.447  35.352  1.00  0.00     0.014 A 
HETATM    4  C8  UNK     1      18.777  -2.706  37.191  1.00  0.00     0.014 A 
HETATM    5  C9  UNK     1      20.036  -2.193  34.754  1.00  0.00     0.030 A 
HETATM    6  C10 UNK     1      18.653  -1.452  36.592  1.00  0.00     0.030 A 
ENDROOT
BRANCH   2   7
HETATM    7  N1  UNK     1      19.158   0.072  34.769  1.00  0.00    -0.365 N 
HETATM    8  C15 UNK     1      18.641   0.383  33.560  1.00  0.00     0.105 C 
HETATM    9  H6  UNK     1      19.508   0.835  35.335  1.00  0.00     0.165 HD
BRANCH   8  10
HETATM   10  C12 UNK     1      18.529   1.591  33.002  1.00  0.00     0.051 A 
HETATM   11  C16 UNK     1      18.217   2.703  33.969  1.00  0.00     0.218 A 
HETATM   12  O4  UNK     1      18.078   2.531  35.177  1.00  0.00    -0.284 OA
HETATM   13  C17 UNK     1      18.079   4.064  33.390  1.00  0.00     0.121 A 
HETATM   14  C21 UNK     1      18.233   4.252  32.075  1.00  0.00     0.061 A 
HETATM   15  C22 UNK     1      18.537   3.180  31.145  1.00  0.00     0.032 A 
HETATM   16 Br2  UNK     1      18.703   3.733  29.353  1.00  0.00    -0.050 Br
HETATM   17  C20 UNK     1      18.682   1.906  31.574  1.00  0.00     0.044 A 
HETATM   18 Br1  UNK     1      19.080   0.493  30.382  1.00  0.00    -0.049 Br
BRANCH  13  19
HETATM   19  O2  UNK     1      17.792   5.115  34.233  1.00  0.00    -0.347 OA
BRANCH  19  20
HETATM   20  C23 UNK     1      17.982   6.354  33.576  1.00  0.00     0.171 C 
HETATM   21  C24 UNK     1      19.092   7.115  34.270  1.00  0.00     0.034 C 
ENDBRANCH  19  20
ENDBRANCH  13  19
ENDBRANCH   8  10
ENDBRANCH   2   7
BRANCH   1  22
HETATM   22  C1  UNK     1      19.660  -5.029  37.202  1.00  0.00     0.051 A 
HETATM   23  C11 UNK     1      18.582  -6.045  37.049  1.00  0.00     0.299 A 
HETATM   24  O1  UNK     1      18.793  -7.283  37.650  1.00  0.00    -0.274 OA
HETATM   25  O3  UNK     1      17.550  -5.811  36.428  1.00  0.00    -0.259 OA
HETATM   26  C6  UNK     1      19.957  -7.567  38.387  1.00  0.00     0.089 A 
HETATM   27  C14 UNK     1      20.069  -8.833  38.961  1.00  0.00     0.038 A 
HETATM   28  C3  UNK     1      20.952  -6.608  38.530  1.00  0.00    -0.001 A 
HETATM   29  C19 UNK     1      21.211  -9.141  39.698  1.00  0.00     0.003 A 
HETATM   30  C18 UNK     1      22.221  -8.190  39.852  1.00  0.00     0.001 A 
HETATM   31  C13 UNK     1      22.094  -6.925  39.269  1.00  0.00     0.014 A 
HETATM   32  C4  UNK     1      20.770  -5.310  37.902  1.00  0.00     0.032 A 
ENDBRANCH   1  22
TORSDOF 5
ENDMDL
MODEL 7
REMARK VINA RESULT:      -8.8      8.575     14.114
REMARK  5 active torsions:
REMARK  status: ('A' for Active; 'I' for Inactive)
REMARK    1  A    between atoms: C17_24  and  O2_4 
REMARK    2  A    between atoms: C23_30  and  O2_4 
REMARK    3  A    between atoms: C5_12  and  N1_7 
REMARK    4  A    between atoms: C1_8  and  C2_9 
REMARK    5  A    between atoms: C12_19  and  C15_22 
ROOT
HETATM    1  C2  UNK     1      18.955  -0.542  35.612  1.00  0.00    -0.020 A 
HETATM    2  C5  UNK     1      19.461  -3.054  36.713  1.00  0.00     0.031 A 
HETATM    3  C7  UNK     1      20.226  -1.106  35.506  1.00  0.00     0.014 A 
HETATM    4  C8  UNK     1      17.936  -1.234  36.267  1.00  0.00     0.014 A 
HETATM    5  C9  UNK     1      20.479  -2.362  36.057  1.00  0.00     0.030 A 
HETATM    6  C10 UNK     1      18.190  -2.490  36.818  1.00  0.00     0.030 A 
ENDROOT
BRANCH   2   7
HETATM    7  N1  UNK     1      19.717  -4.324  37.270  1.00  0.00    -0.365 N 
HETATM    8  C15 UNK     1      20.475  -5.325  36.773  1.00  0.00     0.105 C 
HETATM    9  H6  UNK     1      19.261  -4.483  38.160  1.00  0.00     0.165 HD
BRANCH   8  10
HETATM   10  C12 UNK     1      20.708  -6.524  37.314  1.00  0.00     0.051 A 
HETATM   11  C16 UNK     1      21.938  -6.593  38.180  1.00  0.00     0.218 A 
HETATM   12  O4  UNK     1      22.676  -5.634  38.387  1.00  0.00    -0.284 OA
HETATM   13  C17 UNK     1      22.239  -7.910  38.799  1.00  0.00     0.121 A 
HETATM   14  C21 UNK     1      21.435  -8.955  38.576  1.00  0.00     0.061 A 
HETATM   15  C22 UNK     1      20.248  -8.886  37.744  1.00  0.00     0.032 A 
HETATM   16 Br2  UNK     1      19.300 -10.507  37.608  1.00  0.00    -0.050 Br
HETATM   17  C20 UNK     1      19.889  -7.732  37.136  1.00  0.00     0.044 A 
HETATM   18 Br1  UNK     1      18.346  -7.616  36.049  1.00  0.00    -0.049 Br
BRANCH  13  19
HETATM   19  O2  UNK     1      23.355  -8.026  39.598  1.00  0.00    -0.347 OA
BRANCH  19  20
HETATM   20  C23 UNK     1      24.448  -8.546  38.865  1.00  0.00     0.171 C 
HETATM   21  C24 UNK     1      25.565  -7.523  38.853  1.00  0.00     0.034 C 
ENDBRANCH  19  20
ENDBRANCH  13  19
ENDBRANCH   8  10
ENDBRANCH   2   7
BRANCH   1  22
HETATM   22  C1  UNK     1      18.688   0.786  35.029  1.00  0.00     0.051 A 
HETATM   23  C11 UNK     1      18.527   1.975  35.910  1.00  0.00     0.299 A 
HETATM   24  O1  UNK     1      18.306   3.199  35.284  1.00  0.00    -0.274 OA
HETATM   25  O3  UNK     1      18.579   1.892  37.133  1.00  0.00    -0.259 OA
HETATM   26  C6  UNK     1      18.218   3.317  33.885  1.00  0.00     0.089 A 
HETATM   27  C14 UNK     1      17.983   4.584  33.353  1.00  0.00     0.038 A 
HETATM   28  C3  UNK     1      18.361   2.198  33.073  1.00  0.00    -0.001 A 
HETATM   29  C19 UNK     1      17.890   4.729  31.971  1.00  0.00     0.003 A 
HETATM   30  C18 UNK     1      18.031   3.616  31.140  1.00  0.00     0.001 A 
HETATM   31  C13 UNK     1      18.267   2.352  31.688  1.00  0.00     0.014 A 
HETATM   32  C4  UNK     1      18.608   0.908  33.696  1.00  0.00     0.032 A 
ENDBRANCH   1  22
TORSDOF 5
ENDMDL
MODEL 8
REMARK VINA RESULT:      -8.7      2.589      3.409
REMARK  5 active torsions:
REMARK  status: ('A' for Active; 'I' for Inactive)
REMARK    1  A    between atoms: C17_24  and  O2_4 
REMARK    2  A    between atoms: C23_30  and  O2_4 
REMARK    3  A    between atoms: C5_12  and  N1_7 
REMARK    4  A    between atoms: C1_8  and  C2_9 
REMARK    5  A    between atoms: C12_19  and  C15_22 
ROOT
HETATM    1  C2  UNK     1      18.188   3.767  32.297  1.00  0.00    -0.020 A 
HETATM    2  C5  UNK     1      17.426   6.420  32.694  1.00  0.00     0.031 A 
HETATM    3  C7  UNK     1      18.159   4.297  33.586  1.00  0.00     0.014 A 
HETATM    4  C8  UNK     1      17.835   4.560  31.206  1.00  0.00     0.014 A 
HETATM    5  C9  UNK     1      17.778   5.624  33.785  1.00  0.00     0.030 A 
HETATM    6  C10 UNK     1      17.454   5.888  31.405  1.00  0.00     0.030 A 
ENDROOT
BRANCH   2   7
HETATM    7  N1  UNK     1      17.040   7.761  32.894  1.00  0.00    -0.365 N 
HETATM    8  C15 UNK     1      16.864   8.423  34.059  1.00  0.00     0.105 C 
HETATM    9  H6  UNK     1      16.881   8.277  32.038  1.00  0.00     0.165 HD
BRANCH   8  10
HETATM   10  C12 UNK     1      16.498   9.696  34.232  1.00  0.00     0.051 A 
HETATM   11  C16 UNK     1      15.014   9.907  34.384  1.00  0.00     0.218 A 
HETATM   12  O4  UNK     1      14.194   8.994  34.359  1.00  0.00    -0.284 OA
HETATM   13  C17 UNK     1      14.562  11.309  34.574  1.00  0.00     0.121 A 
HETATM   14  C21 UNK     1      15.454  12.303  34.605  1.00  0.00     0.061 A 
HETATM   15  C22 UNK     1      16.884  12.098  34.461  1.00  0.00     0.032 A 
HETATM   16 Br2  UNK     1      17.906  13.677  34.547  1.00  0.00    -0.050 Br
HETATM   17  C20 UNK     1      17.395  10.859  34.283  1.00  0.00     0.044 A 
HETATM   18 Br1  UNK     1      19.254  10.566  34.095  1.00  0.00    -0.049 Br
BRANCH  13  19
HETATM   19  O2  UNK     1      13.213  11.555  34.717  1.00  0.00    -0.347 OA
BRANCH  19  20
HETATM   20  C23 UNK     1      12.734  12.361  33.657  1.00  0.00     0.171 C 
HETATM   21  C24 UNK     1      11.960  11.492  32.688  1.00  0.00     0.034 C 
ENDBRANCH  19  20
ENDBRANCH  13  19
ENDBRANCH   8  10
ENDBRANCH   2   7
BRANCH   1  22
HETATM   22  C1  UNK     1      18.591   2.363  32.088  1.00  0.00     0.051 A 
HETATM   23  C11 UNK     1      18.398   1.357  33.168  1.00  0.00     0.299 A 
HETATM   24  O1  UNK     1      18.776   0.047  32.885  1.00  0.00    -0.274 OA
HETATM   25  O3  UNK     1      17.934   1.657  34.264  1.00  0.00    -0.259 OA
HETATM   26  C6  UNK     1      19.332  -0.318  31.646  1.00  0.00     0.089 A 
HETATM   27  C14 UNK     1      19.690  -1.653  31.462  1.00  0.00     0.038 A 
HETATM   28  C3  UNK     1      19.515   0.632  30.648  1.00  0.00    -0.001 A 
HETATM   29  C19 UNK     1      20.245  -2.042  30.245  1.00  0.00     0.003 A 
HETATM   30  C18 UNK     1      20.435  -1.102  29.231  1.00  0.00     0.001 A 
HETATM   31  C13 UNK     1      20.072   0.233  29.430  1.00  0.00     0.014 A 
HETATM   32  C4  UNK     1      19.117   2.006  30.907  1.00  0.00     0.032 A 
ENDBRANCH   1  22
TORSDOF 5
ENDMDL
MODEL 9
REMARK VINA RESULT:      -8.7      1.904      2.804
REMARK  5 active torsions:
REMARK  status: ('A' for Active; 'I' for Inactive)
REMARK    1  A    between atoms: C17_24  and  O2_4 
REMARK    2  A    between atoms: C23_30  and  O2_4 
REMARK    3  A    between atoms: C5_12  and  N1_7 
REMARK    4  A    between atoms: C1_8  and  C2_9 
REMARK    5  A    between atoms: C12_19  and  C15_22 
ROOT
HETATM    1  C2  UNK     1      18.104   5.244  32.650  1.00  0.00    -0.020 A 
HETATM    2  C5  UNK     1      17.747   7.988  32.997  1.00  0.00     0.031 A 
HETATM    3  C7  UNK     1      16.864   5.823  32.384  1.00  0.00     0.014 A 
HETATM    4  C8  UNK     1      19.166   6.034  33.088  1.00  0.00     0.014 A 
HETATM    5  C9  UNK     1      16.686   7.196  32.558  1.00  0.00     0.030 A 
HETATM    6  C10 UNK     1      18.987   7.406  33.263  1.00  0.00     0.030 A 
ENDROOT
BRANCH   2   7
HETATM    7  N1  UNK     1      17.567   9.375  33.173  1.00  0.00    -0.365 N 
HETATM    8  C15 UNK     1      17.070  10.032  34.244  1.00  0.00     0.105 C 
HETATM    9  H6  UNK     1      17.855   9.932  32.379  1.00  0.00     0.165 HD
BRANCH   8  10
HETATM   10  C12 UNK     1      16.906  11.348  34.396  1.00  0.00     0.051 A 
HETATM   11  C16 UNK     1      18.062  12.184  33.912  1.00  0.00     0.218 A 
HETATM   12  O4  UNK     1      19.078  11.710  33.412  1.00  0.00    -0.284 OA
HETATM   13  C17 UNK     1      17.925  13.655  34.065  1.00  0.00     0.121 A 
HETATM   14  C21 UNK     1      16.818  14.172  34.607  1.00  0.00     0.061 A 
HETATM   15  C22 UNK     1      15.703  13.366  35.070  1.00  0.00     0.032 A 
HETATM   16 Br2  UNK     1      14.273  14.359  35.786  1.00  0.00    -0.050 Br
HETATM   17  C20 UNK     1      15.732  12.017  34.975  1.00  0.00     0.044 A 
HETATM   18 Br1  UNK     1      14.292  10.946  35.568  1.00  0.00    -0.049 Br
BRANCH  13  19
HETATM   19  O2  UNK     1      18.956  14.464  33.639  1.00  0.00    -0.347 OA
BRANCH  19  20
HETATM   20  C23 UNK     1      18.507  15.380  32.659  1.00  0.00     0.171 C 
HETATM   21  C24 UNK     1      18.782  14.806  31.285  1.00  0.00     0.034 C 
ENDBRANCH  19  20
ENDBRANCH  13  19
ENDBRANCH   8  10
ENDBRANCH   2   7
BRANCH   1  22
HETATM   22  C1  UNK     1      18.293   3.792  32.465  1.00  0.00     0.051 A 
HETATM   23  C11 UNK     1      18.628   3.242  31.123  1.00  0.00     0.299 A 
HETATM   24  O1  UNK     1      18.819   1.866  31.035  1.00  0.00    -0.274 OA
HETATM   25  O3  UNK     1      18.728   3.958  30.131  1.00  0.00    -0.259 OA
HETATM   26  C6  UNK     1      18.686   1.021  32.151  1.00  0.00     0.089 A 
HETATM   27  C14 UNK     1      18.885  -0.345  31.959  1.00  0.00     0.038 A 
HETATM   28  C3  UNK     1      18.364   1.545  33.398  1.00  0.00    -0.001 A 
HETATM   29  C19 UNK     1      18.758  -1.206  33.047  1.00  0.00     0.003 A 
HETATM   30  C18 UNK     1      18.436  -0.697  34.306  1.00  0.00     0.001 A 
HETATM   31  C13 UNK     1      18.240   0.675  34.484  1.00  0.00     0.014 A 
HETATM   32  C4  UNK     1      18.173   2.980  33.526  1.00  0.00     0.032 A 
ENDBRANCH   1  22
TORSDOF 5
ENDMDL
MODEL 10
REMARK VINA RESULT:      -8.7      3.107     11.194
REMARK  5 active torsions:
REMARK  status: ('A' for Active; 'I' for Inactive)
REMARK    1  A    between atoms: C17_24  and  O2_4 
REMARK    2  A    between atoms: C23_30  and  O2_4 
REMARK    3  A    between atoms: C5_12  and  N1_7 
REMARK    4  A    between atoms: C1_8  and  C2_9 
REMARK    5  A    between atoms: C12_19  and  C15_22 
ROOT
HETATM    1  C2  UNK     1      16.412   8.884  33.849  1.00  0.00    -0.020 A 
HETATM    2  C5  UNK     1      17.028   6.333  32.905  1.00  0.00     0.031 A 
HETATM    3  C7  UNK     1      16.916   7.921  34.723  1.00  0.00     0.014 A 
HETATM    4  C8  UNK     1      16.218   8.574  32.504  1.00  0.00     0.014 A 
HETATM    5  C9  UNK     1      17.224   6.646  34.251  1.00  0.00     0.030 A 
HETATM    6  C10 UNK     1      16.525   7.297  32.032  1.00  0.00     0.030 A 
ENDROOT
BRANCH   2   7
HETATM    7  N1  UNK     1      17.340   5.044  32.428  1.00  0.00    -0.365 N 
HETATM    8  C15 UNK     1      18.124   4.101  32.995  1.00  0.00     0.105 C 
HETATM    9  H6  UNK     1      16.907   4.816  31.542  1.00  0.00     0.165 HD
BRANCH   8  10
HETATM   10  C12 UNK     1      18.410   2.882  32.529  1.00  0.00     0.051 A 
HETATM   11  C16 UNK     1      18.748   2.835  31.062  1.00  0.00     0.218 A 
HETATM   12  O4  UNK     1      18.770   3.827  30.339  1.00  0.00    -0.284 OA
HETATM   13  C17 UNK     1      19.068   1.498  30.500  1.00  0.00     0.121 A 
HETATM   14  C21 UNK     1      19.047   0.417  31.286  1.00  0.00     0.061 A 
HETATM   15  C22 UNK     1      18.724   0.465  32.701  1.00  0.00     0.032 A 
HETATM   16 Br2  UNK     1      18.775  -1.208  33.565  1.00  0.00    -0.050 Br
HETATM   17  C20 UNK     1      18.418   1.635  33.306  1.00  0.00     0.044 A 
HETATM   18 Br1  UNK     1      17.996   1.723  35.147  1.00  0.00    -0.049 Br
BRANCH  13  19
HETATM   19  O2  UNK     1      19.382   1.401  29.161  1.00  0.00    -0.347 OA
BRANCH  19  20
HETATM   20  C23 UNK     1      18.387   0.680  28.461  1.00  0.00     0.171 C 
HETATM   21  C24 UNK     1      19.022  -0.527  27.804  1.00  0.00     0.034 C 
ENDBRANCH  19  20
ENDBRANCH  13  19
ENDBRANCH   8  10
ENDBRANCH   2   7
BRANCH   1  22
HETATM   22  C1  UNK     1      16.087  10.233  34.349  1.00  0.00     0.051 A 
HETATM   23  C11 UNK     1      17.057  11.351  34.183  1.00  0.00     0.299 A 
HETATM   24  O1  UNK     1      16.666  12.601  34.655  1.00  0.00    -0.274 OA
HETATM   25  O3  UNK     1      18.156  11.188  33.662  1.00  0.00    -0.259 OA
HETATM   26  C6  UNK     1      15.422  12.808  35.278  1.00  0.00     0.089 A 
HETATM   27  C14 UNK     1      15.127  14.094  35.727  1.00  0.00     0.038 A 
HETATM   28  C3  UNK     1      14.528  11.755  35.435  1.00  0.00    -0.001 A 
HETATM   29  C19 UNK     1      13.902  14.328  36.349  1.00  0.00     0.003 A 
HETATM   30  C18 UNK     1      12.992  13.282  36.515  1.00  0.00     0.001 A 
HETATM   31  C13 UNK     1      13.302  11.998  36.059  1.00  0.00     0.014 A 
HETATM   32  C4  UNK     1      14.901  10.440  34.939  1.00  0.00     0.032 A 
ENDBRANCH   1  22
TORSDOF 5
ENDMDL
