MODEL 1
REMARK VINA RESULT:      -9.3      0.000      0.000
REMARK  3 active torsions:
REMARK  status: ('A' for Active; 'I' for Inactive)
REMARK    1  A    between atoms: C12_16  and  O3_4 
REMARK    2  A    between atoms: C14_18  and  O3_4 
REMARK    3  A    between atoms: C14_18  and  C15_19 
ROOT
HETATM    1 Cl1  UNK     1      18.668   5.684  29.626  1.00  0.00    -0.081 Cl
HETATM    2  O1  UNK     1      18.383   1.039  33.241  1.00  0.00    -0.274 OA
HETATM    3  O2  UNK     1      18.688  -1.173  33.676  1.00  0.00    -0.259 OA
HETATM    4  C1  UNK     1      20.128   0.458  29.312  1.00  0.00     0.040 C 
HETATM    5  C2  UNK     1      20.845  -0.879  29.112  1.00  0.00     0.005 C 
HETATM    6  C3  UNK     1      19.498   0.626  30.678  1.00  0.00    -0.033 A 
HETATM    7  C4  UNK     1      20.026  -2.026  29.680  1.00  0.00     0.005 C 
HETATM    8  C5  UNK     1      19.781  -1.818  31.173  1.00  0.00     0.045 C 
HETATM    9  C6  UNK     1      19.368  -0.410  31.529  1.00  0.00     0.025 A 
HETATM   10  C7  UNK     1      19.019   1.960  31.077  1.00  0.00     0.007 A 
HETATM   11  C8  UNK     1      18.480   2.123  32.350  1.00  0.00     0.093 A 
HETATM   12  C9  UNK     1      18.793  -0.237  32.889  1.00  0.00     0.295 A 
HETATM   13  C10 UNK     1      19.061   3.089  30.246  1.00  0.00     0.041 A 
HETATM   14  C11 UNK     1      18.004   3.352  32.812  1.00  0.00     0.076 A 
HETATM   15  C12 UNK     1      18.060   4.461  31.975  1.00  0.00     0.093 A 
HETATM   16  C13 UNK     1      18.586   4.328  30.691  1.00  0.00     0.068 A 
ENDROOT
BRANCH  15  17
HETATM   17  O3  UNK     1      17.599   5.657  32.433  1.00  0.00    -0.345 OA
BRANCH  17  18
HETATM   18  C14 UNK     1      17.819   5.951  33.812  1.00  0.00     0.214 C 
BRANCH  18  19
HETATM   19  C15 UNK     1      18.283   7.371  33.943  1.00  0.00    -0.034 A 
HETATM   20  C16 UNK     1      17.391   8.411  33.702  1.00  0.00     0.009 A 
HETATM   21  C18 UNK     1      17.823   9.732  33.823  1.00  0.00     0.001 A 
HETATM   22  C20 UNK     1      19.143  10.005  34.182  1.00  0.00     0.000 A 
HETATM   23  C19 UNK     1      20.032   8.956  34.421  1.00  0.00     0.001 A 
HETATM   24  C17 UNK     1      19.600   7.635  34.300  1.00  0.00     0.009 A 
ENDBRANCH  18  19
ENDBRANCH  17  18
ENDBRANCH  15  17
TORSDOF 3
ENDMDL
MODEL 2
REMARK VINA RESULT:      -8.7      2.199      8.676
REMARK  3 active torsions:
REMARK  status: ('A' for Active; 'I' for Inactive)
REMARK    1  A    between atoms: C12_16  and  O3_4 
REMARK    2  A    between atoms: C14_18  and  O3_4 
REMARK    3  A    between atoms: C14_18  and  C15_19 
ROOT
HETATM    1 Cl1  UNK     1      21.352   6.154  32.636  1.00  0.00    -0.081 Cl
HETATM    2  O1  UNK     1      15.571   7.291  32.552  1.00  0.00    -0.274 OA
HETATM    3  O2  UNK     1      13.796   8.640  33.002  1.00  0.00    -0.259 OA
HETATM    4  C1  UNK     1      18.234  10.384  34.022  1.00  0.00     0.040 C 
HETATM    5  C2  UNK     1      17.587  11.757  34.219  1.00  0.00     0.005 C 
HETATM    6  C3  UNK     1      17.280   9.311  33.540  1.00  0.00    -0.033 A 
HETATM    7  C4  UNK     1      16.235  11.628  34.900  1.00  0.00     0.005 C 
HETATM    8  C5  UNK     1      15.298  10.759  34.066  1.00  0.00     0.045 C 
HETATM    9  C6  UNK     1      15.946   9.501  33.540  1.00  0.00     0.025 A 
HETATM   10  C7  UNK     1      17.835   8.034  33.064  1.00  0.00     0.007 A 
HETATM   11  C8  UNK     1      16.959   7.065  32.580  1.00  0.00     0.093 A 
HETATM   12  C9  UNK     1      15.010   8.468  33.023  1.00  0.00     0.295 A 
HETATM   13  C10 UNK     1      19.201   7.719  33.074  1.00  0.00     0.041 A 
HETATM   14  C11 UNK     1      17.398   5.827  32.106  1.00  0.00     0.076 A 
HETATM   15  C12 UNK     1      18.757   5.537  32.119  1.00  0.00     0.093 A 
HETATM   16  C13 UNK     1      19.658   6.482  32.605  1.00  0.00     0.068 A 
ENDROOT
BRANCH  15  17
HETATM   17  O3  UNK     1      19.178   4.329  31.650  1.00  0.00    -0.345 OA
BRANCH  17  18
HETATM   18  C14 UNK     1      18.271   3.235  31.772  1.00  0.00     0.214 C 
BRANCH  18  19
HETATM   19  C15 UNK     1      18.543   2.250  30.673  1.00  0.00    -0.034 A 
HETATM   20  C16 UNK     1      17.922   2.406  29.439  1.00  0.00     0.009 A 
HETATM   21  C18 UNK     1      18.175   1.489  28.419  1.00  0.00     0.001 A 
HETATM   22  C20 UNK     1      19.045   0.422  28.638  1.00  0.00     0.000 A 
HETATM   23  C19 UNK     1      19.665   0.272  29.880  1.00  0.00     0.001 A 
HETATM   24  C17 UNK     1      19.412   1.189  30.901  1.00  0.00     0.009 A 
ENDBRANCH  18  19
ENDBRANCH  17  18
ENDBRANCH  15  17
TORSDOF 3
ENDMDL
MODEL 3
REMARK VINA RESULT:      -8.7     15.285     17.986
REMARK  3 active torsions:
REMARK  status: ('A' for Active; 'I' for Inactive)
REMARK    1  A    between atoms: C12_16  and  O3_4 
REMARK    2  A    between atoms: C14_18  and  O3_4 
REMARK    3  A    between atoms: C14_18  and  C15_19 
ROOT
HETATM    1 Cl1  UNK     1      20.259  -1.212  13.188  1.00  0.00    -0.081 Cl
HETATM    2  O1  UNK     1      16.941  -5.069  16.160  1.00  0.00    -0.274 OA
HETATM    3  O2  UNK     1      15.912  -7.089  16.346  1.00  0.00    -0.259 OA
HETATM    4  C1  UNK     1      18.631  -6.332  12.371  1.00  0.00     0.040 C 
HETATM    5  C2  UNK     1      18.514  -7.829  12.075  1.00  0.00     0.005 C 
HETATM    6  C3  UNK     1      18.006  -5.908  13.682  1.00  0.00    -0.033 A 
HETATM    7  C4  UNK     1      17.127  -8.344  12.419  1.00  0.00     0.005 C 
HETATM    8  C5  UNK     1      16.822  -8.110  13.896  1.00  0.00     0.045 C 
HETATM    9  C6  UNK     1      17.204  -6.733  14.383  1.00  0.00     0.025 A 
HETATM   10  C7  UNK     1      18.288  -4.557  14.195  1.00  0.00     0.007 A 
HETATM   11  C8  UNK     1      17.748  -4.183  15.423  1.00  0.00     0.093 A 
HETATM   12  C9  UNK     1      16.628  -6.335  15.694  1.00  0.00     0.295 A 
HETATM   13  C10 UNK     1      19.064  -3.606  13.517  1.00  0.00     0.041 A 
HETATM   14  C11 UNK     1      17.965  -2.923  15.986  1.00  0.00     0.076 A 
HETATM   15  C12 UNK     1      18.743  -1.998  15.301  1.00  0.00     0.093 A 
HETATM   16  C13 UNK     1      19.291  -2.338  14.065  1.00  0.00     0.068 A 
ENDROOT
BRANCH  15  17
HETATM   17  O3  UNK     1      18.955  -0.773  15.858  1.00  0.00    -0.345 OA
BRANCH  17  18
HETATM   18  C14 UNK     1      18.783  -0.666  17.271  1.00  0.00     0.214 C 
BRANCH  18  19
HETATM   19  C15 UNK     1      19.036   0.753  17.688  1.00  0.00    -0.034 A 
HETATM   20  C16 UNK     1      19.219   1.733  16.719  1.00  0.00     0.009 A 
HETATM   21  C18 UNK     1      19.455   3.052  17.108  1.00  0.00     0.001 A 
HETATM   22  C20 UNK     1      19.507   3.382  18.461  1.00  0.00     0.000 A 
HETATM   23  C19 UNK     1      19.322   2.393  19.428  1.00  0.00     0.001 A 
HETATM   24  C17 UNK     1      19.086   1.074  19.040  1.00  0.00     0.009 A 
ENDBRANCH  18  19
ENDBRANCH  17  18
ENDBRANCH  15  17
TORSDOF 3
ENDMDL
MODEL 4
REMARK VINA RESULT:      -8.6     15.729     19.732
REMARK  3 active torsions:
REMARK  status: ('A' for Active; 'I' for Inactive)
REMARK    1  A    between atoms: C12_16  and  O3_4 
REMARK    2  A    between atoms: C14_18  and  O3_4 
REMARK    3  A    between atoms: C14_18  and  C15_19 
ROOT
HETATM    1 Cl1  UNK     1      18.830  -4.514  15.373  1.00  0.00    -0.081 Cl
HETATM    2  O1  UNK     1      19.371   1.348  15.122  1.00  0.00    -0.274 OA
HETATM    3  O2  UNK     1      19.405   3.394  16.117  1.00  0.00    -0.259 OA
HETATM    4  C1  UNK     1      18.919  -0.490  19.025  1.00  0.00     0.040 C 
HETATM    5  C2  UNK     1      19.181   0.438  20.213  1.00  0.00     0.005 C 
HETATM    6  C3  UNK     1      19.050   0.180  17.673  1.00  0.00    -0.033 A 
HETATM    7  C4  UNK     1      18.518   1.789  20.005  1.00  0.00     0.005 C 
HETATM    8  C5  UNK     1      19.048   2.454  18.737  1.00  0.00     0.045 C 
HETATM    9  C6  UNK     1      19.134   1.519  17.554  1.00  0.00     0.025 A 
HETATM   10  C7  UNK     1      19.085  -0.663  16.467  1.00  0.00     0.007 A 
HETATM   11  C8  UNK     1      19.249  -0.049  15.228  1.00  0.00     0.093 A 
HETATM   12  C9  UNK     1      19.310   2.176  16.232  1.00  0.00     0.295 A 
HETATM   13  C10 UNK     1      18.951  -2.059  16.481  1.00  0.00     0.041 A 
HETATM   14  C11 UNK     1      19.296  -0.771  14.033  1.00  0.00     0.076 A 
HETATM   15  C12 UNK     1      19.168  -2.154  14.069  1.00  0.00     0.093 A 
HETATM   16  C13 UNK     1      18.993  -2.798  15.293  1.00  0.00     0.068 A 
ENDROOT
BRANCH  15  17
HETATM   17  O3  UNK     1      19.220  -2.852  12.901  1.00  0.00    -0.345 OA
BRANCH  17  18
HETATM   18  C14 UNK     1      19.466  -2.104  11.710  1.00  0.00     0.214 C 
BRANCH  18  19
HETATM   19  C15 UNK     1      20.309  -2.928  10.781  1.00  0.00    -0.034 A 
HETATM   20  C16 UNK     1      21.207  -2.298   9.927  1.00  0.00     0.009 A 
HETATM   21  C18 UNK     1      21.990  -3.064   9.063  1.00  0.00     0.001 A 
HETATM   22  C20 UNK     1      21.869  -4.454   9.057  1.00  0.00     0.000 A 
HETATM   23  C19 UNK     1      20.965  -5.078   9.918  1.00  0.00     0.001 A 
HETATM   24  C17 UNK     1      20.182  -4.312  10.782  1.00  0.00     0.009 A 
ENDBRANCH  18  19
ENDBRANCH  17  18
ENDBRANCH  15  17
TORSDOF 3
ENDMDL
MODEL 5
REMARK VINA RESULT:      -8.6     13.493     15.779
REMARK  3 active torsions:
REMARK  status: ('A' for Active; 'I' for Inactive)
REMARK    1  A    between atoms: C12_16  and  O3_4 
REMARK    2  A    between atoms: C14_18  and  O3_4 
REMARK    3  A    between atoms: C14_18  and  C15_19 
ROOT
HETATM    1 Cl1  UNK     1      26.033 -10.075  37.023  1.00  0.00    -0.081 Cl
HETATM    2  O1  UNK     1      28.134  -5.033  39.233  1.00  0.00    -0.274 OA
HETATM    3  O2  UNK     1      29.852  -3.607  39.666  1.00  0.00    -0.259 OA
HETATM    4  C1  UNK     1      30.891  -7.642  37.135  1.00  0.00     0.040 C 
HETATM    5  C2  UNK     1      32.256  -7.026  36.821  1.00  0.00     0.005 C 
HETATM    6  C3  UNK     1      29.957  -6.727  37.897  1.00  0.00    -0.033 A 
HETATM    7  C4  UNK     1      32.799  -6.268  38.021  1.00  0.00     0.005 C 
HETATM    8  C5  UNK     1      31.839  -5.154  38.428  1.00  0.00     0.045 C 
HETATM    9  C6  UNK     1      30.391  -5.583  38.460  1.00  0.00     0.025 A 
HETATM   10  C7  UNK     1      28.539  -7.106  38.019  1.00  0.00     0.007 A 
HETATM   11  C8  UNK     1      27.672  -6.242  38.681  1.00  0.00     0.093 A 
HETATM   12  C9  UNK     1      29.466  -4.659  39.167  1.00  0.00     0.295 A 
HETATM   13  C10 UNK     1      28.000  -8.298  37.515  1.00  0.00     0.041 A 
HETATM   14  C11 UNK     1      26.313  -6.520  38.841  1.00  0.00     0.076 A 
HETATM   15  C12 UNK     1      25.796  -7.705  38.329  1.00  0.00     0.093 A 
HETATM   16  C13 UNK     1      26.641  -8.595  37.668  1.00  0.00     0.068 A 
ENDROOT
BRANCH  15  17
HETATM   17  O3  UNK     1      24.469  -7.967  38.485  1.00  0.00    -0.345 OA
BRANCH  17  18
HETATM   18  C14 UNK     1      23.680  -6.962  39.119  1.00  0.00     0.214 C 
BRANCH  18  19
HETATM   19  C15 UNK     1      22.250  -7.413  39.156  1.00  0.00    -0.034 A 
HETATM   20  C16 UNK     1      21.958  -8.762  39.330  1.00  0.00     0.009 A 
HETATM   21  C18 UNK     1      20.627  -9.181  39.363  1.00  0.00     0.001 A 
HETATM   22  C20 UNK     1      19.598  -8.251  39.222  1.00  0.00     0.000 A 
HETATM   23  C19 UNK     1      19.899  -6.899  39.048  1.00  0.00     0.001 A 
HETATM   24  C17 UNK     1      21.229  -6.480  39.014  1.00  0.00     0.009 A 
ENDBRANCH  18  19
ENDBRANCH  17  18
ENDBRANCH  15  17
TORSDOF 3
ENDMDL
MODEL 6
REMARK VINA RESULT:      -8.4      4.686      8.865
REMARK  3 active torsions:
REMARK  status: ('A' for Active; 'I' for Inactive)
REMARK    1  A    between atoms: C12_16  and  O3_4 
REMARK    2  A    between atoms: C14_18  and  O3_4 
REMARK    3  A    between atoms: C14_18  and  C15_19 
ROOT
HETATM    1 Cl1  UNK     1      17.872   0.294  36.645  1.00  0.00    -0.081 Cl
HETATM    2  O1  UNK     1      20.187  -2.013  31.742  1.00  0.00    -0.274 OA
HETATM    3  O2  UNK     1      20.625  -1.929  29.511  1.00  0.00    -0.259 OA
HETATM    4  C1  UNK     1      18.401   1.932  31.490  1.00  0.00     0.040 C 
HETATM    5  C2  UNK     1      18.675   2.687  30.187  1.00  0.00     0.005 C 
HETATM    6  C3  UNK     1      19.005   0.545  31.543  1.00  0.00    -0.033 A 
HETATM    7  C4  UNK     1      18.506   1.774  28.985  1.00  0.00     0.005 C 
HETATM    8  C5  UNK     1      19.463   0.588  29.076  1.00  0.00     0.045 C 
HETATM    9  C6  UNK     1      19.510  -0.049  30.445  1.00  0.00     0.025 A 
HETATM   10  C7  UNK     1      19.036  -0.163  32.834  1.00  0.00     0.007 A 
HETATM   11  C8  UNK     1      19.632  -1.421  32.890  1.00  0.00     0.093 A 
HETATM   12  C9  UNK     1      20.147  -1.390  30.504  1.00  0.00     0.295 A 
HETATM   13  C10 UNK     1      18.490   0.345  34.021  1.00  0.00     0.041 A 
HETATM   14  C11 UNK     1      19.708  -2.162  34.072  1.00  0.00     0.076 A 
HETATM   15  C12 UNK     1      19.166  -1.638  35.239  1.00  0.00     0.093 A 
HETATM   16  C13 UNK     1      18.556  -0.385  35.214  1.00  0.00     0.068 A 
ENDROOT
BRANCH  15  17
HETATM   17  O3  UNK     1      19.249  -2.364  36.388  1.00  0.00    -0.345 OA
BRANCH  17  18
HETATM   18  C14 UNK     1      20.461  -3.083  36.615  1.00  0.00     0.214 C 
BRANCH  18  19
HETATM   19  C15 UNK     1      20.127  -4.473  37.069  1.00  0.00    -0.034 A 
HETATM   20  C16 UNK     1      19.047  -5.141  36.503  1.00  0.00     0.009 A 
HETATM   21  C18 UNK     1      18.737  -6.434  36.926  1.00  0.00     0.001 A 
HETATM   22  C20 UNK     1      19.508  -7.051  37.911  1.00  0.00     0.000 A 
HETATM   23  C19 UNK     1      20.591  -6.374  38.474  1.00  0.00     0.001 A 
HETATM   24  C17 UNK     1      20.901  -5.081  38.051  1.00  0.00     0.009 A 
ENDBRANCH  18  19
ENDBRANCH  17  18
ENDBRANCH  15  17
TORSDOF 3
ENDMDL
MODEL 7
REMARK VINA RESULT:      -8.4     14.688     17.079
REMARK  3 active torsions:
REMARK  status: ('A' for Active; 'I' for Inactive)
REMARK    1  A    between atoms: C12_16  and  O3_4 
REMARK    2  A    between atoms: C14_18  and  O3_4 
REMARK    3  A    between atoms: C14_18  and  C15_19 
ROOT
HETATM    1 Cl1  UNK     1      33.516  -7.163  37.745  1.00  0.00    -0.081 Cl
HETATM    2  O1  UNK     1      28.054  -5.022  38.297  1.00  0.00    -0.274 OA
HETATM    3  O2  UNK     1      25.828  -5.304  38.670  1.00  0.00    -0.259 OA
HETATM    4  C1  UNK     1      28.663  -9.256  39.015  1.00  0.00     0.040 C 
HETATM    5  C2  UNK     1      27.473  -9.985  39.643  1.00  0.00     0.005 C 
HETATM    6  C3  UNK     1      28.418  -7.787  38.742  1.00  0.00    -0.033 A 
HETATM    7  C4  UNK     1      26.171  -9.578  38.973  1.00  0.00     0.005 C 
HETATM    8  C5  UNK     1      25.951  -8.073  39.106  1.00  0.00     0.045 C 
HETATM    9  C6  UNK     1      27.183  -7.252  38.811  1.00  0.00     0.025 A 
HETATM   10  C7  UNK     1      29.564  -6.932  38.393  1.00  0.00     0.007 A 
HETATM   11  C8  UNK     1      29.343  -5.572  38.186  1.00  0.00     0.093 A 
HETATM   12  C9  UNK     1      26.947  -5.801  38.591  1.00  0.00     0.295 A 
HETATM   13  C10 UNK     1      30.876  -7.401  38.244  1.00  0.00     0.041 A 
HETATM   14  C11 UNK     1      30.372  -4.688  37.854  1.00  0.00     0.076 A 
HETATM   15  C12 UNK     1      31.667  -5.172  37.717  1.00  0.00     0.093 A 
HETATM   16  C13 UNK     1      31.919  -6.529  37.909  1.00  0.00     0.068 A 
ENDROOT
BRANCH  15  17
HETATM   17  O3  UNK     1      32.666  -4.303  37.398  1.00  0.00    -0.345 OA
BRANCH  17  18
HETATM   18  C14 UNK     1      32.660  -3.765  36.076  1.00  0.00     0.214 C 
BRANCH  18  19
HETATM   19  C15 UNK     1      33.271  -4.765  35.139  1.00  0.00    -0.034 A 
HETATM   20  C16 UNK     1      32.449  -5.561  34.350  1.00  0.00     0.009 A 
HETATM   21  C18 UNK     1      33.017  -6.490  33.479  1.00  0.00     0.001 A 
HETATM   22  C20 UNK     1      34.404  -6.619  33.403  1.00  0.00     0.000 A 
HETATM   23  C19 UNK     1      35.223  -5.816  34.198  1.00  0.00     0.001 A 
HETATM   24  C17 UNK     1      34.654  -4.887  35.070  1.00  0.00     0.009 A 
ENDBRANCH  18  19
ENDBRANCH  17  18
ENDBRANCH  15  17
TORSDOF 3
ENDMDL
MODEL 8
REMARK VINA RESULT:      -8.4     15.269     19.564
REMARK  3 active torsions:
REMARK  status: ('A' for Active; 'I' for Inactive)
REMARK    1  A    between atoms: C12_16  and  O3_4 
REMARK    2  A    between atoms: C14_18  and  O3_4 
REMARK    3  A    between atoms: C14_18  and  C15_19 
ROOT
HETATM    1 Cl1  UNK     1      18.386  -4.598  15.457  1.00  0.00    -0.081 Cl
HETATM    2  O1  UNK     1      19.367   1.199  15.059  1.00  0.00    -0.274 OA
HETATM    3  O2  UNK     1      19.552   3.261  16.001  1.00  0.00    -0.259 OA
HETATM    4  C1  UNK     1      18.765  -0.498  19.005  1.00  0.00     0.040 C 
HETATM    5  C2  UNK     1      19.092   0.438  20.171  1.00  0.00     0.005 C 
HETATM    6  C3  UNK     1      18.950   0.124  17.638  1.00  0.00    -0.033 A 
HETATM    7  C4  UNK     1      18.533   1.829  19.924  1.00  0.00     0.005 C 
HETATM    8  C5  UNK     1      19.115   2.419  18.642  1.00  0.00     0.045 C 
HETATM    9  C6  UNK     1      19.135   1.450  17.484  1.00  0.00     0.025 A 
HETATM   10  C7  UNK     1      18.926  -0.750  16.454  1.00  0.00     0.007 A 
HETATM   11  C8  UNK     1      19.140  -0.182  15.201  1.00  0.00     0.093 A 
HETATM   12  C9  UNK     1      19.365   2.057  16.147  1.00  0.00     0.295 A 
HETATM   13  C10 UNK     1      18.688  -2.131  16.503  1.00  0.00     0.041 A 
HETATM   14  C11 UNK     1      19.136  -0.936  14.025  1.00  0.00     0.076 A 
HETATM   15  C12 UNK     1      18.905  -2.305  14.096  1.00  0.00     0.093 A 
HETATM   16  C13 UNK     1      18.678  -2.902  15.334  1.00  0.00     0.068 A 
ENDROOT
BRANCH  15  17
HETATM   17  O3  UNK     1      18.908  -3.035  12.946  1.00  0.00    -0.345 OA
BRANCH  17  18
HETATM   18  C14 UNK     1      20.134  -3.669  12.584  1.00  0.00     0.214 C 
BRANCH  18  19
HETATM   19  C15 UNK     1      19.883  -5.133  12.370  1.00  0.00    -0.034 A 
HETATM   20  C16 UNK     1      20.606  -6.069  13.100  1.00  0.00     0.009 A 
HETATM   21  C18 UNK     1      20.373  -7.430  12.900  1.00  0.00     0.001 A 
HETATM   22  C20 UNK     1      19.420  -7.846  11.971  1.00  0.00     0.000 A 
HETATM   23  C19 UNK     1      18.698  -6.900  11.242  1.00  0.00     0.001 A 
HETATM   24  C17 UNK     1      18.931  -5.539  11.442  1.00  0.00     0.009 A 
ENDBRANCH  18  19
ENDBRANCH  17  18
ENDBRANCH  15  17
TORSDOF 3
ENDMDL
MODEL 9
REMARK VINA RESULT:      -8.3      2.634      3.895
REMARK  3 active torsions:
REMARK  status: ('A' for Active; 'I' for Inactive)
REMARK    1  A    between atoms: C12_16  and  O3_4 
REMARK    2  A    between atoms: C14_18  and  O3_4 
REMARK    3  A    between atoms: C14_18  and  C15_19 
ROOT
HETATM    1 Cl1  UNK     1      18.923   1.248  29.859  1.00  0.00    -0.081 Cl
HETATM    2  O1  UNK     1      18.007   2.370  35.571  1.00  0.00    -0.274 OA
HETATM    3  O2  UNK     1      17.867   1.697  37.739  1.00  0.00    -0.259 OA
HETATM    4  C1  UNK     1      19.172  -1.654  34.447  1.00  0.00     0.040 C 
HETATM    5  C2  UNK     1      19.557  -2.568  35.613  1.00  0.00     0.005 C 
HETATM    6  C3  UNK     1      18.737  -0.266  34.864  1.00  0.00    -0.033 A 
HETATM    7  C4  UNK     1      18.570  -2.429  36.760  1.00  0.00     0.005 C 
HETATM    8  C5  UNK     1      18.531  -0.987  37.259  1.00  0.00     0.045 C 
HETATM    9  C6  UNK     1      18.472   0.036  36.150  1.00  0.00     0.025 A 
HETATM   10  C7  UNK     1      18.603   0.773  33.829  1.00  0.00     0.007 A 
HETATM   11  C8  UNK     1      18.246   2.061  34.220  1.00  0.00     0.093 A 
HETATM   12  C9  UNK     1      18.092   1.411  36.567  1.00  0.00     0.295 A 
HETATM   13  C10 UNK     1      18.803   0.548  32.460  1.00  0.00     0.041 A 
HETATM   14  C11 UNK     1      18.098   3.108  33.306  1.00  0.00     0.076 A 
HETATM   15  C12 UNK     1      18.307   2.865  31.954  1.00  0.00     0.093 A 
HETATM   16  C13 UNK     1      18.658   1.584  31.531  1.00  0.00     0.068 A 
ENDROOT
BRANCH  15  17
HETATM   17  O3  UNK     1      18.167   3.891  31.070  1.00  0.00    -0.345 OA
BRANCH  17  18
HETATM   18  C14 UNK     1      19.275   4.778  30.926  1.00  0.00     0.214 C 
BRANCH  18  19
HETATM   19  C15 UNK     1      19.090   5.947  31.848  1.00  0.00    -0.034 A 
HETATM   20  C16 UNK     1      17.903   6.671  31.812  1.00  0.00     0.009 A 
HETATM   21  C18 UNK     1      17.732   7.758  32.670  1.00  0.00     0.001 A 
HETATM   22  C20 UNK     1      18.747   8.115  33.556  1.00  0.00     0.000 A 
HETATM   23  C19 UNK     1      19.936   7.384  33.586  1.00  0.00     0.001 A 
HETATM   24  C17 UNK     1      20.108   6.297  32.728  1.00  0.00     0.009 A 
ENDBRANCH  18  19
ENDBRANCH  17  18
ENDBRANCH  15  17
TORSDOF 3
ENDMDL
MODEL 10
REMARK VINA RESULT:      -8.3     16.059     18.809
REMARK  3 active torsions:
REMARK  status: ('A' for Active; 'I' for Inactive)
REMARK    1  A    between atoms: C12_16  and  O3_4 
REMARK    2  A    between atoms: C14_18  and  O3_4 
REMARK    3  A    between atoms: C14_18  and  C15_19 
ROOT
HETATM    1 Cl1  UNK     1      16.997  -4.215  16.507  1.00  0.00    -0.081 Cl
HETATM    2  O1  UNK     1      20.195  -1.203  12.580  1.00  0.00    -0.274 OA
HETATM    3  O2  UNK     1      21.323  -1.066  10.609  1.00  0.00    -0.259 OA
HETATM    4  C1  UNK     1      19.028  -5.258  11.575  1.00  0.00     0.040 C 
HETATM    5  C2  UNK     1      19.272  -5.661  10.119  1.00  0.00     0.005 C 
HETATM    6  C3  UNK     1      19.473  -3.851  11.912  1.00  0.00    -0.033 A 
HETATM    7  C4  UNK     1      20.642  -5.200   9.650  1.00  0.00     0.005 C 
HETATM    8  C5  UNK     1      20.763  -3.682   9.766  1.00  0.00     0.045 C 
HETATM    9  C6  UNK     1      20.241  -3.131  11.071  1.00  0.00     0.025 A 
HETATM   10  C7  UNK     1      19.050  -3.264  13.195  1.00  0.00     0.007 A 
HETATM   11  C8  UNK     1      19.423  -1.954  13.484  1.00  0.00     0.093 A 
HETATM   12  C9  UNK     1      20.639  -1.733  11.379  1.00  0.00     0.295 A 
HETATM   13  C10 UNK     1      18.297  -3.947  14.159  1.00  0.00     0.041 A 
HETATM   14  C11 UNK     1      19.064  -1.318  14.675  1.00  0.00     0.076 A 
HETATM   15  C12 UNK     1      18.311  -2.011  15.616  1.00  0.00     0.093 A 
HETATM   16  C13 UNK     1      17.930  -3.326  15.359  1.00  0.00     0.068 A 
ENDROOT
BRANCH  15  17
HETATM   17  O3  UNK     1      17.960  -1.382  16.772  1.00  0.00    -0.345 OA
BRANCH  17  18
HETATM   18  C14 UNK     1      19.003  -1.126  17.712  1.00  0.00     0.214 C 
BRANCH  18  19
HETATM   19  C15 UNK     1      18.993   0.331  18.069  1.00  0.00    -0.034 A 
HETATM   20  C16 UNK     1      19.153   1.285  17.070  1.00  0.00     0.009 A 
HETATM   21  C18 UNK     1      19.144   2.640  17.402  1.00  0.00     0.001 A 
HETATM   22  C20 UNK     1      18.976   3.033  18.730  1.00  0.00     0.000 A 
HETATM   23  C19 UNK     1      18.816   2.069  19.727  1.00  0.00     0.001 A 
HETATM   24  C17 UNK     1      18.825   0.714  19.395  1.00  0.00     0.009 A 
ENDBRANCH  18  19
ENDBRANCH  17  18
ENDBRANCH  15  17
TORSDOF 3
ENDMDL
