MODEL 1
REMARK VINA RESULT:      -9.5      0.000      0.000
REMARK  6 active torsions:
REMARK  status: ('A' for Active; 'I' for Inactive)
REMARK    1  A    between atoms: C23_30  and  O4_4 
REMARK    2  A    between atoms: C5_12  and  N1_5 
REMARK    3  A    between atoms: C6_13  and  N2_6 
REMARK    4  A    between atoms: C17_24  and  N3_7 
REMARK       I    between atoms: C9_16  and  N3_7 
REMARK    5  A    between atoms: C5_12  and  C7_14 
REMARK    6  A    between atoms: C6_13  and  C9_16 
ROOT
HETATM    1  N1  UNK     1      19.491  -3.386  36.537  1.00  0.00     0.096 N 
HETATM    2  N2  UNK     1      18.509  -0.717  36.021  1.00  0.00     0.100 N 
HETATM    3  C1  UNK     1      18.902  -2.571  37.607  1.00  0.00     0.303 C 
HETATM    4  C2  UNK     1      20.113  -2.528  35.521  1.00  0.00     0.303 C 
HETATM    5  C3  UNK     1      17.886  -1.574  37.037  1.00  0.00     0.303 C 
HETATM    6  C4  UNK     1      19.096  -1.532  34.952  1.00  0.00     0.303 C 
ENDROOT
BRANCH   1   7
HETATM    7  C5  UNK     1      20.462  -4.334  37.082  1.00  0.00     0.312 C 
BRANCH   7   8
HETATM    8  C7  UNK     1      20.332  -5.685  36.471  1.00  0.00    -0.011 A 
HETATM    9  C10 UNK     1      20.409  -5.856  35.144  1.00  0.00     0.092 A 
HETATM   10  C13 UNK     1      20.287  -7.172  34.495  1.00  0.00     0.288 A 
HETATM   11  O1  UNK     1      20.084  -8.261  35.328  1.00  0.00    -0.275 OA
HETATM   12  O3  UNK     1      20.363  -7.291  33.277  1.00  0.00    -0.260 OA
HETATM   13  C11 UNK     1      20.000  -8.113  36.727  1.00  0.00     0.090 A 
HETATM   14  C8  UNK     1      20.117  -6.859  37.328  1.00  0.00     0.006 A 
HETATM   15  C14 UNK     1      19.793  -9.278  37.467  1.00  0.00     0.045 A 
HETATM   16  C12 UNK     1      20.020  -6.795  38.725  1.00  0.00     0.015 A 
HETATM   17  C16 UNK     1      19.813  -7.955  39.480  1.00  0.00     0.007 A 
HETATM   18  C15 UNK     1      19.699  -9.195  38.853  1.00  0.00    -0.059 A 
HETATM   19  C18 UNK     1      19.480 -10.426  39.665  1.00  0.00     0.048 C 
ENDBRANCH   7   8
ENDBRANCH   1   7
BRANCH   2  20
HETATM   20  C6  UNK     1      17.538   0.232  35.477  1.00  0.00     0.375 C 
BRANCH  20  21
HETATM   21  C9  UNK     1      18.270   1.448  34.936  1.00  0.00     0.250 C 
HETATM   22  O2  UNK     1      19.243   1.939  35.500  1.00  0.00    -0.271 OA
HETATM   23  N3  UNK     1      17.678   1.880  33.752  1.00  0.00    -0.326 N 
HETATM   24  H15 UNK     1      16.876   1.356  33.405  1.00  0.00     0.169 HD
BRANCH  23  25
HETATM   25  C17 UNK     1      18.061   2.976  32.943  1.00  0.00     0.034 A 
HETATM   26  C19 UNK     1      18.342   2.781  31.591  1.00  0.00     0.032 A 
HETATM   27  C21 UNK     1      18.719   3.862  30.794  1.00  0.00     0.039 A 
HETATM   28  C23 UNK     1      18.814   5.139  31.350  1.00  0.00     0.068 A 
HETATM   29  C22 UNK     1      18.532   5.333  32.702  1.00  0.00     0.039 A 
HETATM   30  C20 UNK     1      18.156   4.252  33.498  1.00  0.00     0.032 A 
BRANCH  28  31
HETATM   31  O4  UNK     1      19.179   6.194  30.572  1.00  0.00    -0.356 OA
HETATM   32  C24 UNK     1      20.321   6.019  29.734  1.00  0.00     0.210 C 
ENDBRANCH  28  31
ENDBRANCH  23  25
ENDBRANCH  20  21
ENDBRANCH   2  20
TORSDOF 6
ENDMDL
MODEL 2
REMARK VINA RESULT:      -9.3      3.800     12.900
REMARK  6 active torsions:
REMARK  status: ('A' for Active; 'I' for Inactive)
REMARK    1  A    between atoms: C23_30  and  O4_4 
REMARK    2  A    between atoms: C5_12  and  N1_5 
REMARK    3  A    between atoms: C6_13  and  N2_6 
REMARK    4  A    between atoms: C17_24  and  N3_7 
REMARK       I    between atoms: C9_16  and  N3_7 
REMARK    5  A    between atoms: C5_12  and  C7_14 
REMARK    6  A    between atoms: C6_13  and  C9_16 
ROOT
HETATM    1  N1  UNK     1      18.063   5.392  31.658  1.00  0.00     0.096 N 
HETATM    2  N2  UNK     1      19.002   2.748  30.967  1.00  0.00     0.100 N 
HETATM    3  C1  UNK     1      18.985   5.181  30.536  1.00  0.00     0.303 C 
HETATM    4  C2  UNK     1      18.256   4.360  32.683  1.00  0.00     0.303 C 
HETATM    5  C3  UNK     1      18.808   3.780  29.940  1.00  0.00     0.303 C 
HETATM    6  C4  UNK     1      18.078   2.960  32.087  1.00  0.00     0.303 C 
ENDROOT
BRANCH   1   7
HETATM    7  C5  UNK     1      18.235   6.728  32.227  1.00  0.00     0.312 C 
BRANCH   7   8
HETATM    8  C7  UNK     1      16.933   7.406  32.477  1.00  0.00    -0.011 A 
HETATM    9  C10 UNK     1      15.774   6.833  32.123  1.00  0.00     0.092 A 
HETATM   10  C13 UNK     1      14.463   7.463  32.350  1.00  0.00     0.288 A 
HETATM   11  O1  UNK     1      14.468   8.707  32.962  1.00  0.00    -0.275 OA
HETATM   12  O3  UNK     1      13.423   6.909  32.012  1.00  0.00    -0.260 OA
HETATM   13  C11 UNK     1      15.670   9.334  33.347  1.00  0.00     0.090 A 
HETATM   14  C8  UNK     1      16.905   8.724  33.125  1.00  0.00     0.006 A 
HETATM   15  C14 UNK     1      15.555  10.586  33.954  1.00  0.00     0.045 A 
HETATM   16  C12 UNK     1      18.054   9.414  33.535  1.00  0.00     0.015 A 
HETATM   17  C16 UNK     1      17.954  10.669  34.146  1.00  0.00     0.007 A 
HETATM   18  C15 UNK     1      16.707  11.254  34.355  1.00  0.00    -0.059 A 
HETATM   19  C18 UNK     1      16.608  12.592  35.007  1.00  0.00     0.048 C 
ENDBRANCH   7   8
ENDBRANCH   1   7
BRANCH   2  20
HETATM   20  C6  UNK     1      18.830   1.412  30.398  1.00  0.00     0.375 C 
BRANCH  20  21
HETATM   21  C9  UNK     1      19.644   0.413  31.201  1.00  0.00     0.250 C 
HETATM   22  O2  UNK     1      20.812   0.146  30.936  1.00  0.00    -0.271 OA
HETATM   23  N3  UNK     1      18.876  -0.112  32.237  1.00  0.00    -0.326 N 
HETATM   24  H15 UNK     1      17.918   0.220  32.332  1.00  0.00     0.169 HD
BRANCH  23  25
HETATM   25  C17 UNK     1      19.267  -1.068  33.205  1.00  0.00     0.034 A 
HETATM   26  C19 UNK     1      18.767  -0.991  34.505  1.00  0.00     0.032 A 
HETATM   27  C21 UNK     1      19.153  -1.934  35.458  1.00  0.00     0.039 A 
HETATM   28  C23 UNK     1      20.038  -2.955  35.110  1.00  0.00     0.068 A 
HETATM   29  C22 UNK     1      20.536  -3.033  33.810  1.00  0.00     0.039 A 
HETATM   30  C20 UNK     1      20.152  -2.089  32.858  1.00  0.00     0.032 A 
BRANCH  28  31
HETATM   31  O4  UNK     1      20.411  -3.876  36.039  1.00  0.00    -0.356 OA
HETATM   32  C24 UNK     1      20.385  -3.468  37.406  1.00  0.00     0.210 C 
ENDBRANCH  28  31
ENDBRANCH  23  25
ENDBRANCH  20  21
ENDBRANCH   2  20
TORSDOF 6
ENDMDL
MODEL 3
REMARK VINA RESULT:      -9.1      3.745     11.089
REMARK  6 active torsions:
REMARK  status: ('A' for Active; 'I' for Inactive)
REMARK    1  A    between atoms: C23_30  and  O4_4 
REMARK    2  A    between atoms: C5_12  and  N1_5 
REMARK    3  A    between atoms: C6_13  and  N2_6 
REMARK    4  A    between atoms: C17_24  and  N3_7 
REMARK       I    between atoms: C9_16  and  N3_7 
REMARK    5  A    between atoms: C5_12  and  C7_14 
REMARK    6  A    between atoms: C6_13  and  C9_16 
ROOT
HETATM    1  N1  UNK     1      19.959  -3.677  36.825  1.00  0.00     0.096 N 
HETATM    2  N2  UNK     1      19.692  -6.456  37.572  1.00  0.00     0.100 N 
HETATM    3  C1  UNK     1      19.405  -4.666  35.892  1.00  0.00     0.303 C 
HETATM    4  C2  UNK     1      20.908  -4.314  37.745  1.00  0.00     0.303 C 
HETATM    5  C3  UNK     1      18.740  -5.820  36.652  1.00  0.00     0.303 C 
HETATM    6  C4  UNK     1      20.242  -5.466  38.504  1.00  0.00     0.303 C 
ENDROOT
BRANCH   1   7
HETATM    7  C5  UNK     1      20.596  -2.579  36.099  1.00  0.00     0.312 C 
BRANCH   7   8
HETATM    8  C7  UNK     1      19.634  -1.848  35.227  1.00  0.00    -0.011 A 
HETATM    9  C10 UNK     1      18.594  -1.183  35.748  1.00  0.00     0.092 A 
HETATM   10  C13 UNK     1      17.618  -0.447  34.927  1.00  0.00     0.288 A 
HETATM   11  O1  UNK     1      17.818  -0.466  33.555  1.00  0.00    -0.275 OA
HETATM   12  O3  UNK     1      16.678   0.151  35.438  1.00  0.00    -0.260 OA
HETATM   13  C11 UNK     1      18.904  -1.156  32.979  1.00  0.00     0.090 A 
HETATM   14  C8  UNK     1      19.820  -1.849  33.770  1.00  0.00     0.006 A 
HETATM   15  C14 UNK     1      19.006  -1.108  31.587  1.00  0.00     0.045 A 
HETATM   16  C12 UNK     1      20.870  -2.512  33.120  1.00  0.00     0.015 A 
HETATM   17  C16 UNK     1      20.987  -2.471  31.726  1.00  0.00     0.007 A 
HETATM   18  C15 UNK     1      20.056  -1.771  30.960  1.00  0.00    -0.059 A 
HETATM   19  C18 UNK     1      20.187  -1.732  29.475  1.00  0.00     0.048 C 
ENDBRANCH   7   8
ENDBRANCH   1   7
BRANCH   2  20
HETATM   20  C6  UNK     1      19.055  -7.555  38.297  1.00  0.00     0.375 C 
BRANCH  20  21
HETATM   21  C9  UNK     1      19.899  -8.810  38.154  1.00  0.00     0.250 C 
HETATM   22  O2  UNK     1      19.813  -9.756  38.930  1.00  0.00    -0.271 OA
HETATM   23  N3  UNK     1      20.735  -8.704  37.045  1.00  0.00    -0.326 N 
HETATM   24  H15 UNK     1      20.681  -7.851  36.491  1.00  0.00     0.169 HD
BRANCH  23  25
HETATM   25  C17 UNK     1      21.670  -9.656  36.573  1.00  0.00     0.034 A 
HETATM   26  C19 UNK     1      23.027  -9.501  36.854  1.00  0.00     0.032 A 
HETATM   27  C21 UNK     1      23.947 -10.440  36.389  1.00  0.00     0.039 A 
HETATM   28  C23 UNK     1      23.510 -11.535  35.643  1.00  0.00     0.068 A 
HETATM   29  C22 UNK     1      22.153 -11.690  35.363  1.00  0.00     0.039 A 
HETATM   30  C20 UNK     1      21.233 -10.751  35.826  1.00  0.00     0.032 A 
BRANCH  28  31
HETATM   31  O4  UNK     1      24.408 -12.453  35.192  1.00  0.00    -0.356 OA
HETATM   32  C24 UNK     1      24.779 -13.495  36.093  1.00  0.00     0.210 C 
ENDBRANCH  28  31
ENDBRANCH  23  25
ENDBRANCH  20  21
ENDBRANCH   2  20
TORSDOF 6
ENDMDL
MODEL 4
REMARK VINA RESULT:      -8.9      6.477      9.762
REMARK  6 active torsions:
REMARK  status: ('A' for Active; 'I' for Inactive)
REMARK    1  A    between atoms: C23_30  and  O4_4 
REMARK    2  A    between atoms: C5_12  and  N1_5 
REMARK    3  A    between atoms: C6_13  and  N2_6 
REMARK    4  A    between atoms: C17_24  and  N3_7 
REMARK       I    between atoms: C9_16  and  N3_7 
REMARK    5  A    between atoms: C5_12  and  C7_14 
REMARK    6  A    between atoms: C6_13  and  C9_16 
ROOT
HETATM    1  N1  UNK     1      18.437   4.951  32.555  1.00  0.00     0.096 N 
HETATM    2  N2  UNK     1      18.551   7.750  33.264  1.00  0.00     0.100 N 
HETATM    3  C1  UNK     1      19.544   5.805  32.108  1.00  0.00     0.303 C 
HETATM    4  C2  UNK     1      17.214   5.743  32.727  1.00  0.00     0.303 C 
HETATM    5  C3  UNK     1      19.775   6.958  33.092  1.00  0.00     0.303 C 
HETATM    6  C4  UNK     1      17.446   6.895  33.711  1.00  0.00     0.303 C 
ENDROOT
BRANCH   1   7
HETATM    7  C5  UNK     1      18.217   3.853  31.613  1.00  0.00     0.312 C 
BRANCH   7   8
HETATM    8  C7  UNK     1      18.403   2.520  32.250  1.00  0.00    -0.011 A 
HETATM    9  C10 UNK     1      18.074   2.313  33.533  1.00  0.00     0.092 A 
HETATM   10  C13 UNK     1      18.240   1.013  34.205  1.00  0.00     0.288 A 
HETATM   11  O1  UNK     1      18.763  -0.020  33.443  1.00  0.00    -0.275 OA
HETATM   12  O3  UNK     1      17.929   0.860  35.381  1.00  0.00    -0.260 OA
HETATM   13  C11 UNK     1      19.116   0.168  32.091  1.00  0.00     0.090 A 
HETATM   14  C8  UNK     1      18.954   1.405  31.468  1.00  0.00     0.006 A 
HETATM   15  C14 UNK     1      19.634  -0.942  31.421  1.00  0.00     0.045 A 
HETATM   16  C12 UNK     1      19.331   1.510  30.122  1.00  0.00     0.015 A 
HETATM   17  C16 UNK     1      19.851   0.406  29.437  1.00  0.00     0.007 A 
HETATM   18  C15 UNK     1      20.002  -0.818  30.086  1.00  0.00    -0.059 A 
HETATM   19  C18 UNK     1      20.556  -1.991  29.349  1.00  0.00     0.048 C 
ENDBRANCH   7   8
ENDBRANCH   1   7
BRANCH   2  20
HETATM   20  C6  UNK     1      18.771   8.848  34.204  1.00  0.00     0.375 C 
BRANCH  20  21
HETATM   21  C9  UNK     1      17.737   9.934  33.964  1.00  0.00     0.250 C 
HETATM   22  O2  UNK     1      18.012  11.003  33.429  1.00  0.00    -0.271 OA
HETATM   23  N3  UNK     1      16.489   9.521  34.427  1.00  0.00    -0.326 N 
HETATM   24  H15 UNK     1      16.421   8.593  34.841  1.00  0.00     0.169 HD
BRANCH  23  25
HETATM   25  C17 UNK     1      15.271  10.241  34.388  1.00  0.00     0.034 A 
HETATM   26  C19 UNK     1      14.824  10.917  35.523  1.00  0.00     0.032 A 
HETATM   27  C21 UNK     1      13.624  11.626  35.484  1.00  0.00     0.039 A 
HETATM   28  C23 UNK     1      12.871  11.660  34.310  1.00  0.00     0.068 A 
HETATM   29  C22 UNK     1      13.320  10.986  33.175  1.00  0.00     0.039 A 
HETATM   30  C20 UNK     1      14.519  10.275  33.214  1.00  0.00     0.032 A 
BRANCH  28  31
HETATM   31  O4  UNK     1      11.702  12.356  34.271  1.00  0.00    -0.356 OA
HETATM   32  C24 UNK     1      11.469  13.172  33.124  1.00  0.00     0.210 C 
ENDBRANCH  28  31
ENDBRANCH  23  25
ENDBRANCH  20  21
ENDBRANCH   2  20
TORSDOF 6
ENDMDL
MODEL 5
REMARK VINA RESULT:      -8.9      1.693      2.242
REMARK  6 active torsions:
REMARK  status: ('A' for Active; 'I' for Inactive)
REMARK    1  A    between atoms: C23_30  and  O4_4 
REMARK    2  A    between atoms: C5_12  and  N1_5 
REMARK    3  A    between atoms: C6_13  and  N2_6 
REMARK    4  A    between atoms: C17_24  and  N3_7 
REMARK       I    between atoms: C9_16  and  N3_7 
REMARK    5  A    between atoms: C5_12  and  C7_14 
REMARK    6  A    between atoms: C6_13  and  C9_16 
ROOT
HETATM    1  N1  UNK     1      19.483  -3.449  36.639  1.00  0.00     0.096 N 
HETATM    2  N2  UNK     1      18.380  -0.792  36.360  1.00  0.00     0.100 N 
HETATM    3  C1  UNK     1      20.044  -2.489  35.681  1.00  0.00     0.303 C 
HETATM    4  C2  UNK     1      18.053  -3.192  36.847  1.00  0.00     0.303 C 
HETATM    5  C3  UNK     1      19.811  -1.049  36.153  1.00  0.00     0.303 C 
HETATM    6  C4  UNK     1      17.822  -1.752  37.319  1.00  0.00     0.303 C 
ENDROOT
BRANCH   1   7
HETATM    7  C5  UNK     1      19.703  -4.823  36.186  1.00  0.00     0.312 C 
BRANCH   7   8
HETATM    8  C7  UNK     1      20.566  -5.592  37.124  1.00  0.00    -0.011 A 
HETATM    9  C10 UNK     1      21.682  -5.057  37.637  1.00  0.00     0.092 A 
HETATM   10  C13 UNK     1      22.566  -5.779  38.567  1.00  0.00     0.288 A 
HETATM   11  O1  UNK     1      22.192  -7.071  38.906  1.00  0.00    -0.275 OA
HETATM   12  O3  UNK     1      23.580  -5.257  39.017  1.00  0.00    -0.260 OA
HETATM   13  C11 UNK     1      21.023  -7.660  38.384  1.00  0.00     0.090 A 
HETATM   14  C8  UNK     1      20.195  -6.963  37.502  1.00  0.00     0.006 A 
HETATM   15  C14 UNK     1      20.746  -8.965  38.793  1.00  0.00     0.045 A 
HETATM   16  C12 UNK     1      19.053  -7.620  37.027  1.00  0.00     0.015 A 
HETATM   17  C16 UNK     1      18.761  -8.929  37.429  1.00  0.00     0.007 A 
HETATM   18  C15 UNK     1      19.606  -9.600  38.310  1.00  0.00    -0.059 A 
HETATM   19  C18 UNK     1      19.289 -10.994  38.734  1.00  0.00     0.048 C 
ENDBRANCH   7   8
ENDBRANCH   1   7
BRANCH   2  20
HETATM   20  C6  UNK     1      18.160   0.581  36.812  1.00  0.00     0.375 C 
BRANCH  20  21
HETATM   21  C9  UNK     1      18.779   1.546  35.815  1.00  0.00     0.250 C 
HETATM   22  O2  UNK     1      19.869   2.078  35.999  1.00  0.00    -0.271 OA
HETATM   23  N3  UNK     1      17.940   1.705  34.714  1.00  0.00    -0.326 N 
HETATM   24  H15 UNK     1      17.066   1.182  34.706  1.00  0.00     0.169 HD
BRANCH  23  25
HETATM   25  C17 UNK     1      18.155   2.515  33.574  1.00  0.00     0.034 A 
HETATM   26  C19 UNK     1      18.336   1.926  32.323  1.00  0.00     0.032 A 
HETATM   27  C21 UNK     1      18.547   2.726  31.200  1.00  0.00     0.039 A 
HETATM   28  C23 UNK     1      18.577   4.115  31.327  1.00  0.00     0.068 A 
HETATM   29  C22 UNK     1      18.395   4.703  32.578  1.00  0.00     0.039 A 
HETATM   30  C20 UNK     1      18.185   3.904  33.702  1.00  0.00     0.032 A 
BRANCH  28  31
HETATM   31  O4  UNK     1      18.779   4.894  30.231  1.00  0.00    -0.356 OA
HETATM   32  C24 UNK     1      19.938   5.727  30.231  1.00  0.00     0.210 C 
ENDBRANCH  28  31
ENDBRANCH  23  25
ENDBRANCH  20  21
ENDBRANCH   2  20
TORSDOF 6
ENDMDL
MODEL 6
REMARK VINA RESULT:      -8.8      3.830     10.887
REMARK  6 active torsions:
REMARK  status: ('A' for Active; 'I' for Inactive)
REMARK    1  A    between atoms: C23_30  and  O4_4 
REMARK    2  A    between atoms: C5_12  and  N1_5 
REMARK    3  A    between atoms: C6_13  and  N2_6 
REMARK    4  A    between atoms: C17_24  and  N3_7 
REMARK       I    between atoms: C9_16  and  N3_7 
REMARK    5  A    between atoms: C5_12  and  C7_14 
REMARK    6  A    between atoms: C6_13  and  C9_16 
ROOT
HETATM    1  N1  UNK     1      20.161  -3.612  36.790  1.00  0.00     0.096 N 
HETATM    2  N2  UNK     1      19.864  -6.375  37.588  1.00  0.00     0.100 N 
HETATM    3  C1  UNK     1      19.539  -4.599  35.900  1.00  0.00     0.303 C 
HETATM    4  C2  UNK     1      21.139  -4.261  37.672  1.00  0.00     0.303 C 
HETATM    5  C3  UNK     1      18.884  -5.726  36.707  1.00  0.00     0.303 C 
HETATM    6  C4  UNK     1      20.484  -5.387  38.478  1.00  0.00     0.303 C 
ENDROOT
BRANCH   1   7
HETATM    7  C5  UNK     1      20.788  -2.540  36.019  1.00  0.00     0.312 C 
BRANCH   7   8
HETATM    8  C7  UNK     1      19.851  -1.937  35.030  1.00  0.00    -0.011 A 
HETATM    9  C10 UNK     1      20.063  -2.057  33.713  1.00  0.00     0.092 A 
HETATM   10  C13 UNK     1      19.165  -1.479  32.698  1.00  0.00     0.288 A 
HETATM   11  O1  UNK     1      18.060  -0.785  33.167  1.00  0.00    -0.275 OA
HETATM   12  O3  UNK     1      19.390  -1.609  31.500  1.00  0.00    -0.260 OA
HETATM   13  C11 UNK     1      17.811  -0.643  34.547  1.00  0.00     0.090 A 
HETATM   14  C8  UNK     1      18.671  -1.197  35.497  1.00  0.00     0.006 A 
HETATM   15  C14 UNK     1      16.669   0.076  34.904  1.00  0.00     0.045 A 
HETATM   16  C12 UNK     1      18.354  -1.009  36.849  1.00  0.00     0.015 A 
HETATM   17  C16 UNK     1      17.212  -0.291  37.222  1.00  0.00     0.007 A 
HETATM   18  C15 UNK     1      16.371   0.251  36.252  1.00  0.00    -0.059 A 
HETATM   19  C18 UNK     1      15.156   1.015  36.658  1.00  0.00     0.048 C 
ENDBRANCH   7   8
ENDBRANCH   1   7
BRANCH   2  20
HETATM   20  C6  UNK     1      19.238  -7.448  38.359  1.00  0.00     0.375 C 
BRANCH  20  21
HETATM   21  C9  UNK     1      20.065  -8.715  38.224  1.00  0.00     0.250 C 
HETATM   22  O2  UNK     1      20.013  -9.629  39.041  1.00  0.00    -0.271 OA
HETATM   23  N3  UNK     1      20.845  -8.660  37.071  1.00  0.00    -0.326 N 
HETATM   24  H15 UNK     1      20.769  -7.830  36.486  1.00  0.00     0.169 HD
BRANCH  23  25
HETATM   25  C17 UNK     1      21.749  -9.638  36.592  1.00  0.00     0.034 A 
HETATM   26  C19 UNK     1      21.275 -10.729  35.863  1.00  0.00     0.032 A 
HETATM   27  C21 UNK     1      22.166 -11.692  35.391  1.00  0.00     0.039 A 
HETATM   28  C23 UNK     1      23.532 -11.565  35.646  1.00  0.00     0.068 A 
HETATM   29  C22 UNK     1      24.005 -10.473  36.374  1.00  0.00     0.039 A 
HETATM   30  C20 UNK     1      23.114  -9.511  36.848  1.00  0.00     0.032 A 
BRANCH  28  31
HETATM   31  O4  UNK     1      24.401 -12.503  35.182  1.00  0.00    -0.356 OA
HETATM   32  C24 UNK     1      24.799 -13.527  36.093  1.00  0.00     0.210 C 
ENDBRANCH  28  31
ENDBRANCH  23  25
ENDBRANCH  20  21
ENDBRANCH   2  20
TORSDOF 6
ENDMDL
MODEL 7
REMARK VINA RESULT:      -8.7      5.109      8.683
REMARK  6 active torsions:
REMARK  status: ('A' for Active; 'I' for Inactive)
REMARK    1  A    between atoms: C23_30  and  O4_4 
REMARK    2  A    between atoms: C5_12  and  N1_5 
REMARK    3  A    between atoms: C6_13  and  N2_6 
REMARK    4  A    between atoms: C17_24  and  N3_7 
REMARK       I    between atoms: C9_16  and  N3_7 
REMARK    5  A    between atoms: C5_12  and  C7_14 
REMARK    6  A    between atoms: C6_13  and  C9_16 
ROOT
HETATM    1  N1  UNK     1      18.893   3.823  31.381  1.00  0.00     0.096 N 
HETATM    2  N2  UNK     1      19.376   6.455  32.470  1.00  0.00     0.100 N 
HETATM    3  C1  UNK     1      19.450   4.899  30.552  1.00  0.00     0.303 C 
HETATM    4  C2  UNK     1      18.042   4.377  32.440  1.00  0.00     0.303 C 
HETATM    5  C3  UNK     1      20.229   5.901  31.411  1.00  0.00     0.303 C 
HETATM    6  C4  UNK     1      18.822   5.378  33.298  1.00  0.00     0.303 C 
ENDROOT
BRANCH   1   7
HETATM    7  C5  UNK     1      18.147   2.869  30.560  1.00  0.00     0.312 C 
BRANCH   7   8
HETATM    8  C7  UNK     1      18.795   1.529  30.526  1.00  0.00    -0.011 A 
HETATM    9  C10 UNK     1      19.356   1.058  29.404  1.00  0.00     0.092 A 
HETATM   10  C13 UNK     1      20.008  -0.260  29.323  1.00  0.00     0.288 A 
HETATM   11  O1  UNK     1      20.021  -1.020  30.482  1.00  0.00    -0.275 OA
HETATM   12  O3  UNK     1      20.512  -0.658  28.278  1.00  0.00    -0.260 OA
HETATM   13  C11 UNK     1      19.440  -0.552  31.677  1.00  0.00     0.090 A 
HETATM   14  C8  UNK     1      18.826   0.700  31.739  1.00  0.00     0.006 A 
HETATM   15  C14 UNK     1      19.512  -1.403  32.782  1.00  0.00     0.045 A 
HETATM   16  C12 UNK     1      18.270   1.091  32.964  1.00  0.00     0.015 A 
HETATM   17  C16 UNK     1      18.335   0.249  34.081  1.00  0.00     0.007 A 
HETATM   18  C15 UNK     1      18.955  -0.996  33.989  1.00  0.00    -0.059 A 
HETATM   19  C18 UNK     1      19.020  -1.887  35.183  1.00  0.00     0.048 C 
ENDBRANCH   7   8
ENDBRANCH   1   7
BRANCH   2  20
HETATM   20  C6  UNK     1      20.122   7.410  33.290  1.00  0.00     0.375 C 
BRANCH  20  21
HETATM   21  C9  UNK     1      19.170   8.102  34.250  1.00  0.00     0.250 C 
HETATM   22  O2  UNK     1      19.219   7.936  35.465  1.00  0.00    -0.271 OA
HETATM   23  N3  UNK     1      18.286   8.917  33.547  1.00  0.00    -0.326 N 
HETATM   24  H15 UNK     1      18.380   8.955  32.534  1.00  0.00     0.169 HD
BRANCH  23  25
HETATM   25  C17 UNK     1      17.250   9.725  34.074  1.00  0.00     0.034 A 
HETATM   26  C19 UNK     1      17.426  11.105  34.179  1.00  0.00     0.032 A 
HETATM   27  C21 UNK     1      16.405  11.901  34.697  1.00  0.00     0.039 A 
HETATM   28  C23 UNK     1      15.207  11.317  35.111  1.00  0.00     0.068 A 
HETATM   29  C22 UNK     1      15.031   9.938  35.005  1.00  0.00     0.039 A 
HETATM   30  C20 UNK     1      16.052   9.141  34.488  1.00  0.00     0.032 A 
BRANCH  28  31
HETATM   31  O4  UNK     1      14.210  12.094  35.614  1.00  0.00    -0.356 OA
HETATM   32  C24 UNK     1      14.473  12.776  36.840  1.00  0.00     0.210 C 
ENDBRANCH  28  31
ENDBRANCH  23  25
ENDBRANCH  20  21
ENDBRANCH   2  20
TORSDOF 6
ENDMDL
MODEL 8
REMARK VINA RESULT:      -8.7      6.454     10.075
REMARK  6 active torsions:
REMARK  status: ('A' for Active; 'I' for Inactive)
REMARK    1  A    between atoms: C23_30  and  O4_4 
REMARK    2  A    between atoms: C5_12  and  N1_5 
REMARK    3  A    between atoms: C6_13  and  N2_6 
REMARK    4  A    between atoms: C17_24  and  N3_7 
REMARK       I    between atoms: C9_16  and  N3_7 
REMARK    5  A    between atoms: C5_12  and  C7_14 
REMARK    6  A    between atoms: C6_13  and  C9_16 
ROOT
HETATM    1  N1  UNK     1      18.459   4.953  32.583  1.00  0.00     0.096 N 
HETATM    2  N2  UNK     1      18.717   7.756  33.240  1.00  0.00     0.100 N 
HETATM    3  C1  UNK     1      19.540   5.770  32.020  1.00  0.00     0.303 C 
HETATM    4  C2  UNK     1      17.280   5.782  32.863  1.00  0.00     0.303 C 
HETATM    5  C3  UNK     1      19.897   6.927  32.962  1.00  0.00     0.303 C 
HETATM    6  C4  UNK     1      17.638   6.938  33.804  1.00  0.00     0.303 C 
ENDROOT
BRANCH   1   7
HETATM    7  C5  UNK     1      18.118   3.852  31.683  1.00  0.00     0.312 C 
BRANCH   7   8
HETATM    8  C7  UNK     1      18.346   2.521  32.310  1.00  0.00    -0.011 A 
HETATM    9  C10 UNK     1      18.047   2.301  33.598  1.00  0.00     0.092 A 
HETATM   10  C13 UNK     1      18.256   1.003  34.260  1.00  0.00     0.288 A 
HETATM   11  O1  UNK     1      18.788  -0.015  33.483  1.00  0.00    -0.275 OA
HETATM   12  O3  UNK     1      17.971   0.838  35.441  1.00  0.00    -0.260 OA
HETATM   13  C11 UNK     1      19.111   0.187  32.126  1.00  0.00     0.090 A 
HETATM   14  C8  UNK     1      18.908   1.423  31.512  1.00  0.00     0.006 A 
HETATM   15  C14 UNK     1      19.641  -0.909  31.442  1.00  0.00     0.045 A 
HETATM   16  C12 UNK     1      19.257   1.542  30.160  1.00  0.00     0.015 A 
HETATM   17  C16 UNK     1      19.788   0.453  29.460  1.00  0.00     0.007 A 
HETATM   18  C15 UNK     1      19.980  -0.770  30.100  1.00  0.00    -0.059 A 
HETATM   19  C18 UNK     1      20.547  -1.927  29.347  1.00  0.00     0.048 C 
ENDBRANCH   7   8
ENDBRANCH   1   7
BRANCH   2  20
HETATM   20  C6  UNK     1      19.058   8.857  34.140  1.00  0.00     0.375 C 
BRANCH  20  21
HETATM   21  C9  UNK     1      18.203  10.066  33.804  1.00  0.00     0.250 C 
HETATM   22  O2  UNK     1      17.084   9.968  33.310  1.00  0.00    -0.271 OA
HETATM   23  N3  UNK     1      18.873  11.239  34.142  1.00  0.00    -0.326 N 
HETATM   24  H15 UNK     1      19.800  11.153  34.556  1.00  0.00     0.169 HD
BRANCH  23  25
HETATM   25  C17 UNK     1      18.418  12.571  33.988  1.00  0.00     0.034 A 
HETATM   26  C19 UNK     1      17.503  13.105  34.894  1.00  0.00     0.032 A 
HETATM   27  C21 UNK     1      17.055  14.417  34.741  1.00  0.00     0.039 A 
HETATM   28  C23 UNK     1      17.523  15.195  33.681  1.00  0.00     0.068 A 
HETATM   29  C22 UNK     1      18.440  14.661  32.776  1.00  0.00     0.039 A 
HETATM   30  C20 UNK     1      18.886  13.348  32.928  1.00  0.00     0.032 A 
BRANCH  28  31
HETATM   31  O4  UNK     1      17.089  16.477  33.534  1.00  0.00    -0.356 OA
HETATM   32  C24 UNK     1      17.866  17.334  32.699  1.00  0.00     0.210 C 
ENDBRANCH  28  31
ENDBRANCH  23  25
ENDBRANCH  20  21
ENDBRANCH   2  20
TORSDOF 6
ENDMDL
MODEL 9
REMARK VINA RESULT:      -8.7      2.016      2.557
REMARK  6 active torsions:
REMARK  status: ('A' for Active; 'I' for Inactive)
REMARK    1  A    between atoms: C23_30  and  O4_4 
REMARK    2  A    between atoms: C5_12  and  N1_5 
REMARK    3  A    between atoms: C6_13  and  N2_6 
REMARK    4  A    between atoms: C17_24  and  N3_7 
REMARK       I    between atoms: C9_16  and  N3_7 
REMARK    5  A    between atoms: C5_12  and  C7_14 
REMARK    6  A    between atoms: C6_13  and  C9_16 
ROOT
HETATM    1  N1  UNK     1      19.532  -2.716  35.747  1.00  0.00     0.096 N 
HETATM    2  N2  UNK     1      18.786  -0.178  34.581  1.00  0.00     0.100 N 
HETATM    3  C1  UNK     1      19.112  -1.587  36.586  1.00  0.00     0.303 C 
HETATM    4  C2  UNK     1      20.156  -2.232  34.510  1.00  0.00     0.303 C 
HETATM    5  C3  UNK     1      18.160  -0.662  35.819  1.00  0.00     0.303 C 
HETATM    6  C4  UNK     1      19.204  -1.308  33.743  1.00  0.00     0.303 C 
ENDROOT
BRANCH   1   7
HETATM    7  C5  UNK     1      20.442  -3.595  36.479  1.00  0.00     0.312 C 
BRANCH   7   8
HETATM    8  C7  UNK     1      19.782  -4.861  36.902  1.00  0.00    -0.011 A 
HETATM    9  C10 UNK     1      18.544  -5.168  36.492  1.00  0.00     0.092 A 
HETATM   10  C13 UNK     1      17.851  -6.407  36.884  1.00  0.00     0.288 A 
HETATM   11  O1  UNK     1      18.545  -7.272  37.716  1.00  0.00    -0.275 OA
HETATM   12  O3  UNK     1      16.717  -6.654  36.489  1.00  0.00    -0.260 OA
HETATM   13  C11 UNK     1      19.849  -6.977  38.162  1.00  0.00     0.090 A 
HETATM   14  C8  UNK     1      20.493  -5.798  37.783  1.00  0.00     0.006 A 
HETATM   15  C14 UNK     1      20.451  -7.920  38.997  1.00  0.00     0.045 A 
HETATM   16  C12 UNK     1      21.787  -5.579  38.271  1.00  0.00     0.015 A 
HETATM   17  C16 UNK     1      22.405  -6.515  39.108  1.00  0.00     0.007 A 
HETATM   18  C15 UNK     1      21.737  -7.684  39.471  1.00  0.00    -0.059 A 
HETATM   19  C18 UNK     1      22.402  -8.677  40.364  1.00  0.00     0.048 C 
ENDBRANCH   7   8
ENDBRANCH   1   7
BRANCH   2  20
HETATM   20  C6  UNK     1      17.876   0.702  33.850  1.00  0.00     0.375 C 
BRANCH  20  21
HETATM   21  C9  UNK     1      18.122   2.142  34.267  1.00  0.00     0.250 C 
HETATM   22  O2  UNK     1      18.391   2.459  35.421  1.00  0.00    -0.271 OA
HETATM   23  N3  UNK     1      18.002   2.989  33.167  1.00  0.00    -0.326 N 
HETATM   24  H15 UNK     1      17.783   2.567  32.267  1.00  0.00     0.169 HD
BRANCH  23  25
HETATM   25  C17 UNK     1      18.157   4.395  33.139  1.00  0.00     0.034 A 
HETATM   26  C19 UNK     1      19.023   5.021  34.036  1.00  0.00     0.032 A 
HETATM   27  C21 UNK     1      19.175   6.407  34.007  1.00  0.00     0.039 A 
HETATM   28  C23 UNK     1      18.462   7.168  33.080  1.00  0.00     0.068 A 
HETATM   29  C22 UNK     1      17.597   6.542  32.183  1.00  0.00     0.039 A 
HETATM   30  C20 UNK     1      17.444   5.156  32.212  1.00  0.00     0.032 A 
BRANCH  28  31
HETATM   31  O4  UNK     1      18.613   8.520  33.050  1.00  0.00    -0.356 OA
HETATM   32  C24 UNK     1      17.948   9.271  34.065  1.00  0.00     0.210 C 
ENDBRANCH  28  31
ENDBRANCH  23  25
ENDBRANCH  20  21
ENDBRANCH   2  20
TORSDOF 6
ENDMDL
MODEL 10
REMARK VINA RESULT:      -8.7     14.104     17.287
REMARK  6 active torsions:
REMARK  status: ('A' for Active; 'I' for Inactive)
REMARK    1  A    between atoms: C23_30  and  O4_4 
REMARK    2  A    between atoms: C5_12  and  N1_5 
REMARK    3  A    between atoms: C6_13  and  N2_6 
REMARK    4  A    between atoms: C17_24  and  N3_7 
REMARK       I    between atoms: C9_16  and  N3_7 
REMARK    5  A    between atoms: C5_12  and  C7_14 
REMARK    6  A    between atoms: C6_13  and  C9_16 
ROOT
HETATM    1  N1  UNK     1      32.133  -6.003  35.943  1.00  0.00     0.096 N 
HETATM    2  N2  UNK     1      34.762  -6.485  34.842  1.00  0.00     0.100 N 
HETATM    3  C1  UNK     1      32.383  -7.127  35.034  1.00  0.00     0.303 C 
HETATM    4  C2  UNK     1      33.055  -4.897  35.657  1.00  0.00     0.303 C 
HETATM    5  C3  UNK     1      33.841  -7.592  35.129  1.00  0.00     0.303 C 
HETATM    6  C4  UNK     1      34.512  -5.362  35.753  1.00  0.00     0.303 C 
ENDROOT
BRANCH   1   7
HETATM    7  C5  UNK     1      30.743  -5.558  35.849  1.00  0.00     0.312 C 
BRANCH   7   8
HETATM    8  C7  UNK     1      30.065  -5.549  37.174  1.00  0.00    -0.011 A 
HETATM    9  C10 UNK     1      30.095  -4.465  37.961  1.00  0.00     0.092 A 
HETATM   10  C13 UNK     1      29.439  -4.410  39.279  1.00  0.00     0.288 A 
HETATM   11  O1  UNK     1      28.769  -5.551  39.689  1.00  0.00    -0.275 OA
HETATM   12  O3  UNK     1      29.488  -3.400  39.972  1.00  0.00    -0.260 OA
HETATM   13  C11 UNK     1      28.719  -6.706  38.883  1.00  0.00     0.090 A 
HETATM   14  C8  UNK     1      29.345  -6.744  37.637  1.00  0.00     0.006 A 
HETATM   15  C14 UNK     1      28.015  -7.797  39.397  1.00  0.00     0.045 A 
HETATM   16  C12 UNK     1      29.250  -7.930  36.897  1.00  0.00     0.015 A 
HETATM   17  C16 UNK     1      28.548  -9.032  37.399  1.00  0.00     0.007 A 
HETATM   18  C15 UNK     1      27.932  -8.966  38.648  1.00  0.00    -0.059 A 
HETATM   19  C18 UNK     1      27.186 -10.143  39.176  1.00  0.00     0.048 C 
ENDBRANCH   7   8
ENDBRANCH   1   7
BRANCH   2  20
HETATM   20  C6  UNK     1      36.152  -6.929  34.936  1.00  0.00     0.375 C 
BRANCH  20  21
HETATM   21  C9  UNK     1      36.621  -7.408  33.573  1.00  0.00     0.250 C 
HETATM   22  O2  UNK     1      36.677  -6.669  32.595  1.00  0.00    -0.271 OA
HETATM   23  N3  UNK     1      36.964  -8.757  33.628  1.00  0.00    -0.326 N 
HETATM   24  H15 UNK     1      36.870  -9.233  34.523  1.00  0.00     0.169 HD
BRANCH  23  25
HETATM   25  C17 UNK     1      37.443  -9.571  32.574  1.00  0.00     0.034 A 
HETATM   26  C19 UNK     1      36.681  -9.736  31.417  1.00  0.00     0.032 A 
HETATM   27  C21 UNK     1      37.155 -10.538  30.379  1.00  0.00     0.039 A 
HETATM   28  C23 UNK     1      38.391 -11.174  30.497  1.00  0.00     0.068 A 
HETATM   29  C22 UNK     1      39.153 -11.008  31.653  1.00  0.00     0.039 A 
HETATM   30  C20 UNK     1      38.679 -10.207  32.692  1.00  0.00     0.032 A 
BRANCH  28  31
HETATM   31  O4  UNK     1      38.855 -11.954  29.482  1.00  0.00    -0.356 OA
HETATM   32  C24 UNK     1      40.180 -11.698  29.020  1.00  0.00     0.210 C 
ENDBRANCH  28  31
ENDBRANCH  23  25
ENDBRANCH  20  21
ENDBRANCH   2  20
TORSDOF 6
ENDMDL
