MODEL 1
REMARK VINA RESULT:      -8.1      0.000      0.000
REMARK  5 active torsions:
REMARK  status: ('A' for Active; 'I' for Inactive)
REMARK    1  A    between atoms: C14_19  and  O1_1 
REMARK    2  A    between atoms: C9_14  and  N1_5 
REMARK    3  A    between atoms: C1_6  and  C4_9 
REMARK    4  A    between atoms: C14_19  and  C2_7 
REMARK    5  A    between atoms: C2_7  and  C3_8 
ROOT
HETATM    1  C2  UNK     1      18.564   7.835  33.214  1.00  0.00     0.048 C 
HETATM    2  C4  UNK     1      19.483   6.996  32.729  1.00  0.00     0.030 C 
ENDROOT
BRANCH   1   3
HETATM    3  C14 UNK     1      19.113   8.975  34.007  1.00  0.00     0.177 C 
HETATM    4  O2  UNK     1      20.011   8.903  34.832  1.00  0.00    -0.646 OA
BRANCH   3   5
HETATM    5  O1  UNK     1      18.472  10.127  33.698  1.00  0.00    -0.773 OA
HETATM    6  H11 UNK     1      19.087  10.891  33.660  1.00  0.00     0.167 HD
ENDBRANCH   3   5
ENDBRANCH   1   3
BRANCH   1   7
HETATM    7  C3  UNK     1      17.110   7.676  33.018  1.00  0.00    -0.019 A 
HETATM    8  C7  UNK     1      16.309   7.391  34.110  1.00  0.00     0.012 A 
HETATM    9  C12 UNK     1      14.934   7.239  33.926  1.00  0.00     0.001 A 
HETATM   10  C15 UNK     1      14.383   7.377  32.652  1.00  0.00     0.000 A 
HETATM   11  C13 UNK     1      15.205   7.665  31.563  1.00  0.00     0.001 A 
HETATM   12  C8  UNK     1      16.580   7.816  31.747  1.00  0.00     0.012 A 
ENDBRANCH   1   7
BRANCH   2  13
HETATM   13  C1  UNK     1      19.146   5.829  31.930  1.00  0.00    -0.035 A 
HETATM   14  C5  UNK     1      18.522   4.733  32.525  1.00  0.00     0.014 A 
HETATM   15  C10 UNK     1      18.198   3.614  31.758  1.00  0.00     0.037 A 
HETATM   16  C9  UNK     1      18.496   3.591  30.395  1.00  0.00     0.102 A 
HETATM   17  C11 UNK     1      19.120   4.688  29.800  1.00  0.00     0.037 A 
HETATM   18  C6  UNK     1      19.444   5.806  30.567  1.00  0.00     0.014 A 
BRANCH  16  19
HETATM   19  N1  UNK     1      18.165   2.452  29.615  1.00  0.00    -0.116 N 
HETATM   20  O3  UNK     1      17.995   1.350  30.189  1.00  0.00    -0.532 OA
HETATM   21  O4  UNK     1      18.051   2.579  28.372  1.00  0.00    -0.532 OA
ENDBRANCH  16  19
ENDBRANCH   2  13
TORSDOF 5
ENDMDL
MODEL 2
REMARK VINA RESULT:      -7.2     22.091     24.147
REMARK  5 active torsions:
REMARK  status: ('A' for Active; 'I' for Inactive)
REMARK    1  A    between atoms: C14_19  and  O1_1 
REMARK    2  A    between atoms: C9_14  and  N1_5 
REMARK    3  A    between atoms: C1_6  and  C4_9 
REMARK    4  A    between atoms: C14_19  and  C2_7 
REMARK    5  A    between atoms: C2_7  and  C3_8 
ROOT
HETATM    1  C2  UNK     1      15.276   6.708   9.384  1.00  0.00     0.048 C 
HETATM    2  C4  UNK     1      14.687   5.717   8.709  1.00  0.00     0.030 C 
ENDROOT
BRANCH   1   3
HETATM    3  C14 UNK     1      16.676   6.422   9.819  1.00  0.00     0.177 C 
HETATM    4  O2  UNK     1      17.393   7.179  10.454  1.00  0.00    -0.646 OA
BRANCH   3   5
HETATM    5  O1  UNK     1      17.065   5.192   9.407  1.00  0.00    -0.773 OA
HETATM    6  H11 UNK     1      16.797   5.014   8.480  1.00  0.00     0.167 HD
ENDBRANCH   3   5
ENDBRANCH   1   3
BRANCH   1   7
HETATM    7  C3  UNK     1      14.626   7.993   9.709  1.00  0.00    -0.019 A 
HETATM    8  C7  UNK     1      14.898   9.104   8.930  1.00  0.00     0.012 A 
HETATM    9  C12 UNK     1      14.285  10.318   9.238  1.00  0.00     0.001 A 
HETATM   10  C15 UNK     1      13.408  10.402  10.320  1.00  0.00     0.000 A 
HETATM   11  C13 UNK     1      13.146   9.271  11.094  1.00  0.00     0.001 A 
HETATM   12  C8  UNK     1      13.759   8.057  10.786  1.00  0.00     0.012 A 
ENDBRANCH   1   7
BRANCH   2  13
HETATM   13  C1  UNK     1      13.328   5.807   8.199  1.00  0.00    -0.035 A 
HETATM   14  C5  UNK     1      13.075   6.480   7.004  1.00  0.00     0.014 A 
HETATM   15  C10 UNK     1      11.772   6.566   6.513  1.00  0.00     0.037 A 
HETATM   16  C9  UNK     1      10.721   5.977   7.217  1.00  0.00     0.102 A 
HETATM   17  C11 UNK     1      10.974   5.303   8.413  1.00  0.00     0.037 A 
HETATM   18  C6  UNK     1      12.277   5.218   8.903  1.00  0.00     0.014 A 
BRANCH  16  19
HETATM   19  N1  UNK     1       9.395   6.063   6.718  1.00  0.00    -0.116 N 
HETATM   20  O3  UNK     1       8.469   5.502   7.353  1.00  0.00    -0.532 OA
HETATM   21  O4  UNK     1       9.184   6.697   5.657  1.00  0.00    -0.532 OA
ENDBRANCH  16  19
ENDBRANCH   2  13
TORSDOF 5
ENDMDL
MODEL 3
REMARK VINA RESULT:      -7.1     22.097     24.108
REMARK  5 active torsions:
REMARK  status: ('A' for Active; 'I' for Inactive)
REMARK    1  A    between atoms: C14_19  and  O1_1 
REMARK    2  A    between atoms: C9_14  and  N1_5 
REMARK    3  A    between atoms: C1_6  and  C4_9 
REMARK    4  A    between atoms: C14_19  and  C2_7 
REMARK    5  A    between atoms: C2_7  and  C3_8 
ROOT
HETATM    1  C2  UNK     1      15.275   6.707   9.378  1.00  0.00     0.048 C 
HETATM    2  C4  UNK     1      14.680   5.714   8.712  1.00  0.00     0.030 C 
ENDROOT
BRANCH   1   3
HETATM    3  C14 UNK     1      16.676   6.422   9.808  1.00  0.00     0.177 C 
HETATM    4  O2  UNK     1      17.399   7.183  10.431  1.00  0.00    -0.646 OA
BRANCH   3   5
HETATM    5  O1  UNK     1      17.060   5.187   9.404  1.00  0.00    -0.773 OA
HETATM    6  H11 UNK     1      16.612   4.478   9.915  1.00  0.00     0.167 HD
ENDBRANCH   3   5
ENDBRANCH   1   3
BRANCH   1   7
HETATM    7  C3  UNK     1      14.628   7.994   9.700  1.00  0.00    -0.019 A 
HETATM    8  C7  UNK     1      13.771   8.068  10.784  1.00  0.00     0.012 A 
HETATM    9  C12 UNK     1      13.159   9.284  11.088  1.00  0.00     0.001 A 
HETATM   10  C15 UNK     1      13.416  10.408  10.302  1.00  0.00     0.000 A 
HETATM   11  C13 UNK     1      14.283  10.316   9.214  1.00  0.00     0.001 A 
HETATM   12  C8  UNK     1      14.895   9.099   8.910  1.00  0.00     0.012 A 
ENDBRANCH   1   7
BRANCH   2  13
HETATM   13  C1  UNK     1      13.318   5.802   8.209  1.00  0.00    -0.035 A 
HETATM   14  C5  UNK     1      12.271   5.225   8.926  1.00  0.00     0.014 A 
HETATM   15  C10 UNK     1      10.965   5.311   8.445  1.00  0.00     0.037 A 
HETATM   16  C9  UNK     1      10.706   5.975   7.245  1.00  0.00     0.102 A 
HETATM   17  C11 UNK     1      11.754   6.552   6.527  1.00  0.00     0.037 A 
HETATM   18  C6  UNK     1      13.059   6.466   7.009  1.00  0.00     0.014 A 
BRANCH  16  19
HETATM   19  N1  UNK     1       9.376   6.063   6.755  1.00  0.00    -0.116 N 
HETATM   20  O3  UNK     1       9.162   6.687   5.687  1.00  0.00    -0.532 OA
HETATM   21  O4  UNK     1       8.452   5.515   7.401  1.00  0.00    -0.532 OA
ENDBRANCH  16  19
ENDBRANCH   2  13
TORSDOF 5
ENDMDL
MODEL 4
REMARK VINA RESULT:      -7.1     17.013     19.143
REMARK  5 active torsions:
REMARK  status: ('A' for Active; 'I' for Inactive)
REMARK    1  A    between atoms: C14_19  and  O1_1 
REMARK    2  A    between atoms: C9_14  and  N1_5 
REMARK    3  A    between atoms: C1_6  and  C4_9 
REMARK    4  A    between atoms: C14_19  and  C2_7 
REMARK    5  A    between atoms: C2_7  and  C3_8 
ROOT
HETATM    1  C2  UNK     1      32.934  -6.153  37.148  1.00  0.00     0.048 C 
HETATM    2  C4  UNK     1      32.289  -6.016  38.308  1.00  0.00     0.030 C 
ENDROOT
BRANCH   1   3
HETATM    3  C14 UNK     1      34.423  -6.203  37.262  1.00  0.00     0.177 C 
HETATM    4  O2  UNK     1      35.213  -5.624  36.533  1.00  0.00    -0.646 OA
BRANCH   3   5
HETATM    5  O1  UNK     1      34.799  -6.997  38.293  1.00  0.00    -0.773 OA
HETATM    6  H11 UNK     1      35.464  -7.665  38.018  1.00  0.00     0.167 HD
ENDBRANCH   3   5
ENDBRANCH   1   3
BRANCH   1   7
HETATM    7  C3  UNK     1      32.270  -6.236  35.832  1.00  0.00    -0.019 A 
HETATM    8  C7  UNK     1      31.994  -5.071  35.140  1.00  0.00     0.012 A 
HETATM    9  C12 UNK     1      31.365  -5.149  33.897  1.00  0.00     0.001 A 
HETATM   10  C15 UNK     1      31.023  -6.392  33.366  1.00  0.00     0.000 A 
HETATM   11  C13 UNK     1      31.308  -7.557  34.079  1.00  0.00     0.001 A 
HETATM   12  C8  UNK     1      31.937  -7.479  35.321  1.00  0.00     0.012 A 
ENDBRANCH   1   7
BRANCH   2  13
HETATM   13  C1  UNK     1      30.838  -5.951  38.404  1.00  0.00    -0.035 A 
HETATM   14  C5  UNK     1      30.087  -7.126  38.411  1.00  0.00     0.014 A 
HETATM   15  C10 UNK     1      28.697  -7.065  38.504  1.00  0.00     0.037 A 
HETATM   16  C9  UNK     1      28.057  -5.828  38.592  1.00  0.00     0.102 A 
HETATM   17  C11 UNK     1      28.809  -4.652  38.585  1.00  0.00     0.037 A 
HETATM   18  C6  UNK     1      30.199  -4.714  38.492  1.00  0.00     0.014 A 
BRANCH  16  19
HETATM   19  N1  UNK     1      26.642  -5.765  38.687  1.00  0.00    -0.116 N 
HETATM   20  O3  UNK     1      25.971  -6.804  38.472  1.00  0.00    -0.532 OA
HETATM   21  O4  UNK     1      26.100  -4.674  38.985  1.00  0.00    -0.532 OA
ENDBRANCH  16  19
ENDBRANCH   2  13
TORSDOF 5
ENDMDL
MODEL 5
REMARK VINA RESULT:      -6.9     17.345     19.142
REMARK  5 active torsions:
REMARK  status: ('A' for Active; 'I' for Inactive)
REMARK    1  A    between atoms: C14_19  and  O1_1 
REMARK    2  A    between atoms: C9_14  and  N1_5 
REMARK    3  A    between atoms: C1_6  and  C4_9 
REMARK    4  A    between atoms: C14_19  and  C2_7 
REMARK    5  A    between atoms: C2_7  and  C3_8 
ROOT
HETATM    1  C2  UNK     1      29.931  -4.915  38.208  1.00  0.00     0.048 C 
HETATM    2  C4  UNK     1      31.051  -4.209  38.035  1.00  0.00     0.030 C 
ENDROOT
BRANCH   1   3
HETATM    3  C14 UNK     1      28.914  -4.270  39.091  1.00  0.00     0.177 C 
HETATM    4  O2  UNK     1      27.703  -4.328  38.945  1.00  0.00    -0.646 OA
BRANCH   3   5
HETATM    5  O1  UNK     1      29.514  -3.587  40.095  1.00  0.00    -0.773 OA
HETATM    6  H11 UNK     1      30.303  -4.059  40.440  1.00  0.00     0.167 HD
ENDBRANCH   3   5
ENDBRANCH   1   3
BRANCH   1   7
HETATM    7  C3  UNK     1      29.683  -6.241  37.607  1.00  0.00    -0.019 A 
HETATM    8  C7  UNK     1      29.202  -6.316  36.312  1.00  0.00     0.012 A 
HETATM    9  C12 UNK     1      28.967  -7.568  35.744  1.00  0.00     0.001 A 
HETATM   10  C15 UNK     1      29.218  -8.726  36.481  1.00  0.00     0.000 A 
HETATM   11  C13 UNK     1      29.704  -8.631  37.785  1.00  0.00     0.001 A 
HETATM   12  C8  UNK     1      29.939  -7.378  38.353  1.00  0.00     0.012 A 
ENDBRANCH   1   7
BRANCH   2  13
HETATM   13  C1  UNK     1      32.156  -4.668  37.207  1.00  0.00    -0.035 A 
HETATM   14  C5  UNK     1      33.107  -5.540  37.736  1.00  0.00     0.014 A 
HETATM   15  C10 UNK     1      34.166  -5.981  36.943  1.00  0.00     0.037 A 
HETATM   16  C9  UNK     1      34.273  -5.552  35.620  1.00  0.00     0.102 A 
HETATM   17  C11 UNK     1      33.320  -4.681  35.091  1.00  0.00     0.037 A 
HETATM   18  C6  UNK     1      32.262  -4.239  35.884  1.00  0.00     0.014 A 
BRANCH  16  19
HETATM   19  N1  UNK     1      35.350  -6.002  34.812  1.00  0.00    -0.116 N 
HETATM   20  O3  UNK     1      36.307  -6.605  35.355  1.00  0.00    -0.532 OA
HETATM   21  O4  UNK     1      35.316  -5.786  33.577  1.00  0.00    -0.532 OA
ENDBRANCH  16  19
ENDBRANCH   2  13
TORSDOF 5
ENDMDL
MODEL 6
REMARK VINA RESULT:      -6.9      9.429     12.145
REMARK  5 active torsions:
REMARK  status: ('A' for Active; 'I' for Inactive)
REMARK    1  A    between atoms: C14_19  and  O1_1 
REMARK    2  A    between atoms: C9_14  and  N1_5 
REMARK    3  A    between atoms: C1_6  and  C4_9 
REMARK    4  A    between atoms: C14_19  and  C2_7 
REMARK    5  A    between atoms: C2_7  and  C3_8 
ROOT
HETATM    1  C2  UNK     1      20.780  -5.123  37.563  1.00  0.00     0.048 C 
HETATM    2  C4  UNK     1      20.952  -3.801  37.495  1.00  0.00     0.030 C 
ENDROOT
BRANCH   1   3
HETATM    3  C14 UNK     1      21.690  -5.825  38.517  1.00  0.00     0.177 C 
HETATM    4  O2  UNK     1      21.360  -6.695  39.308  1.00  0.00    -0.646 OA
BRANCH   3   5
HETATM    5  O1  UNK     1      22.957  -5.361  38.401  1.00  0.00    -0.773 OA
HETATM    6  H11 UNK     1      23.244  -4.874  39.204  1.00  0.00     0.167 HD
ENDBRANCH   3   5
ENDBRANCH   1   3
BRANCH   1   7
HETATM    7  C3  UNK     1      19.791  -5.874  36.764  1.00  0.00    -0.019 A 
HETATM    8  C7  UNK     1      18.481  -5.947  37.205  1.00  0.00     0.012 A 
HETATM    9  C12 UNK     1      17.547  -6.657  36.450  1.00  0.00     0.001 A 
HETATM   10  C15 UNK     1      17.938  -7.283  35.267  1.00  0.00     0.000 A 
HETATM   11  C13 UNK     1      19.263  -7.198  34.838  1.00  0.00     0.001 A 
HETATM   12  C8  UNK     1      20.197  -6.488  35.592  1.00  0.00     0.012 A 
ENDBRANCH   1   7
BRANCH   2  13
HETATM   13  C1  UNK     1      20.160  -2.943  36.627  1.00  0.00    -0.035 A 
HETATM   14  C5  UNK     1      19.041  -2.281  37.134  1.00  0.00     0.014 A 
HETATM   15  C10 UNK     1      18.282  -1.458  36.303  1.00  0.00     0.037 A 
HETATM   16  C9  UNK     1      18.642  -1.295  34.965  1.00  0.00     0.102 A 
HETATM   17  C11 UNK     1      19.761  -1.958  34.458  1.00  0.00     0.037 A 
HETATM   18  C6  UNK     1      20.519  -2.781  35.289  1.00  0.00     0.014 A 
BRANCH  16  19
HETATM   19  N1  UNK     1      17.869  -0.457  34.118  1.00  0.00    -0.116 N 
HETATM   20  O3  UNK     1      16.619  -0.480  34.217  1.00  0.00    -0.532 OA
HETATM   21  O4  UNK     1      18.458   0.284  33.295  1.00  0.00    -0.532 OA
ENDBRANCH  16  19
ENDBRANCH   2  13
TORSDOF 5
ENDMDL
MODEL 7
REMARK VINA RESULT:      -6.8      2.513      4.188
REMARK  5 active torsions:
REMARK  status: ('A' for Active; 'I' for Inactive)
REMARK    1  A    between atoms: C14_19  and  O1_1 
REMARK    2  A    between atoms: C9_14  and  N1_5 
REMARK    3  A    between atoms: C1_6  and  C4_9 
REMARK    4  A    between atoms: C14_19  and  C2_7 
REMARK    5  A    between atoms: C2_7  and  C3_8 
ROOT
HETATM    1  C2  UNK     1      18.039   6.076  31.727  1.00  0.00     0.048 C 
HETATM    2  C4  UNK     1      17.307   4.962  31.651  1.00  0.00     0.030 C 
ENDROOT
BRANCH   1   3
HETATM    3  C14 UNK     1      17.252   7.345  31.709  1.00  0.00     0.177 C 
HETATM    4  O2  UNK     1      16.870   7.961  32.692  1.00  0.00    -0.646 OA
BRANCH   3   5
HETATM    5  O1  UNK     1      17.000   7.735  30.437  1.00  0.00    -0.773 OA
HETATM    6  H11 UNK     1      17.680   7.407  29.811  1.00  0.00     0.167 HD
ENDBRANCH   3   5
ENDBRANCH   1   3
BRANCH   1   7
HETATM    7  C3  UNK     1      19.513   6.097  31.808  1.00  0.00    -0.019 A 
HETATM    8  C7  UNK     1      20.119   6.367  33.022  1.00  0.00     0.012 A 
HETATM    9  C12 UNK     1      21.512   6.387  33.099  1.00  0.00     0.001 A 
HETATM   10  C15 UNK     1      22.276   6.136  31.959  1.00  0.00     0.000 A 
HETATM   11  C13 UNK     1      21.648   5.865  30.744  1.00  0.00     0.001 A 
HETATM   12  C8  UNK     1      20.255   5.845  30.667  1.00  0.00     0.012 A 
ENDBRANCH   1   7
BRANCH   2  13
HETATM   13  C1  UNK     1      17.890   3.629  31.657  1.00  0.00    -0.035 A 
HETATM   14  C5  UNK     1      18.038   2.939  32.860  1.00  0.00     0.014 A 
HETATM   15  C10 UNK     1      18.596   1.661  32.867  1.00  0.00     0.037 A 
HETATM   16  C9  UNK     1      19.006   1.072  31.670  1.00  0.00     0.102 A 
HETATM   17  C11 UNK     1      18.858   1.763  30.467  1.00  0.00     0.037 A 
HETATM   18  C6  UNK     1      18.300   3.040  30.461  1.00  0.00     0.014 A 
BRANCH  16  19
HETATM   19  N1  UNK     1      19.573  -0.230  31.677  1.00  0.00    -0.116 N 
HETATM   20  O3  UNK     1      18.862  -1.201  32.028  1.00  0.00    -0.532 OA
HETATM   21  O4  UNK     1      20.770  -0.373  31.331  1.00  0.00    -0.532 OA
ENDBRANCH  16  19
ENDBRANCH   2  13
TORSDOF 5
ENDMDL
MODEL 8
REMARK VINA RESULT:      -6.7      3.054      6.385
REMARK  5 active torsions:
REMARK  status: ('A' for Active; 'I' for Inactive)
REMARK    1  A    between atoms: C14_19  and  O1_1 
REMARK    2  A    between atoms: C9_14  and  N1_5 
REMARK    3  A    between atoms: C1_6  and  C4_9 
REMARK    4  A    between atoms: C14_19  and  C2_7 
REMARK    5  A    between atoms: C2_7  and  C3_8 
ROOT
HETATM    1  C2  UNK     1      18.333   4.878  33.443  1.00  0.00     0.048 C 
HETATM    2  C4  UNK     1      17.880   5.713  34.381  1.00  0.00     0.030 C 
ENDROOT
BRANCH   1   3
HETATM    3  C14 UNK     1      18.165   3.428  33.760  1.00  0.00     0.177 C 
HETATM    4  O2  UNK     1      17.771   2.570  32.986  1.00  0.00    -0.646 OA
BRANCH   3   5
HETATM    5  O1  UNK     1      18.504   3.177  35.047  1.00  0.00    -0.773 OA
HETATM    6  H11 UNK     1      18.084   3.810  35.668  1.00  0.00     0.167 HD
ENDBRANCH   3   5
ENDBRANCH   1   3
BRANCH   1   7
HETATM    7  C3  UNK     1      18.971   5.311  32.184  1.00  0.00    -0.019 A 
HETATM    8  C7  UNK     1      20.345   5.472  32.143  1.00  0.00     0.012 A 
HETATM    9  C12 UNK     1      20.948   5.882  30.954  1.00  0.00     0.001 A 
HETATM   10  C15 UNK     1      20.168   6.123  29.824  1.00  0.00     0.000 A 
HETATM   11  C13 UNK     1      18.784   5.956  29.883  1.00  0.00     0.001 A 
HETATM   12  C8  UNK     1      18.181   5.546  31.072  1.00  0.00     0.012 A 
ENDBRANCH   1   7
BRANCH   2  13
HETATM   13  C1  UNK     1      17.950   7.160  34.253  1.00  0.00    -0.035 A 
HETATM   14  C5  UNK     1      19.130   7.831  34.572  1.00  0.00     0.014 A 
HETATM   15  C10 UNK     1      19.199   9.219  34.448  1.00  0.00     0.037 A 
HETATM   16  C9  UNK     1      18.087   9.936  34.005  1.00  0.00     0.102 A 
HETATM   17  C11 UNK     1      16.906   9.264  33.686  1.00  0.00     0.037 A 
HETATM   18  C6  UNK     1      16.838   7.877  33.810  1.00  0.00     0.014 A 
BRANCH  16  19
HETATM   19  N1  UNK     1      18.157  11.348  33.878  1.00  0.00    -0.116 N 
HETATM   20  O3  UNK     1      17.347  12.057  34.524  1.00  0.00    -0.532 OA
HETATM   21  O4  UNK     1      19.025  11.850  33.125  1.00  0.00    -0.532 OA
ENDBRANCH  16  19
ENDBRANCH   2  13
TORSDOF 5
ENDMDL
MODEL 9
REMARK VINA RESULT:      -6.5     16.693     18.768
REMARK  5 active torsions:
REMARK  status: ('A' for Active; 'I' for Inactive)
REMARK    1  A    between atoms: C14_19  and  O1_1 
REMARK    2  A    between atoms: C9_14  and  N1_5 
REMARK    3  A    between atoms: C1_6  and  C4_9 
REMARK    4  A    between atoms: C14_19  and  C2_7 
REMARK    5  A    between atoms: C2_7  and  C3_8 
ROOT
HETATM    1  C2  UNK     1      28.382  -5.865  37.828  1.00  0.00     0.048 C 
HETATM    2  C4  UNK     1      29.316  -4.961  38.133  1.00  0.00     0.030 C 
ENDROOT
BRANCH   1   3
HETATM    3  C14 UNK     1      27.053  -5.634  38.470  1.00  0.00     0.177 C 
HETATM    4  O2  UNK     1      26.204  -6.486  38.678  1.00  0.00    -0.646 OA
BRANCH   3   5
HETATM    5  O1  UNK     1      26.898  -4.328  38.794  1.00  0.00    -0.773 OA
HETATM    6  H11 UNK     1      27.604  -4.013  39.400  1.00  0.00     0.167 HD
ENDBRANCH   3   5
ENDBRANCH   1   3
BRANCH   1   7
HETATM    7  C3  UNK     1      28.607  -7.026  36.945  1.00  0.00    -0.019 A 
HETATM    8  C7  UNK     1      28.247  -6.941  35.612  1.00  0.00     0.012 A 
HETATM    9  C12 UNK     1      28.459  -8.038  34.777  1.00  0.00     0.001 A 
HETATM   10  C15 UNK     1      29.029  -9.203  35.289  1.00  0.00     0.000 A 
HETATM   11  C13 UNK     1      29.386  -9.272  36.635  1.00  0.00     0.001 A 
HETATM   12  C8  UNK     1      29.174  -8.174  37.470  1.00  0.00     0.012 A 
ENDBRANCH   1   7
BRANCH   2  13
HETATM   13  C1  UNK     1      30.670  -5.013  37.604  1.00  0.00    -0.035 A 
HETATM   14  C5  UNK     1      31.689  -5.601  38.353  1.00  0.00     0.014 A 
HETATM   15  C10 UNK     1      32.987  -5.652  37.846  1.00  0.00     0.037 A 
HETATM   16  C9  UNK     1      33.266  -5.116  36.589  1.00  0.00     0.102 A 
HETATM   17  C11 UNK     1      32.247  -4.527  35.839  1.00  0.00     0.037 A 
HETATM   18  C6  UNK     1      30.949  -4.476  36.347  1.00  0.00     0.014 A 
BRANCH  16  19
HETATM   19  N1  UNK     1      34.588  -5.168  36.072  1.00  0.00    -0.116 N 
HETATM   20  O3  UNK     1      34.843  -4.577  34.995  1.00  0.00    -0.532 OA
HETATM   21  O4  UNK     1      35.464  -5.804  36.705  1.00  0.00    -0.532 OA
ENDBRANCH  16  19
ENDBRANCH   2  13
TORSDOF 5
ENDMDL
MODEL 10
REMARK VINA RESULT:      -6.5     18.486     20.258
REMARK  5 active torsions:
REMARK  status: ('A' for Active; 'I' for Inactive)
REMARK    1  A    between atoms: C14_19  and  O1_1 
REMARK    2  A    between atoms: C9_14  and  N1_5 
REMARK    3  A    between atoms: C1_6  and  C4_9 
REMARK    4  A    between atoms: C14_19  and  C2_7 
REMARK    5  A    between atoms: C2_7  and  C3_8 
ROOT
HETATM    1  C2  UNK     1      31.670  -4.795  36.693  1.00  0.00     0.048 C 
HETATM    2  C4  UNK     1      32.627  -4.323  35.890  1.00  0.00     0.030 C 
ENDROOT
BRANCH   1   3
HETATM    3  C14 UNK     1      30.744  -3.759  37.241  1.00  0.00     0.177 C 
HETATM    4  O2  UNK     1      29.884  -3.947  38.087  1.00  0.00    -0.646 OA
BRANCH   3   5
HETATM    5  O1  UNK     1      30.975  -2.556  36.663  1.00  0.00    -0.773 OA
HETATM    6  H11 UNK     1      30.394  -1.855  37.029  1.00  0.00     0.167 HD
ENDBRANCH   3   5
ENDBRANCH   1   3
BRANCH   1   7
HETATM    7  C3  UNK     1      31.513  -6.219  37.051  1.00  0.00    -0.019 A 
HETATM    8  C7  UNK     1      30.650  -7.010  36.314  1.00  0.00     0.012 A 
HETATM    9  C12 UNK     1      30.502  -8.355  36.653  1.00  0.00     0.001 A 
HETATM   10  C15 UNK     1      31.220  -8.888  37.723  1.00  0.00     0.000 A 
HETATM   11  C13 UNK     1      32.086  -8.075  38.455  1.00  0.00     0.001 A 
HETATM   12  C8  UNK     1      32.235  -6.730  38.116  1.00  0.00     0.012 A 
ENDBRANCH   1   7
BRANCH   2  13
HETATM   13  C1  UNK     1      33.621  -5.176  35.258  1.00  0.00    -0.035 A 
HETATM   14  C5  UNK     1      34.859  -5.375  35.868  1.00  0.00     0.014 A 
HETATM   15  C10 UNK     1      35.812  -6.194  35.263  1.00  0.00     0.037 A 
HETATM   16  C9  UNK     1      35.527  -6.815  34.047  1.00  0.00     0.102 A 
HETATM   17  C11 UNK     1      34.288  -6.617  33.436  1.00  0.00     0.037 A 
HETATM   18  C6  UNK     1      33.335  -5.798  34.042  1.00  0.00     0.014 A 
BRANCH  16  19
HETATM   19  N1  UNK     1      36.496  -7.649  33.431  1.00  0.00    -0.116 N 
HETATM   20  O3  UNK     1      36.492  -7.767  32.181  1.00  0.00    -0.532 OA
HETATM   21  O4  UNK     1      37.332  -8.246  34.151  1.00  0.00    -0.532 OA
ENDBRANCH  16  19
ENDBRANCH   2  13
TORSDOF 5
ENDMDL
