MODEL 1
REMARK VINA RESULT:      -8.8      0.000      0.000
REMARK  8 active torsions:
REMARK  status: ('A' for Active; 'I' for Inactive)
REMARK    1  A    between atoms: C2_7  and  O1_1 
REMARK    2  A    between atoms: C8_13  and  O1_1 
REMARK    3  A    between atoms: C3_8  and  O2_2 
REMARK    4  A    between atoms: C12_17  and  N1_5 
REMARK       I    between atoms: C21_26  and  N1_5 
REMARK    5  A    between atoms: C1_6  and  C2_7 
REMARK    6  A    between atoms: C5_10  and  C9_14 
REMARK    7  A    between atoms: C15_20  and  C16_21 
REMARK    8  A    between atoms: C16_21  and  C17_22 
ROOT
HETATM    1  C1  UNK     1      21.740  -5.948  38.568  1.00  0.00     0.000 A 
HETATM    2  C3  UNK     1      23.026  -6.336  38.947  1.00  0.00     0.076 A 
HETATM    3  C4  UNK     1      20.662  -6.808  38.779  1.00  0.00     0.023 A 
HETATM    4  C5  UNK     1      20.870  -8.055  39.368  1.00  0.00    -0.035 A 
HETATM    5  C6  UNK     1      23.233  -7.583  39.537  1.00  0.00     0.038 A 
HETATM    6  C7  UNK     1      22.155  -8.442  39.747  1.00  0.00     0.014 A 
ENDROOT
BRANCH   1   7
HETATM    7  C2  UNK     1      21.501  -4.616  37.936  1.00  0.00     0.217 C 
BRANCH   7   8
HETATM    8  O1  UNK     1      20.389  -4.707  37.055  1.00  0.00    -0.347 OA
BRANCH   8   9
HETATM    9  C8  UNK     1      19.933  -3.533  36.514  1.00  0.00     0.069 A 
HETATM   10  C10 UNK     1      20.290  -3.178  35.213  1.00  0.00     0.039 A 
HETATM   11  C13 UNK     1      19.825  -1.984  34.663  1.00  0.00     0.032 A 
HETATM   12  C12 UNK     1      19.002  -1.144  35.413  1.00  0.00     0.034 A 
HETATM   13  C14 UNK     1      18.645  -1.499  36.714  1.00  0.00     0.032 A 
HETATM   14  C11 UNK     1      19.110  -2.693  37.265  1.00  0.00     0.039 A 
BRANCH  12  15
HETATM   15  N1  UNK     1      18.537   0.049  34.863  1.00  0.00    -0.328 N 
HETATM   16  C21 UNK     1      18.884   1.360  35.219  1.00  0.00     0.218 C 
HETATM   17  O4  UNK     1      19.674   1.711  36.088  1.00  0.00    -0.274 OA
HETATM   18  C25 UNK     1      18.155   2.379  34.379  1.00  0.00     0.117 C 
HETATM   19  H12 UNK     1      17.859  -0.054  34.109  1.00  0.00     0.169 HD
ENDBRANCH  12  15
ENDBRANCH   8   9
ENDBRANCH   7   8
ENDBRANCH   1   7
BRANCH   2  20
HETATM   20  O2  UNK     1      24.090  -5.508  38.748  1.00  0.00    -0.355 OA
HETATM   21  C18 UNK     1      25.388  -6.062  38.958  1.00  0.00     0.210 C 
ENDBRANCH   2  20
BRANCH   4  22
HETATM   22  C9  UNK     1      19.732  -8.965  39.590  1.00  0.00     0.015 C 
HETATM   23  C15 UNK     1      19.303  -9.875  38.704  1.00  0.00     0.056 C 
BRANCH  23  24
HETATM   24  C16 UNK     1      19.985 -10.030  37.373  1.00  0.00     0.182 C 
HETATM   25  O3  UNK     1      20.611 -11.066  37.104  1.00  0.00    -0.288 OA
BRANCH  24  26
HETATM   26  C17 UNK     1      19.870  -8.954  36.402  1.00  0.00     0.014 A 
HETATM   27  C19 UNK     1      18.673  -8.247  36.283  1.00  0.00     0.015 A 
HETATM   28  C22 UNK     1      18.563  -7.214  35.352  1.00  0.00     0.001 A 
HETATM   29  C24 UNK     1      19.650  -6.888  34.541  1.00  0.00     0.000 A 
HETATM   30  C23 UNK     1      20.846  -7.594  34.660  1.00  0.00     0.001 A 
HETATM   31  C20 UNK     1      20.956  -8.627  35.591  1.00  0.00     0.015 A 
ENDBRANCH  24  26
ENDBRANCH  23  24
ENDBRANCH   4  22
TORSDOF 8
ENDMDL
MODEL 2
REMARK VINA RESULT:      -8.0      7.911     12.093
REMARK  8 active torsions:
REMARK  status: ('A' for Active; 'I' for Inactive)
REMARK    1  A    between atoms: C2_7  and  O1_1 
REMARK    2  A    between atoms: C8_13  and  O1_1 
REMARK    3  A    between atoms: C3_8  and  O2_2 
REMARK    4  A    between atoms: C12_17  and  N1_5 
REMARK       I    between atoms: C21_26  and  N1_5 
REMARK    5  A    between atoms: C1_6  and  C2_7 
REMARK    6  A    between atoms: C5_10  and  C9_14 
REMARK    7  A    between atoms: C15_20  and  C16_21 
REMARK    8  A    between atoms: C16_21  and  C17_22 
ROOT
HETATM    1  C1  UNK     1      31.993  -9.357  36.881  1.00  0.00     0.000 A 
HETATM    2  C3  UNK     1      32.050  -9.918  35.605  1.00  0.00     0.076 A 
HETATM    3  C4  UNK     1      32.768  -8.237  37.185  1.00  0.00     0.023 A 
HETATM    4  C5  UNK     1      33.599  -7.680  36.214  1.00  0.00    -0.035 A 
HETATM    5  C6  UNK     1      32.881  -9.361  34.634  1.00  0.00     0.038 A 
HETATM    6  C7  UNK     1      33.656  -8.241  34.939  1.00  0.00     0.014 A 
ENDROOT
BRANCH   1   7
HETATM    7  C2  UNK     1      31.108  -9.942  37.932  1.00  0.00     0.217 C 
BRANCH   7   8
HETATM    8  O1  UNK     1      30.101  -9.000  38.277  1.00  0.00    -0.347 OA
BRANCH   8   9
HETATM    9  C8  UNK     1      28.821  -9.294  37.884  1.00  0.00     0.069 A 
HETATM   10  C10 UNK     1      28.499  -9.339  36.528  1.00  0.00     0.039 A 
HETATM   11  C13 UNK     1      27.197  -9.640  36.129  1.00  0.00     0.032 A 
HETATM   12  C12 UNK     1      26.216  -9.897  37.087  1.00  0.00     0.034 A 
HETATM   13  C14 UNK     1      26.538  -9.851  38.443  1.00  0.00     0.032 A 
HETATM   14  C11 UNK     1      27.840  -9.551  38.843  1.00  0.00     0.039 A 
BRANCH  12  15
HETATM   15  N1  UNK     1      24.914 -10.197  36.689  1.00  0.00    -0.328 N 
HETATM   16  C21 UNK     1      24.454 -11.344  36.027  1.00  0.00     0.218 C 
HETATM   17  O4  UNK     1      25.115 -12.315  35.673  1.00  0.00    -0.274 OA
HETATM   18  C25 UNK     1      22.969 -11.286  35.774  1.00  0.00     0.117 C 
HETATM   19  H12 UNK     1      24.217  -9.488  36.910  1.00  0.00     0.169 HD
ENDBRANCH  12  15
ENDBRANCH   8   9
ENDBRANCH   7   8
ENDBRANCH   1   7
BRANCH   2  20
HETATM   20  O2  UNK     1      31.300 -11.012  35.292  1.00  0.00    -0.355 OA
HETATM   21  C18 UNK     1      31.782 -11.847  34.239  1.00  0.00     0.210 C 
ENDBRANCH   2  20
BRANCH   4  22
HETATM   22  C9  UNK     1      34.419  -6.498  36.534  1.00  0.00     0.015 C 
HETATM   23  C15 UNK     1      34.036  -5.229  36.331  1.00  0.00     0.056 C 
BRANCH  23  24
HETATM   24  C16 UNK     1      32.688  -4.922  35.738  1.00  0.00     0.182 C 
HETATM   25  O3  UNK     1      32.588  -4.565  34.554  1.00  0.00    -0.288 OA
BRANCH  24  26
HETATM   26  C17 UNK     1      31.508  -5.081  36.571  1.00  0.00     0.014 A 
HETATM   27  C19 UNK     1      31.509  -4.604  37.882  1.00  0.00     0.015 A 
HETATM   28  C22 UNK     1      30.376  -4.756  38.681  1.00  0.00     0.001 A 
HETATM   29  C24 UNK     1      29.241  -5.385  38.169  1.00  0.00     0.000 A 
HETATM   30  C23 UNK     1      29.239  -5.862  36.859  1.00  0.00     0.001 A 
HETATM   31  C20 UNK     1      30.372  -5.710  36.060  1.00  0.00     0.015 A 
ENDBRANCH  24  26
ENDBRANCH  23  24
ENDBRANCH   4  22
TORSDOF 8
ENDMDL
MODEL 3
REMARK VINA RESULT:      -7.9      9.085     12.351
REMARK  8 active torsions:
REMARK  status: ('A' for Active; 'I' for Inactive)
REMARK    1  A    between atoms: C2_7  and  O1_1 
REMARK    2  A    between atoms: C8_13  and  O1_1 
REMARK    3  A    between atoms: C3_8  and  O2_2 
REMARK    4  A    between atoms: C12_17  and  N1_5 
REMARK       I    between atoms: C21_26  and  N1_5 
REMARK    5  A    between atoms: C1_6  and  C2_7 
REMARK    6  A    between atoms: C5_10  and  C9_14 
REMARK    7  A    between atoms: C15_20  and  C16_21 
REMARK    8  A    between atoms: C16_21  and  C17_22 
ROOT
HETATM    1  C1  UNK     1      29.907  -6.243  36.642  1.00  0.00     0.000 A 
HETATM    2  C3  UNK     1      30.102  -6.453  38.008  1.00  0.00     0.076 A 
HETATM    3  C4  UNK     1      30.757  -5.388  35.941  1.00  0.00     0.023 A 
HETATM    4  C5  UNK     1      31.801  -4.743  36.604  1.00  0.00    -0.035 A 
HETATM    5  C6  UNK     1      31.145  -5.808  38.672  1.00  0.00     0.038 A 
HETATM    6  C7  UNK     1      31.995  -4.953  37.969  1.00  0.00     0.014 A 
ENDROOT
BRANCH   1   7
HETATM    7  C2  UNK     1      28.794  -6.926  35.917  1.00  0.00     0.217 C 
BRANCH   7   8
HETATM    8  O1  UNK     1      28.541  -6.245  34.695  1.00  0.00    -0.347 OA
BRANCH   8   9
HETATM    9  C8  UNK     1      28.428  -7.018  33.570  1.00  0.00     0.069 A 
HETATM   10  C10 UNK     1      27.733  -6.539  32.460  1.00  0.00     0.039 A 
HETATM   11  C13 UNK     1      27.619  -7.326  31.314  1.00  0.00     0.032 A 
HETATM   12  C12 UNK     1      28.202  -8.594  31.278  1.00  0.00     0.034 A 
HETATM   13  C14 UNK     1      28.897  -9.073  32.388  1.00  0.00     0.032 A 
HETATM   14  C11 UNK     1      29.011  -8.285  33.534  1.00  0.00     0.039 A 
BRANCH  12  15
HETATM   15  N1  UNK     1      28.089  -9.381  30.133  1.00  0.00    -0.328 N 
HETATM   16  C21 UNK     1      28.850  -9.314  28.957  1.00  0.00     0.218 C 
HETATM   17  O4  UNK     1      29.773  -8.546  28.710  1.00  0.00    -0.274 OA
HETATM   18  C25 UNK     1      28.411 -10.346  27.949  1.00  0.00     0.117 C 
HETATM   19  H12 UNK     1      27.358 -10.090  30.163  1.00  0.00     0.169 HD
ENDBRANCH  12  15
ENDBRANCH   8   9
ENDBRANCH   7   8
ENDBRANCH   1   7
BRANCH   2  20
HETATM   20  O2  UNK     1      29.280  -7.285  38.708  1.00  0.00    -0.355 OA
HETATM   21  C18 UNK     1      28.207  -6.679  39.427  1.00  0.00     0.210 C 
ENDBRANCH   2  20
BRANCH   4  22
HETATM   22  C9  UNK     1      32.698  -3.838  35.864  1.00  0.00     0.015 C 
HETATM   23  C15 UNK     1      33.922  -4.171  35.429  1.00  0.00     0.056 C 
BRANCH  23  24
HETATM   24  C16 UNK     1      34.478  -5.546  35.681  1.00  0.00     0.182 C 
HETATM   25  O3  UNK     1      35.430  -5.706  36.459  1.00  0.00    -0.288 OA
BRANCH  24  26
HETATM   26  C17 UNK     1      33.856  -6.680  35.018  1.00  0.00     0.014 A 
HETATM   27  C19 UNK     1      33.561  -6.617  33.656  1.00  0.00     0.015 A 
HETATM   28  C22 UNK     1      32.966  -7.707  33.020  1.00  0.00     0.001 A 
HETATM   29  C24 UNK     1      32.665  -8.858  33.746  1.00  0.00     0.000 A 
HETATM   30  C23 UNK     1      32.960  -8.922  35.108  1.00  0.00     0.001 A 
HETATM   31  C20 UNK     1      33.555  -7.833  35.744  1.00  0.00     0.015 A 
ENDBRANCH  24  26
ENDBRANCH  23  24
ENDBRANCH   4  22
TORSDOF 8
ENDMDL
MODEL 4
REMARK VINA RESULT:      -7.9      8.905     13.314
REMARK  8 active torsions:
REMARK  status: ('A' for Active; 'I' for Inactive)
REMARK    1  A    between atoms: C2_7  and  O1_1 
REMARK    2  A    between atoms: C8_13  and  O1_1 
REMARK    3  A    between atoms: C3_8  and  O2_2 
REMARK    4  A    between atoms: C12_17  and  N1_5 
REMARK       I    between atoms: C21_26  and  N1_5 
REMARK    5  A    between atoms: C1_6  and  C2_7 
REMARK    6  A    between atoms: C5_10  and  C9_14 
REMARK    7  A    between atoms: C15_20  and  C16_21 
REMARK    8  A    between atoms: C16_21  and  C17_22 
ROOT
HETATM    1  C1  UNK     1      18.094   6.173  32.934  1.00  0.00     0.000 A 
HETATM    2  C3  UNK     1      19.390   6.525  33.315  1.00  0.00     0.076 A 
HETATM    3  C4  UNK     1      17.876   5.540  31.710  1.00  0.00     0.023 A 
HETATM    4  C5  UNK     1      18.951   5.259  30.868  1.00  0.00    -0.035 A 
HETATM    5  C6  UNK     1      20.466   6.244  32.473  1.00  0.00     0.038 A 
HETATM    6  C7  UNK     1      20.246   5.610  31.250  1.00  0.00     0.014 A 
ENDROOT
BRANCH   1   7
HETATM    7  C2  UNK     1      16.931   6.468  33.823  1.00  0.00     0.217 C 
BRANCH   7   8
HETATM    8  O1  UNK     1      15.981   7.251  33.112  1.00  0.00    -0.347 OA
BRANCH   8   9
HETATM    9  C8  UNK     1      15.727   8.506  33.600  1.00  0.00     0.069 A 
HETATM   10  C10 UNK     1      14.437   8.850  34.004  1.00  0.00     0.039 A 
HETATM   11  C13 UNK     1      14.178  10.127  34.502  1.00  0.00     0.032 A 
HETATM   12  C12 UNK     1      15.211  11.060  34.597  1.00  0.00     0.034 A 
HETATM   13  C14 UNK     1      16.500  10.716  34.193  1.00  0.00     0.032 A 
HETATM   14  C11 UNK     1      16.759   9.439  33.695  1.00  0.00     0.039 A 
BRANCH  12  15
HETATM   15  N1  UNK     1      14.953  12.337  35.095  1.00  0.00    -0.328 N 
HETATM   16  C21 UNK     1      14.822  12.734  36.433  1.00  0.00     0.218 C 
HETATM   17  O4  UNK     1      14.914  12.029  37.432  1.00  0.00    -0.274 OA
HETATM   18  C25 UNK     1      14.543  14.211  36.552  1.00  0.00     0.117 C 
HETATM   19  H12 UNK     1      14.847  13.065  34.391  1.00  0.00     0.169 HD
ENDBRANCH  12  15
ENDBRANCH   8   9
ENDBRANCH   7   8
ENDBRANCH   1   7
BRANCH   2  20
HETATM   20  O2  UNK     1      19.621   7.145  34.507  1.00  0.00    -0.355 OA
HETATM   21  C18 UNK     1      20.017   8.515  34.457  1.00  0.00     0.210 C 
ENDBRANCH   2  20
BRANCH   4  22
HETATM   22  C9  UNK     1      18.722   4.591  29.575  1.00  0.00     0.015 C 
HETATM   23  C15 UNK     1      18.509   3.275  29.426  1.00  0.00     0.056 C 
BRANCH  23  24
HETATM   24  C16 UNK     1      18.493   2.362  30.621  1.00  0.00     0.182 C 
HETATM   25  O3  UNK     1      17.883   2.686  31.651  1.00  0.00    -0.288 OA
BRANCH  24  26
HETATM   26  C17 UNK     1      19.178   1.084  30.530  1.00  0.00     0.014 A 
HETATM   27  C19 UNK     1      19.164   0.205  31.613  1.00  0.00     0.015 A 
HETATM   28  C22 UNK     1      19.821  -1.023  31.525  1.00  0.00     0.001 A 
HETATM   29  C24 UNK     1      20.491  -1.371  30.353  1.00  0.00     0.000 A 
HETATM   30  C23 UNK     1      20.505  -0.494  29.269  1.00  0.00     0.001 A 
HETATM   31  C20 UNK     1      19.849   0.734  29.358  1.00  0.00     0.015 A 
ENDBRANCH  24  26
ENDBRANCH  23  24
ENDBRANCH   4  22
TORSDOF 8
ENDMDL
MODEL 5
REMARK VINA RESULT:      -7.8      9.068     11.611
REMARK  8 active torsions:
REMARK  status: ('A' for Active; 'I' for Inactive)
REMARK    1  A    between atoms: C2_7  and  O1_1 
REMARK    2  A    between atoms: C8_13  and  O1_1 
REMARK    3  A    between atoms: C3_8  and  O2_2 
REMARK    4  A    between atoms: C12_17  and  N1_5 
REMARK       I    between atoms: C21_26  and  N1_5 
REMARK    5  A    between atoms: C1_6  and  C2_7 
REMARK    6  A    between atoms: C5_10  and  C9_14 
REMARK    7  A    between atoms: C15_20  and  C16_21 
REMARK    8  A    between atoms: C16_21  and  C17_22 
ROOT
HETATM    1  C1  UNK     1      33.120  -8.206  35.563  1.00  0.00     0.000 A 
HETATM    2  C3  UNK     1      33.894  -7.478  36.467  1.00  0.00     0.076 A 
HETATM    3  C4  UNK     1      31.958  -8.844  35.997  1.00  0.00     0.023 A 
HETATM    4  C5  UNK     1      31.569  -8.752  37.333  1.00  0.00    -0.035 A 
HETATM    5  C6  UNK     1      33.506  -7.387  37.803  1.00  0.00     0.038 A 
HETATM    6  C7  UNK     1      32.343  -8.024  38.236  1.00  0.00     0.014 A 
ENDROOT
BRANCH   1   7
HETATM    7  C2  UNK     1      33.522  -8.314  34.129  1.00  0.00     0.217 C 
BRANCH   7   8
HETATM    8  O1  UNK     1      33.313  -7.063  33.486  1.00  0.00    -0.347 OA
BRANCH   8   9
HETATM    9  C8  UNK     1      32.094  -6.871  32.892  1.00  0.00     0.069 A 
HETATM   10  C10 UNK     1      31.109  -6.128  33.542  1.00  0.00     0.039 A 
HETATM   11  C13 UNK     1      29.868  -5.931  32.936  1.00  0.00     0.032 A 
HETATM   12  C12 UNK     1      29.613  -6.478  31.678  1.00  0.00     0.034 A 
HETATM   13  C14 UNK     1      30.597  -7.221  31.028  1.00  0.00     0.032 A 
HETATM   14  C11 UNK     1      31.838  -7.417  31.634  1.00  0.00     0.039 A 
BRANCH  12  15
HETATM   15  N1  UNK     1      28.372  -6.281  31.072  1.00  0.00    -0.328 N 
HETATM   16  C21 UNK     1      27.406  -7.242  30.746  1.00  0.00     0.218 C 
HETATM   17  O4  UNK     1      27.463  -8.452  30.939  1.00  0.00    -0.274 OA
HETATM   18  C25 UNK     1      26.195  -6.620  30.097  1.00  0.00     0.117 C 
HETATM   19  H12 UNK     1      28.151  -5.315  30.838  1.00  0.00     0.169 HD
ENDBRANCH  12  15
ENDBRANCH   8   9
ENDBRANCH   7   8
ENDBRANCH   1   7
BRANCH   2  20
HETATM   20  O2  UNK     1      35.033  -6.850  36.059  1.00  0.00    -0.355 OA
HETATM   21  C18 UNK     1      35.126  -5.449  36.317  1.00  0.00     0.210 C 
ENDBRANCH   2  20
BRANCH   4  22
HETATM   22  C9  UNK     1      30.342  -9.426  37.793  1.00  0.00     0.015 C 
HETATM   23  C15 UNK     1      29.099  -8.972  37.576  1.00  0.00     0.056 C 
BRANCH  23  24
HETATM   24  C16 UNK     1      28.872  -7.694  36.817  1.00  0.00     0.182 C 
HETATM   25  O3  UNK     1      28.382  -7.717  35.678  1.00  0.00    -0.288 OA
BRANCH  24  26
HETATM   26  C17 UNK     1      29.210  -6.434  37.459  1.00  0.00     0.014 A 
HETATM   27  C19 UNK     1      28.723  -6.147  38.734  1.00  0.00     0.015 A 
HETATM   28  C22 UNK     1      29.050  -4.939  39.350  1.00  0.00     0.001 A 
HETATM   29  C24 UNK     1      29.863  -4.018  38.691  1.00  0.00     0.000 A 
HETATM   30  C23 UNK     1      30.351  -4.304  37.416  1.00  0.00     0.001 A 
HETATM   31  C20 UNK     1      30.025  -5.512  36.800  1.00  0.00     0.015 A 
ENDBRANCH  24  26
ENDBRANCH  23  24
ENDBRANCH   4  22
TORSDOF 8
ENDMDL
MODEL 6
REMARK VINA RESULT:      -7.8      8.899     12.127
REMARK  8 active torsions:
REMARK  status: ('A' for Active; 'I' for Inactive)
REMARK    1  A    between atoms: C2_7  and  O1_1 
REMARK    2  A    between atoms: C8_13  and  O1_1 
REMARK    3  A    between atoms: C3_8  and  O2_2 
REMARK    4  A    between atoms: C12_17  and  N1_5 
REMARK       I    between atoms: C21_26  and  N1_5 
REMARK    5  A    between atoms: C1_6  and  C2_7 
REMARK    6  A    between atoms: C5_10  and  C9_14 
REMARK    7  A    between atoms: C15_20  and  C16_21 
REMARK    8  A    between atoms: C16_21  and  C17_22 
ROOT
HETATM    1  C1  UNK     1      29.121  -6.148  36.677  1.00  0.00     0.000 A 
HETATM    2  C3  UNK     1      28.956  -5.712  37.992  1.00  0.00     0.076 A 
HETATM    3  C4  UNK     1      30.279  -5.818  35.974  1.00  0.00     0.023 A 
HETATM    4  C5  UNK     1      31.272  -5.051  36.584  1.00  0.00    -0.035 A 
HETATM    5  C6  UNK     1      29.948  -4.945  38.603  1.00  0.00     0.038 A 
HETATM    6  C7  UNK     1      31.106  -4.615  37.899  1.00  0.00     0.014 A 
ENDROOT
BRANCH   1   7
HETATM    7  C2  UNK     1      28.068  -6.969  36.009  1.00  0.00     0.217 C 
BRANCH   7   8
HETATM    8  O1  UNK     1      28.602  -8.247  35.686  1.00  0.00    -0.347 OA
BRANCH   8   9
HETATM    9  C8  UNK     1      28.642  -8.581  34.357  1.00  0.00     0.069 A 
HETATM   10  C10 UNK     1      29.039  -9.860  33.970  1.00  0.00     0.039 A 
HETATM   11  C13 UNK     1      29.078 -10.200  32.618  1.00  0.00     0.032 A 
HETATM   12  C12 UNK     1      28.719  -9.259  31.652  1.00  0.00     0.034 A 
HETATM   13  C14 UNK     1      28.322  -7.980  32.039  1.00  0.00     0.032 A 
HETATM   14  C11 UNK     1      28.283  -7.640  33.391  1.00  0.00     0.039 A 
BRANCH  12  15
HETATM   15  N1  UNK     1      28.758  -9.598  30.300  1.00  0.00    -0.328 N 
HETATM   16  C21 UNK     1      29.846  -9.523  29.419  1.00  0.00     0.218 C 
HETATM   17  O4  UNK     1      30.985  -9.146  29.673  1.00  0.00    -0.274 OA
HETATM   18  C25 UNK     1      29.475  -9.986  28.033  1.00  0.00     0.117 C 
HETATM   19  H12 UNK     1      27.881  -9.942  29.913  1.00  0.00     0.169 HD
ENDBRANCH  12  15
ENDBRANCH   8   9
ENDBRANCH   7   8
ENDBRANCH   1   7
BRANCH   2  20
HETATM   20  O2  UNK     1      27.830  -6.026  38.694  1.00  0.00    -0.355 OA
HETATM   21  C18 UNK     1      27.930  -7.099  39.629  1.00  0.00     0.210 C 
ENDBRANCH   2  20
BRANCH   4  22
HETATM   22  C9  UNK     1      32.495  -4.700  35.842  1.00  0.00     0.015 C 
HETATM   23  C15 UNK     1      33.685  -5.294  36.013  1.00  0.00     0.056 C 
BRANCH  23  24
HETATM   24  C16 UNK     1      33.851  -6.402  37.017  1.00  0.00     0.182 C 
HETATM   25  O3  UNK     1      34.603  -6.259  37.993  1.00  0.00    -0.288 OA
BRANCH  24  26
HETATM   26  C17 UNK     1      33.089  -7.626  36.835  1.00  0.00     0.014 A 
HETATM   27  C19 UNK     1      32.334  -8.143  37.888  1.00  0.00     0.015 A 
HETATM   28  C22 UNK     1      31.601  -9.317  37.712  1.00  0.00     0.001 A 
HETATM   29  C24 UNK     1      31.624  -9.974  36.482  1.00  0.00     0.000 A 
HETATM   30  C23 UNK     1      32.378  -9.459  35.429  1.00  0.00     0.001 A 
HETATM   31  C20 UNK     1      33.110  -8.285  35.605  1.00  0.00     0.015 A 
ENDBRANCH  24  26
ENDBRANCH  23  24
ENDBRANCH   4  22
TORSDOF 8
ENDMDL
MODEL 7
REMARK VINA RESULT:      -7.8     30.025     32.179
REMARK  8 active torsions:
REMARK  status: ('A' for Active; 'I' for Inactive)
REMARK    1  A    between atoms: C2_7  and  O1_1 
REMARK    2  A    between atoms: C8_13  and  O1_1 
REMARK    3  A    between atoms: C3_8  and  O2_2 
REMARK    4  A    between atoms: C12_17  and  N1_5 
REMARK       I    between atoms: C21_26  and  N1_5 
REMARK    5  A    between atoms: C1_6  and  C2_7 
REMARK    6  A    between atoms: C5_10  and  C9_14 
REMARK    7  A    between atoms: C15_20  and  C16_21 
REMARK    8  A    between atoms: C16_21  and  C17_22 
ROOT
HETATM    1  C1  UNK     1      12.836   7.246   9.361  1.00  0.00     0.000 A 
HETATM    2  C3  UNK     1      13.482   6.017   9.502  1.00  0.00     0.076 A 
HETATM    3  C4  UNK     1      11.751   7.368   8.494  1.00  0.00     0.023 A 
HETATM    4  C5  UNK     1      11.311   6.262   7.767  1.00  0.00    -0.035 A 
HETATM    5  C6  UNK     1      13.042   4.911   8.775  1.00  0.00     0.038 A 
HETATM    6  C7  UNK     1      11.956   5.034   7.907  1.00  0.00     0.014 A 
ENDROOT
BRANCH   1   7
HETATM    7  C2  UNK     1      13.295   8.440  10.132  1.00  0.00     0.217 C 
BRANCH   7   8
HETATM    8  O1  UNK     1      13.615   9.489   9.227  1.00  0.00    -0.347 OA
BRANCH   8   9
HETATM    9  C8  UNK     1      14.930   9.873   9.168  1.00  0.00     0.069 A 
HETATM   10  C10 UNK     1      15.882   9.228   9.956  1.00  0.00     0.039 A 
HETATM   11  C13 UNK     1      17.220   9.618   9.895  1.00  0.00     0.032 A 
HETATM   12  C12 UNK     1      17.605  10.654   9.044  1.00  0.00     0.034 A 
HETATM   13  C14 UNK     1      16.653  11.299   8.255  1.00  0.00     0.032 A 
HETATM   14  C11 UNK     1      15.315  10.909   8.316  1.00  0.00     0.039 A 
BRANCH  12  15
HETATM   15  N1  UNK     1      18.942  11.044   8.982  1.00  0.00    -0.328 N 
HETATM   16  C21 UNK     1      19.660  11.824   9.899  1.00  0.00     0.218 C 
HETATM   17  O4  UNK     1      19.247  12.314  10.944  1.00  0.00    -0.274 OA
HETATM   18  C25 UNK     1      21.091  12.021   9.465  1.00  0.00     0.117 C 
HETATM   19  H12 UNK     1      19.453  10.717   8.163  1.00  0.00     0.169 HD
ENDBRANCH  12  15
ENDBRANCH   8   9
ENDBRANCH   7   8
ENDBRANCH   1   7
BRANCH   2  20
HETATM   20  O2  UNK     1      14.544   5.881  10.344  1.00  0.00    -0.355 OA
HETATM   21  C18 UNK     1      15.777   5.453   9.766  1.00  0.00     0.210 C 
ENDBRANCH   2  20
BRANCH   4  22
HETATM   22  C9  UNK     1      10.165   6.390   6.849  1.00  0.00     0.015 C 
HETATM   23  C15 UNK     1       8.887   6.173   7.194  1.00  0.00     0.056 C 
BRANCH  23  24
HETATM   24  C16 UNK     1       8.531   5.770   8.599  1.00  0.00     0.182 C 
HETATM   25  O3  UNK     1       8.712   4.605   8.983  1.00  0.00    -0.288 OA
BRANCH  24  26
HETATM   26  C17 UNK     1       8.000   6.779   9.500  1.00  0.00     0.014 A 
HETATM   27  C19 UNK     1       8.562   8.056   9.527  1.00  0.00     0.015 A 
HETATM   28  C22 UNK     1       8.052   9.025  10.391  1.00  0.00     0.001 A 
HETATM   29  C24 UNK     1       6.979   8.717  11.227  1.00  0.00     0.000 A 
HETATM   30  C23 UNK     1       6.416   7.441  11.201  1.00  0.00     0.001 A 
HETATM   31  C20 UNK     1       6.927   6.472  10.337  1.00  0.00     0.015 A 
ENDBRANCH  24  26
ENDBRANCH  23  24
ENDBRANCH   4  22
TORSDOF 8
ENDMDL
MODEL 8
REMARK VINA RESULT:      -7.8      9.261     12.639
REMARK  8 active torsions:
REMARK  status: ('A' for Active; 'I' for Inactive)
REMARK    1  A    between atoms: C2_7  and  O1_1 
REMARK    2  A    between atoms: C8_13  and  O1_1 
REMARK    3  A    between atoms: C3_8  and  O2_2 
REMARK    4  A    between atoms: C12_17  and  N1_5 
REMARK       I    between atoms: C21_26  and  N1_5 
REMARK    5  A    between atoms: C1_6  and  C2_7 
REMARK    6  A    between atoms: C5_10  and  C9_14 
REMARK    7  A    between atoms: C15_20  and  C16_21 
REMARK    8  A    between atoms: C16_21  and  C17_22 
ROOT
HETATM    1  C1  UNK     1      31.049  -7.712  37.865  1.00  0.00     0.000 A 
HETATM    2  C3  UNK     1      30.386  -6.614  38.414  1.00  0.00     0.076 A 
HETATM    3  C4  UNK     1      32.404  -7.621  37.545  1.00  0.00     0.023 A 
HETATM    4  C5  UNK     1      33.095  -6.431  37.775  1.00  0.00    -0.035 A 
HETATM    5  C6  UNK     1      31.078  -5.425  38.643  1.00  0.00     0.038 A 
HETATM    6  C7  UNK     1      32.433  -5.334  38.324  1.00  0.00     0.014 A 
ENDROOT
BRANCH   1   7
HETATM    7  C2  UNK     1      30.323  -8.993  37.612  1.00  0.00     0.217 C 
BRANCH   7   8
HETATM    8  O1  UNK     1      31.005  -9.730  36.605  1.00  0.00    -0.347 OA
BRANCH   8   9
HETATM    9  C8  UNK     1      30.429  -9.753  35.362  1.00  0.00     0.069 A 
HETATM   10  C10 UNK     1      29.250  -9.047  35.124  1.00  0.00     0.039 A 
HETATM   11  C13 UNK     1      28.666  -9.070  33.858  1.00  0.00     0.032 A 
HETATM   12  C12 UNK     1      29.262  -9.799  32.828  1.00  0.00     0.034 A 
HETATM   13  C14 UNK     1      30.441 -10.505  33.066  1.00  0.00     0.032 A 
HETATM   14  C11 UNK     1      31.025 -10.482  34.332  1.00  0.00     0.039 A 
BRANCH  12  15
HETATM   15  N1  UNK     1      28.678  -9.822  31.562  1.00  0.00    -0.328 N 
HETATM   16  C21 UNK     1      28.571  -8.773  30.639  1.00  0.00     0.218 C 
HETATM   17  O4  UNK     1      28.978  -7.624  30.766  1.00  0.00    -0.274 OA
HETATM   18  C25 UNK     1      27.867  -9.208  29.378  1.00  0.00     0.117 C 
HETATM   19  H12 UNK     1      28.282 -10.718  31.282  1.00  0.00     0.169 HD
ENDBRANCH  12  15
ENDBRANCH   8   9
ENDBRANCH   7   8
ENDBRANCH   1   7
BRANCH   2  20
HETATM   20  O2  UNK     1      29.063  -6.687  38.731  1.00  0.00    -0.355 OA
HETATM   21  C18 UNK     1      28.233  -5.611  38.293  1.00  0.00     0.210 C 
ENDBRANCH   2  20
BRANCH   4  22
HETATM   22  C9  UNK     1      34.527  -6.333  37.437  1.00  0.00     0.015 C 
HETATM   23  C15 UNK     1      35.016  -5.645  36.395  1.00  0.00     0.056 C 
BRANCH  23  24
HETATM   24  C16 UNK     1      34.095  -4.900  35.469  1.00  0.00     0.182 C 
HETATM   25  O3  UNK     1      34.050  -3.661  35.489  1.00  0.00    -0.288 OA
BRANCH  24  26
HETATM   26  C17 UNK     1      33.284  -5.661  34.532  1.00  0.00     0.014 A 
HETATM   27  C19 UNK     1      31.919  -5.401  34.419  1.00  0.00     0.015 A 
HETATM   28  C22 UNK     1      31.142  -6.131  33.519  1.00  0.00     0.001 A 
HETATM   29  C24 UNK     1      31.731  -7.120  32.732  1.00  0.00     0.000 A 
HETATM   30  C23 UNK     1      33.097  -7.380  32.845  1.00  0.00     0.001 A 
HETATM   31  C20 UNK     1      33.873  -6.651  33.745  1.00  0.00     0.015 A 
ENDBRANCH  24  26
ENDBRANCH  23  24
ENDBRANCH   4  22
TORSDOF 8
ENDMDL
MODEL 9
REMARK VINA RESULT:      -7.8      8.620     10.700
REMARK  8 active torsions:
REMARK  status: ('A' for Active; 'I' for Inactive)
REMARK    1  A    between atoms: C2_7  and  O1_1 
REMARK    2  A    between atoms: C8_13  and  O1_1 
REMARK    3  A    between atoms: C3_8  and  O2_2 
REMARK    4  A    between atoms: C12_17  and  N1_5 
REMARK       I    between atoms: C21_26  and  N1_5 
REMARK    5  A    between atoms: C1_6  and  C2_7 
REMARK    6  A    between atoms: C5_10  and  C9_14 
REMARK    7  A    between atoms: C15_20  and  C16_21 
REMARK    8  A    between atoms: C16_21  and  C17_22 
ROOT
HETATM    1  C1  UNK     1      30.783  -9.745  35.506  1.00  0.00     0.000 A 
HETATM    2  C3  UNK     1      32.044  -9.287  35.889  1.00  0.00     0.076 A 
HETATM    3  C4  UNK     1      29.734  -9.747  36.425  1.00  0.00     0.023 A 
HETATM    4  C5  UNK     1      29.945  -9.292  37.726  1.00  0.00    -0.035 A 
HETATM    5  C6  UNK     1      32.256  -8.832  37.191  1.00  0.00     0.038 A 
HETATM    6  C7  UNK     1      31.205  -8.835  38.109  1.00  0.00     0.014 A 
ENDROOT
BRANCH   1   7
HETATM    7  C2  UNK     1      30.540 -10.235  34.117  1.00  0.00     0.217 C 
BRANCH   7   8
HETATM    8  O1  UNK     1      29.397  -9.582  33.580  1.00  0.00    -0.347 OA
BRANCH   8   9
HETATM    9  C8  UNK     1      29.535  -8.256  33.265  1.00  0.00     0.069 A 
HETATM   10  C10 UNK     1      30.763  -7.769  32.817  1.00  0.00     0.039 A 
HETATM   11  C13 UNK     1      30.903  -6.419  32.495  1.00  0.00     0.032 A 
HETATM   12  C12 UNK     1      29.814  -5.556  32.619  1.00  0.00     0.034 A 
HETATM   13  C14 UNK     1      28.587  -6.043  33.068  1.00  0.00     0.032 A 
HETATM   14  C11 UNK     1      28.446  -7.393  33.390  1.00  0.00     0.039 A 
BRANCH  12  15
HETATM   15  N1  UNK     1      29.954  -4.206  32.297  1.00  0.00    -0.328 N 
HETATM   16  C21 UNK     1      29.946  -3.614  31.027  1.00  0.00     0.218 C 
HETATM   17  O4  UNK     1      29.810  -4.174  29.944  1.00  0.00    -0.274 OA
HETATM   18  C25 UNK     1      30.127  -2.119  31.106  1.00  0.00     0.117 C 
HETATM   19  H12 UNK     1      30.077  -3.580  33.091  1.00  0.00     0.169 HD
ENDBRANCH  12  15
ENDBRANCH   8   9
ENDBRANCH   7   8
ENDBRANCH   1   7
BRANCH   2  20
HETATM   20  O2  UNK     1      33.080  -9.278  35.004  1.00  0.00    -0.355 OA
HETATM   21  C18 UNK     1      33.846  -8.077  34.917  1.00  0.00     0.210 C 
ENDBRANCH   2  20
BRANCH   4  22
HETATM   22  C9  UNK     1      28.837  -9.295  38.698  1.00  0.00     0.015 C 
HETATM   23  C15 UNK     1      27.822  -8.419  38.696  1.00  0.00     0.056 C 
BRANCH  23  24
HETATM   24  C16 UNK     1      27.749  -7.334  37.658  1.00  0.00     0.182 C 
HETATM   25  O3  UNK     1      26.885  -7.371  36.769  1.00  0.00    -0.288 OA
BRANCH  24  26
HETATM   26  C17 UNK     1      28.690  -6.229  37.738  1.00  0.00     0.014 A 
HETATM   27  C19 UNK     1      28.740  -5.436  38.884  1.00  0.00     0.015 A 
HETATM   28  C22 UNK     1      29.645  -4.377  38.961  1.00  0.00     0.001 A 
HETATM   29  C24 UNK     1      30.500  -4.112  37.892  1.00  0.00     0.000 A 
HETATM   30  C23 UNK     1      30.451  -4.905  36.746  1.00  0.00     0.001 A 
HETATM   31  C20 UNK     1      29.546  -5.964  36.669  1.00  0.00     0.015 A 
ENDBRANCH  24  26
ENDBRANCH  23  24
ENDBRANCH   4  22
TORSDOF 8
ENDMDL
MODEL 10
REMARK VINA RESULT:      -7.7      9.490     12.809
REMARK  8 active torsions:
REMARK  status: ('A' for Active; 'I' for Inactive)
REMARK    1  A    between atoms: C2_7  and  O1_1 
REMARK    2  A    between atoms: C8_13  and  O1_1 
REMARK    3  A    between atoms: C3_8  and  O2_2 
REMARK    4  A    between atoms: C12_17  and  N1_5 
REMARK       I    between atoms: C21_26  and  N1_5 
REMARK    5  A    between atoms: C1_6  and  C2_7 
REMARK    6  A    between atoms: C5_10  and  C9_14 
REMARK    7  A    between atoms: C15_20  and  C16_21 
REMARK    8  A    between atoms: C16_21  and  C17_22 
ROOT
HETATM    1  C1  UNK     1      30.733  -7.539  37.423  1.00  0.00     0.000 A 
HETATM    2  C3  UNK     1      30.075  -6.442  37.982  1.00  0.00     0.076 A 
HETATM    3  C4  UNK     1      32.117  -7.510  37.256  1.00  0.00     0.023 A 
HETATM    4  C5  UNK     1      32.844  -6.386  37.646  1.00  0.00    -0.035 A 
HETATM    5  C6  UNK     1      30.803  -5.318  38.373  1.00  0.00     0.038 A 
HETATM    6  C7  UNK     1      32.187  -5.290  38.205  1.00  0.00     0.014 A 
ENDROOT
BRANCH   1   7
HETATM    7  C2  UNK     1      29.969  -8.750  36.999  1.00  0.00     0.217 C 
BRANCH   7   8
HETATM    8  O1  UNK     1      30.793  -9.559  36.169  1.00  0.00    -0.347 OA
BRANCH   8   9
HETATM    9  C8  UNK     1      30.386  -9.724  34.871  1.00  0.00     0.069 A 
HETATM   10  C10 UNK     1      31.171 -10.455  33.980  1.00  0.00     0.039 A 
HETATM   11  C13 UNK     1      30.756 -10.624  32.659  1.00  0.00     0.032 A 
HETATM   12  C12 UNK     1      29.553 -10.063  32.229  1.00  0.00     0.034 A 
HETATM   13  C14 UNK     1      28.768  -9.332  33.120  1.00  0.00     0.032 A 
HETATM   14  C11 UNK     1      29.183  -9.163  34.441  1.00  0.00     0.039 A 
BRANCH  12  15
HETATM   15  N1  UNK     1      29.137 -10.233  30.909  1.00  0.00    -0.328 N 
HETATM   16  C21 UNK     1      29.164  -9.297  29.866  1.00  0.00     0.218 C 
HETATM   17  O4  UNK     1      29.567  -8.140  29.913  1.00  0.00    -0.274 OA
HETATM   18  C25 UNK     1      28.622  -9.875  28.583  1.00  0.00     0.117 C 
HETATM   19  H12 UNK     1      28.768 -11.155  30.685  1.00  0.00     0.169 HD
ENDBRANCH  12  15
ENDBRANCH   8   9
ENDBRANCH   7   8
ENDBRANCH   1   7
BRANCH   2  20
HETATM   20  O2  UNK     1      28.723  -6.454  38.152  1.00  0.00    -0.355 OA
HETATM   21  C18 UNK     1      28.241  -6.654  39.480  1.00  0.00     0.210 C 
ENDBRANCH   2  20
BRANCH   4  22
HETATM   22  C9  UNK     1      34.307  -6.354  37.469  1.00  0.00     0.015 C 
HETATM   23  C15 UNK     1      34.940  -5.689  36.491  1.00  0.00     0.056 C 
BRANCH  23  24
HETATM   24  C16 UNK     1      34.162  -4.901  35.473  1.00  0.00     0.182 C 
HETATM   25  O3  UNK     1      34.245  -3.665  35.438  1.00  0.00    -0.288 OA
BRANCH  24  26
HETATM   26  C17 UNK     1      33.339  -5.622  34.516  1.00  0.00     0.014 A 
HETATM   27  C19 UNK     1      33.874  -6.697  33.805  1.00  0.00     0.015 A 
HETATM   28  C22 UNK     1      33.083  -7.389  32.888  1.00  0.00     0.001 A 
HETATM   29  C24 UNK     1      31.758  -7.007  32.682  1.00  0.00     0.000 A 
HETATM   30  C23 UNK     1      31.223  -5.933  33.392  1.00  0.00     0.001 A 
HETATM   31  C20 UNK     1      32.013  -5.240  34.309  1.00  0.00     0.015 A 
ENDBRANCH  24  26
ENDBRANCH  23  24
ENDBRANCH   4  22
TORSDOF 8
ENDMDL
