MODEL 1
REMARK VINA RESULT:      -9.8      0.000      0.000
REMARK  5 active torsions:
REMARK  status: ('A' for Active; 'I' for Inactive)
REMARK    1  A    between atoms: C20_26  and  O2_3 
REMARK    2  A    between atoms: C23_29  and  O2_3 
REMARK       I    between atoms: C15_21  and  N1_6 
REMARK    3  A    between atoms: C6_12  and  N1_6 
REMARK    4  A    between atoms: C1_7  and  C2_8 
REMARK    5  A    between atoms: C14_20  and  C15_21 
ROOT
HETATM    1  C2  UNK     1      18.605   3.768  30.948  1.00  0.00    -0.020 A 
HETATM    2  C6  UNK     1      18.043   6.293  31.990  1.00  0.00     0.035 A 
HETATM    3  C7  UNK     1      19.068   4.910  30.296  1.00  0.00     0.014 A 
HETATM    4  C8  UNK     1      17.861   3.888  32.122  1.00  0.00     0.014 A 
HETATM    5  C10 UNK     1      18.787   6.173  30.816  1.00  0.00     0.030 A 
HETATM    6  C11 UNK     1      17.580   5.151  32.643  1.00  0.00     0.030 A 
ENDROOT
BRANCH   2   7
HETATM    7  N1  UNK     1      17.760   7.557  32.510  1.00  0.00    -0.323 N 
HETATM    8  C15 UNK     1      18.507   8.228  33.472  1.00  0.00     0.256 C 
HETATM    9  O4  UNK     1      19.529   7.850  34.032  1.00  0.00    -0.267 OA
HETATM   10  H7  UNK     1      16.958   8.013  32.087  1.00  0.00     0.169 HD
BRANCH   8  11
HETATM   11  C14 UNK     1      17.991   9.578  33.820  1.00  0.00     0.033 A 
HETATM   12  C18 UNK     1      16.643   9.733  34.066  1.00  0.00     0.039 A 
HETATM   13  C21 UNK     1      16.161  11.001  34.393  1.00  0.00     0.045 A 
HETATM   14 Br1  UNK     1      14.307  11.213  34.730  1.00  0.00    -0.048 Br
HETATM   15  C20 UNK     1      17.037  12.082  34.469  1.00  0.00     0.086 A 
HETATM   16  C22 UNK     1      18.396  11.898  34.216  1.00  0.00     0.039 A 
HETATM   17  C19 UNK     1      18.880  10.632  33.889  1.00  0.00     0.020 A 
BRANCH  15  18
HETATM   18  O2  UNK     1      16.597  13.333  34.787  1.00  0.00    -0.350 OA
BRANCH  18  19
HETATM   19  C23 UNK     1      16.739  14.342  33.789  1.00  0.00     0.171 C 
HETATM   20  C24 UNK     1      15.428  14.489  33.047  1.00  0.00     0.034 C 
ENDBRANCH  18  19
ENDBRANCH  15  18
ENDBRANCH   8  11
ENDBRANCH   2   7
BRANCH   1  21
HETATM   21  C1  UNK     1      18.903   2.432  30.398  1.00  0.00     0.051 A 
HETATM   22  C4  UNK     1      19.483   1.517  31.190  1.00  0.00     0.032 A 
HETATM   23  C3  UNK     1      19.810   0.193  30.689  1.00  0.00    -0.001 A 
HETATM   24  C12 UNK     1      20.407  -0.782  31.491  1.00  0.00     0.014 A 
HETATM   25  C5  UNK     1      19.521  -0.114  29.365  1.00  0.00     0.089 A 
HETATM   26  C16 UNK     1      20.704  -2.041  30.960  1.00  0.00     0.001 A 
HETATM   27  C17 UNK     1      20.407  -2.331  29.627  1.00  0.00     0.003 A 
HETATM   28  C13 UNK     1      19.811  -1.363  28.820  1.00  0.00     0.038 A 
HETATM   29  O1  UNK     1      18.919   0.842  28.526  1.00  0.00    -0.274 OA
HETATM   30  C9  UNK     1      18.580   2.115  28.980  1.00  0.00     0.299 A 
HETATM   31  O3  UNK     1      18.036   2.926  28.238  1.00  0.00    -0.259 OA
ENDBRANCH   1  21
TORSDOF 5
ENDMDL
MODEL 2
REMARK VINA RESULT:      -9.5      6.935      9.616
REMARK  5 active torsions:
REMARK  status: ('A' for Active; 'I' for Inactive)
REMARK    1  A    between atoms: C20_26  and  O2_3 
REMARK    2  A    between atoms: C23_29  and  O2_3 
REMARK       I    between atoms: C15_21  and  N1_6 
REMARK    3  A    between atoms: C6_12  and  N1_6 
REMARK    4  A    between atoms: C1_7  and  C2_8 
REMARK    5  A    between atoms: C14_20  and  C15_21 
ROOT
HETATM    1  C2  UNK     1      19.592  -3.715  36.339  1.00  0.00    -0.020 A 
HETATM    2  C6  UNK     1      19.209  -1.333  34.941  1.00  0.00     0.035 A 
HETATM    3  C7  UNK     1      20.212  -3.524  35.105  1.00  0.00     0.014 A 
HETATM    4  C8  UNK     1      18.781  -2.715  36.875  1.00  0.00     0.014 A 
HETATM    5  C10 UNK     1      20.020  -2.333  34.405  1.00  0.00     0.030 A 
HETATM    6  C11 UNK     1      18.590  -1.523  36.176  1.00  0.00     0.030 A 
ENDROOT
BRANCH   2   7
HETATM    7  N1  UNK     1      19.016  -0.141  34.241  1.00  0.00    -0.323 N 
HETATM    8  C15 UNK     1      18.249   0.938  34.663  1.00  0.00     0.256 C 
HETATM    9  O4  UNK     1      17.612   1.048  35.705  1.00  0.00    -0.267 OA
HETATM   10  H7  UNK     1      19.539  -0.077  33.373  1.00  0.00     0.169 HD
BRANCH   8  11
HETATM   11  C14 UNK     1      18.244   2.095  33.729  1.00  0.00     0.033 A 
HETATM   12  C18 UNK     1      18.286   1.854  32.372  1.00  0.00     0.039 A 
HETATM   13  C21 UNK     1      18.281   2.940  31.497  1.00  0.00     0.045 A 
HETATM   14 Br1  UNK     1      18.339   2.610  29.631  1.00  0.00    -0.048 Br
HETATM   15  C20 UNK     1      18.232   4.240  31.999  1.00  0.00     0.086 A 
HETATM   16  C22 UNK     1      18.190   4.455  33.376  1.00  0.00     0.039 A 
HETATM   17  C19 UNK     1      18.194   3.370  34.252  1.00  0.00     0.020 A 
BRANCH  15  18
HETATM   18  O2  UNK     1      18.225   5.323  31.169  1.00  0.00    -0.350 OA
BRANCH  18  19
HETATM   19  C23 UNK     1      19.289   6.260  31.320  1.00  0.00     0.171 C 
HETATM   20  C24 UNK     1      20.458   5.819  30.466  1.00  0.00     0.034 C 
ENDBRANCH  18  19
ENDBRANCH  15  18
ENDBRANCH   8  11
ENDBRANCH   2   7
BRANCH   1  21
HETATM   21  C1  UNK     1      19.796  -4.974  37.080  1.00  0.00     0.051 A 
HETATM   22  C4  UNK     1      20.948  -5.161  37.742  1.00  0.00     0.032 A 
HETATM   23  C3  UNK     1      21.200  -6.391  38.473  1.00  0.00    -0.001 A 
HETATM   24  C12 UNK     1      22.386  -6.611  39.177  1.00  0.00     0.014 A 
HETATM   25  C5  UNK     1      20.229  -7.386  38.469  1.00  0.00     0.089 A 
HETATM   26  C16 UNK     1      22.582  -7.814  39.862  1.00  0.00     0.001 A 
HETATM   27  C17 UNK     1      21.595  -8.801  39.847  1.00  0.00     0.003 A 
HETATM   28  C13 UNK     1      20.408  -8.590  39.147  1.00  0.00     0.038 A 
HETATM   29  O1  UNK     1      19.021  -7.200  37.772  1.00  0.00    -0.274 OA
HETATM   30  C9  UNK     1      18.743  -6.027  37.074  1.00  0.00     0.299 A 
HETATM   31  O3  UNK     1      17.674  -5.878  36.491  1.00  0.00    -0.259 OA
ENDBRANCH   1  21
TORSDOF 5
ENDMDL
MODEL 3
REMARK VINA RESULT:      -9.4     22.176     23.990
REMARK  5 active torsions:
REMARK  status: ('A' for Active; 'I' for Inactive)
REMARK    1  A    between atoms: C20_26  and  O2_3 
REMARK    2  A    between atoms: C23_29  and  O2_3 
REMARK       I    between atoms: C15_21  and  N1_6 
REMARK    3  A    between atoms: C6_12  and  N1_6 
REMARK    4  A    between atoms: C1_7  and  C2_8 
REMARK    5  A    between atoms: C14_20  and  C15_21 
ROOT
HETATM    1  C2  UNK     1      14.595   8.852   8.991  1.00  0.00    -0.020 A 
HETATM    2  C6  UNK     1      17.136   9.932   9.381  1.00  0.00     0.035 A 
HETATM    3  C7  UNK     1      15.533   8.166   9.761  1.00  0.00     0.014 A 
HETATM    4  C8  UNK     1      14.927  10.078   8.415  1.00  0.00     0.014 A 
HETATM    5  C10 UNK     1      16.804   8.706   9.956  1.00  0.00     0.030 A 
HETATM    6  C11 UNK     1      16.198  10.618   8.610  1.00  0.00     0.030 A 
ENDROOT
BRANCH   2   7
HETATM    7  N1  UNK     1      18.408  10.473   9.574  1.00  0.00    -0.323 N 
HETATM    8  C15 UNK     1      18.715  11.571  10.368  1.00  0.00     0.256 C 
HETATM    9  O4  UNK     1      17.949  12.259  11.033  1.00  0.00    -0.267 OA
HETATM   10  H7  UNK     1      19.154   9.958   9.117  1.00  0.00     0.169 HD
BRANCH   8  11
HETATM   11  C14 UNK     1      20.162  11.911  10.417  1.00  0.00     0.033 A 
HETATM   12  C18 UNK     1      20.732  12.216  11.635  1.00  0.00     0.039 A 
HETATM   13  C21 UNK     1      22.090  12.535  11.680  1.00  0.00     0.045 A 
HETATM   14 Br1  UNK     1      22.874  12.956  13.354  1.00  0.00    -0.048 Br
HETATM   15  C20 UNK     1      22.844  12.540  10.508  1.00  0.00     0.086 A 
HETATM   16  C22 UNK     1      22.242  12.227   9.289  1.00  0.00     0.039 A 
HETATM   17  C19 UNK     1      20.885  11.908   9.243  1.00  0.00     0.020 A 
BRANCH  15  18
HETATM   18  O2  UNK     1      24.173  12.846  10.518  1.00  0.00    -0.350 OA
BRANCH  18  19
HETATM   19  C23 UNK     1      25.089  11.754  10.543  1.00  0.00     0.171 C 
HETATM   20  C24 UNK     1      26.339  12.176  11.285  1.00  0.00     0.034 C 
ENDBRANCH  18  19
ENDBRANCH  15  18
ENDBRANCH   8  11
ENDBRANCH   2   7
BRANCH   1  21
HETATM   21  C1  UNK     1      13.250   8.281   8.785  1.00  0.00     0.051 A 
HETATM   22  C4  UNK     1      12.944   7.750   7.591  1.00  0.00     0.032 A 
HETATM   23  C3  UNK     1      11.628   7.189   7.337  1.00  0.00    -0.001 A 
HETATM   24  C12 UNK     1      11.283   6.624   6.107  1.00  0.00     0.014 A 
HETATM   25  C5  UNK     1      10.678   7.220   8.351  1.00  0.00     0.089 A 
HETATM   26  C16 UNK     1      10.001   6.100   5.912  1.00  0.00     0.001 A 
HETATM   27  C17 UNK     1       9.060   6.139   6.942  1.00  0.00     0.003 A 
HETATM   28  C13 UNK     1       9.396   6.703   8.172  1.00  0.00     0.038 A 
HETATM   29  O1  UNK     1      10.989   7.780   9.603  1.00  0.00    -0.274 OA
HETATM   30  C9  UNK     1      12.245   8.312   9.883  1.00  0.00     0.299 A 
HETATM   31  O3  UNK     1      12.502   8.776  10.989  1.00  0.00    -0.259 OA
ENDBRANCH   1  21
TORSDOF 5
ENDMDL
MODEL 4
REMARK VINA RESULT:      -9.3      7.054     12.888
REMARK  5 active torsions:
REMARK  status: ('A' for Active; 'I' for Inactive)
REMARK    1  A    between atoms: C20_26  and  O2_3 
REMARK    2  A    between atoms: C23_29  and  O2_3 
REMARK       I    between atoms: C15_21  and  N1_6 
REMARK    3  A    between atoms: C6_12  and  N1_6 
REMARK    4  A    between atoms: C1_7  and  C2_8 
REMARK    5  A    between atoms: C14_20  and  C15_21 
ROOT
HETATM    1  C2  UNK     1      18.467   1.182  33.886  1.00  0.00    -0.020 A 
HETATM    2  C6  UNK     1      18.725  -1.308  35.115  1.00  0.00     0.035 A 
HETATM    3  C7  UNK     1      18.630   0.035  33.109  1.00  0.00     0.014 A 
HETATM    4  C8  UNK     1      18.433   1.084  35.276  1.00  0.00     0.014 A 
HETATM    5  C10 UNK     1      18.759  -1.211  33.724  1.00  0.00     0.030 A 
HETATM    6  C11 UNK     1      18.562  -0.161  35.891  1.00  0.00     0.030 A 
ENDROOT
BRANCH   2   7
HETATM    7  N1  UNK     1      18.856  -2.554  35.730  1.00  0.00    -0.323 N 
HETATM    8  C15 UNK     1      20.052  -3.173  36.071  1.00  0.00     0.256 C 
HETATM    9  O4  UNK     1      21.192  -2.756  35.902  1.00  0.00    -0.267 OA
HETATM   10  H7  UNK     1      17.974  -2.991  35.979  1.00  0.00     0.169 HD
BRANCH   8  11
HETATM   11  C14 UNK     1      19.896  -4.488  36.747  1.00  0.00     0.033 A 
HETATM   12  C18 UNK     1      20.911  -4.942  37.562  1.00  0.00     0.039 A 
HETATM   13  C21 UNK     1      20.763  -6.176  38.196  1.00  0.00     0.045 A 
HETATM   14 Br1  UNK     1      22.159  -6.802  39.315  1.00  0.00    -0.048 Br
HETATM   15  C20 UNK     1      19.603  -6.925  38.002  1.00  0.00     0.086 A 
HETATM   16  C22 UNK     1      18.590  -6.441  37.174  1.00  0.00     0.039 A 
HETATM   17  C19 UNK     1      18.737  -5.208  36.539  1.00  0.00     0.020 A 
BRANCH  15  18
HETATM   18  O2  UNK     1      19.427  -8.134  38.608  1.00  0.00    -0.350 OA
BRANCH  18  19
HETATM   19  C23 UNK     1      19.179  -9.253  37.760  1.00  0.00     0.171 C 
HETATM   20  C24 UNK     1      19.379 -10.526  38.553  1.00  0.00     0.034 C 
ENDBRANCH  18  19
ENDBRANCH  15  18
ENDBRANCH   8  11
ENDBRANCH   2   7
BRANCH   1  21
HETATM   21  C1  UNK     1      18.330   2.499  33.236  1.00  0.00     0.051 A 
HETATM   22  C4  UNK     1      18.244   3.597  34.002  1.00  0.00     0.032 A 
HETATM   23  C3  UNK     1      18.092   4.914  33.407  1.00  0.00    -0.001 A 
HETATM   24  C12 UNK     1      18.008   6.075  34.179  1.00  0.00     0.014 A 
HETATM   25  C5  UNK     1      18.026   5.023  32.024  1.00  0.00     0.089 A 
HETATM   26  C16 UNK     1      17.859   7.320  33.559  1.00  0.00     0.001 A 
HETATM   27  C17 UNK     1      17.794   7.409  32.167  1.00  0.00     0.003 A 
HETATM   28  C13 UNK     1      17.878   6.255  31.390  1.00  0.00     0.038 A 
HETATM   29  O1  UNK     1      18.109   3.875  31.214  1.00  0.00    -0.274 OA
HETATM   30  C9  UNK     1      18.269   2.601  31.751  1.00  0.00     0.299 A 
HETATM   31  O3  UNK     1      18.360   1.617  31.026  1.00  0.00    -0.259 OA
ENDBRANCH   1  21
TORSDOF 5
ENDMDL
MODEL 5
REMARK VINA RESULT:      -9.2      1.286      1.402
REMARK  5 active torsions:
REMARK  status: ('A' for Active; 'I' for Inactive)
REMARK    1  A    between atoms: C20_26  and  O2_3 
REMARK    2  A    between atoms: C23_29  and  O2_3 
REMARK       I    between atoms: C15_21  and  N1_6 
REMARK    3  A    between atoms: C6_12  and  N1_6 
REMARK    4  A    between atoms: C1_7  and  C2_8 
REMARK    5  A    between atoms: C14_20  and  C15_21 
ROOT
HETATM    1  C2  UNK     1      18.588   3.746  30.931  1.00  0.00    -0.020 A 
HETATM    2  C6  UNK     1      18.001   6.274  31.951  1.00  0.00     0.035 A 
HETATM    3  C7  UNK     1      18.984   4.887  30.234  1.00  0.00     0.014 A 
HETATM    4  C8  UNK     1      17.899   3.868  32.137  1.00  0.00     0.014 A 
HETATM    5  C10 UNK     1      18.690   6.152  30.744  1.00  0.00     0.030 A 
HETATM    6  C11 UNK     1      17.605   5.132  32.647  1.00  0.00     0.030 A 
ENDROOT
BRANCH   2   7
HETATM    7  N1  UNK     1      17.705   7.539  32.461  1.00  0.00    -0.323 N 
HETATM    8  C15 UNK     1      16.433   8.041  32.709  1.00  0.00     0.256 C 
HETATM    9  O4  UNK     1      15.355   7.485  32.532  1.00  0.00    -0.267 OA
HETATM   10  H7  UNK     1      18.521   8.092  32.705  1.00  0.00     0.169 HD
BRANCH   8  11
HETATM   11  C14 UNK     1      16.413   9.412  33.284  1.00  0.00     0.033 A 
HETATM   12  C18 UNK     1      15.216  10.093  33.337  1.00  0.00     0.039 A 
HETATM   13  C21 UNK     1      15.198  11.380  33.877  1.00  0.00     0.045 A 
HETATM   14 Br1  UNK     1      13.551  12.317  33.949  1.00  0.00    -0.048 Br
HETATM   15  C20 UNK     1      16.376  11.953  34.352  1.00  0.00     0.086 A 
HETATM   16  C22 UNK     1      17.574  11.241  34.287  1.00  0.00     0.039 A 
HETATM   17  C19 UNK     1      17.593   9.955  33.748  1.00  0.00     0.020 A 
BRANCH  15  18
HETATM   18  O2  UNK     1      16.392  13.207  34.886  1.00  0.00    -0.350 OA
BRANCH  18  19
HETATM   19  C23 UNK     1      16.398  13.305  36.309  1.00  0.00     0.171 C 
HETATM   20  C24 UNK     1      15.351  14.311  36.738  1.00  0.00     0.034 C 
ENDBRANCH  18  19
ENDBRANCH  15  18
ENDBRANCH   8  11
ENDBRANCH   2   7
BRANCH   1  21
HETATM   21  C1  UNK     1      18.899   2.408  30.392  1.00  0.00     0.051 A 
HETATM   22  C4  UNK     1      19.485   1.505  31.192  1.00  0.00     0.032 A 
HETATM   23  C3  UNK     1      19.825   0.179  30.702  1.00  0.00    -0.001 A 
HETATM   24  C12 UNK     1      20.429  -0.784  31.514  1.00  0.00     0.014 A 
HETATM   25  C5  UNK     1      19.543  -0.140  29.379  1.00  0.00     0.089 A 
HETATM   26  C16 UNK     1      20.739  -2.044  30.993  1.00  0.00     0.001 A 
HETATM   27  C17 UNK     1      20.447  -2.347  29.661  1.00  0.00     0.003 A 
HETATM   28  C13 UNK     1      19.845  -1.391  28.845  1.00  0.00     0.038 A 
HETATM   29  O1  UNK     1      18.934   0.804  28.532  1.00  0.00    -0.274 OA
HETATM   30  C9  UNK     1      18.583   2.077  28.975  1.00  0.00     0.299 A 
HETATM   31  O3  UNK     1      18.033   2.877  28.226  1.00  0.00    -0.259 OA
ENDBRANCH   1  21
TORSDOF 5
ENDMDL
MODEL 6
REMARK VINA RESULT:      -9.1      7.111     10.038
REMARK  5 active torsions:
REMARK  status: ('A' for Active; 'I' for Inactive)
REMARK    1  A    between atoms: C20_26  and  O2_3 
REMARK    2  A    between atoms: C23_29  and  O2_3 
REMARK       I    between atoms: C15_21  and  N1_6 
REMARK    3  A    between atoms: C6_12  and  N1_6 
REMARK    4  A    between atoms: C1_7  and  C2_8 
REMARK    5  A    between atoms: C14_20  and  C15_21 
ROOT
HETATM    1  C2  UNK     1      20.106  -4.058  36.568  1.00  0.00    -0.020 A 
HETATM    2  C6  UNK     1      19.624  -1.601  35.340  1.00  0.00     0.035 A 
HETATM    3  C7  UNK     1      19.616  -2.989  37.317  1.00  0.00     0.014 A 
HETATM    4  C8  UNK     1      20.355  -3.899  35.205  1.00  0.00     0.014 A 
HETATM    5  C10 UNK     1      19.375  -1.760  36.703  1.00  0.00     0.030 A 
HETATM    6  C11 UNK     1      20.115  -2.670  34.591  1.00  0.00     0.030 A 
ENDROOT
BRANCH   2   7
HETATM    7  N1  UNK     1      19.385  -0.371  34.726  1.00  0.00    -0.323 N 
HETATM    8  C15 UNK     1      18.232  -0.014  34.038  1.00  0.00     0.256 C 
HETATM    9  O4  UNK     1      17.230  -0.693  33.843  1.00  0.00    -0.267 OA
HETATM   10  H7  UNK     1      20.123   0.314  34.860  1.00  0.00     0.169 HD
BRANCH   8  11
HETATM   11  C14 UNK     1      18.234   1.376  33.510  1.00  0.00     0.033 A 
HETATM   12  C18 UNK     1      18.325   1.570  32.148  1.00  0.00     0.039 A 
HETATM   13  C21 UNK     1      18.327   2.875  31.653  1.00  0.00     0.045 A 
HETATM   14 Br1  UNK     1      18.453   3.142  29.781  1.00  0.00    -0.048 Br
HETATM   15  C20 UNK     1      18.235   3.953  32.532  1.00  0.00     0.086 A 
HETATM   16  C22 UNK     1      18.143   3.729  33.905  1.00  0.00     0.039 A 
HETATM   17  C19 UNK     1      18.141   2.425  34.401  1.00  0.00     0.020 A 
BRANCH  15  18
HETATM   18  O2  UNK     1      18.233   5.240  32.081  1.00  0.00    -0.350 OA
BRANCH  18  19
HETATM   19  C23 UNK     1      19.361   6.045  32.416  1.00  0.00     0.171 C 
HETATM   20  C24 UNK     1      20.387   5.941  31.307  1.00  0.00     0.034 C 
ENDBRANCH  18  19
ENDBRANCH  15  18
ENDBRANCH   8  11
ENDBRANCH   2   7
BRANCH   1  21
HETATM   21  C1  UNK     1      20.360  -5.358  37.217  1.00  0.00     0.051 A 
HETATM   22  C4  UNK     1      19.413  -6.307  37.164  1.00  0.00     0.032 A 
HETATM   23  C3  UNK     1      19.611  -7.598  37.802  1.00  0.00    -0.001 A 
HETATM   24  C12 UNK     1      18.647  -8.608  37.757  1.00  0.00     0.014 A 
HETATM   25  C5  UNK     1      20.800  -7.836  38.481  1.00  0.00     0.089 A 
HETATM   26  C16 UNK     1      18.885  -9.832  38.390  1.00  0.00     0.001 A 
HETATM   27  C17 UNK     1      20.085 -10.053  39.068  1.00  0.00     0.003 A 
HETATM   28  C13 UNK     1      21.052  -9.050  39.117  1.00  0.00     0.038 A 
HETATM   29  O1  UNK     1      21.795  -6.844  38.546  1.00  0.00    -0.274 OA
HETATM   30  C9  UNK     1      21.642  -5.602  37.934  1.00  0.00     0.299 A 
HETATM   31  O3  UNK     1      22.531  -4.759  37.985  1.00  0.00    -0.259 OA
ENDBRANCH   1  21
TORSDOF 5
ENDMDL
MODEL 7
REMARK VINA RESULT:      -9.1     22.913     24.414
REMARK  5 active torsions:
REMARK  status: ('A' for Active; 'I' for Inactive)
REMARK    1  A    between atoms: C20_26  and  O2_3 
REMARK    2  A    between atoms: C23_29  and  O2_3 
REMARK       I    between atoms: C15_21  and  N1_6 
REMARK    3  A    between atoms: C6_12  and  N1_6 
REMARK    4  A    between atoms: C1_7  and  C2_8 
REMARK    5  A    between atoms: C14_20  and  C15_21 
ROOT
HETATM    1  C2  UNK     1      14.601   8.834   9.040  1.00  0.00    -0.020 A 
HETATM    2  C6  UNK     1      17.049  10.111   9.431  1.00  0.00     0.035 A 
HETATM    3  C7  UNK     1      14.754  10.172   8.680  1.00  0.00     0.014 A 
HETATM    4  C8  UNK     1      15.672   8.133   9.595  1.00  0.00     0.014 A 
HETATM    5  C10 UNK     1      15.978  10.811   8.876  1.00  0.00     0.030 A 
HETATM    6  C11 UNK     1      16.896   8.773   9.791  1.00  0.00     0.030 A 
ENDROOT
BRANCH   2   7
HETATM    7  N1  UNK     1      18.273  10.751   9.629  1.00  0.00    -0.323 N 
HETATM    8  C15 UNK     1      18.943  11.536   8.697  1.00  0.00     0.256 C 
HETATM    9  O4  UNK     1      18.596  11.810   7.554  1.00  0.00    -0.267 OA
HETATM   10  H7  UNK     1      18.652  10.650  10.565  1.00  0.00     0.169 HD
BRANCH   8  11
HETATM   11  C14 UNK     1      20.218  12.122   9.188  1.00  0.00     0.033 A 
HETATM   12  C18 UNK     1      20.830  13.104   8.438  1.00  0.00     0.039 A 
HETATM   13  C21 UNK     1      22.027  13.654   8.899  1.00  0.00     0.045 A 
HETATM   14 Br1  UNK     1      22.870  15.003   7.868  1.00  0.00    -0.048 Br
HETATM   15  C20 UNK     1      22.581  13.210  10.099  1.00  0.00     0.086 A 
HETATM   16  C22 UNK     1      21.941  12.216  10.838  1.00  0.00     0.039 A 
HETATM   17  C19 UNK     1      20.745  11.666  10.379  1.00  0.00     0.020 A 
BRANCH  15  18
HETATM   18  O2  UNK     1      23.749  13.728  10.578  1.00  0.00    -0.350 OA
BRANCH  18  19
HETATM   19  C23 UNK     1      24.486  12.922  11.494  1.00  0.00     0.171 C 
HETATM   20  C24 UNK     1      25.845  12.617  10.900  1.00  0.00     0.034 C 
ENDBRANCH  18  19
ENDBRANCH  15  18
ENDBRANCH   8  11
ENDBRANCH   2   7
BRANCH   1  21
HETATM   21  C1  UNK     1      13.307   8.157   8.832  1.00  0.00     0.051 A 
HETATM   22  C4  UNK     1      12.949   7.805   7.588  1.00  0.00     0.032 A 
HETATM   23  C3  UNK     1      11.677   7.151   7.331  1.00  0.00    -0.001 A 
HETATM   24  C12 UNK     1      11.282   6.767   6.048  1.00  0.00     0.014 A 
HETATM   25  C5  UNK     1      10.824   6.901   8.399  1.00  0.00     0.089 A 
HETATM   26  C16 UNK     1      10.045   6.143   5.854  1.00  0.00     0.001 A 
HETATM   27  C17 UNK     1       9.201   5.899   6.939  1.00  0.00     0.003 A 
HETATM   28  C13 UNK     1       9.589   6.279   8.222  1.00  0.00     0.038 A 
HETATM   29  O1  UNK     1      11.189   7.272   9.706  1.00  0.00    -0.274 OA
HETATM   30  C9  UNK     1      12.407   7.887   9.987  1.00  0.00     0.299 A 
HETATM   31  O3  UNK     1      12.714   8.183  11.137  1.00  0.00    -0.259 OA
ENDBRANCH   1  21
TORSDOF 5
ENDMDL
MODEL 8
REMARK VINA RESULT:      -8.9      8.337     14.131
REMARK  5 active torsions:
REMARK  status: ('A' for Active; 'I' for Inactive)
REMARK    1  A    between atoms: C20_26  and  O2_3 
REMARK    2  A    between atoms: C23_29  and  O2_3 
REMARK       I    between atoms: C15_21  and  N1_6 
REMARK    3  A    between atoms: C6_12  and  N1_6 
REMARK    4  A    between atoms: C1_7  and  C2_8 
REMARK    5  A    between atoms: C14_20  and  C15_21 
ROOT
HETATM    1  C2  UNK     1      18.665  -0.354  35.390  1.00  0.00    -0.020 A 
HETATM    2  C6  UNK     1      18.940  -2.935  36.408  1.00  0.00     0.035 A 
HETATM    3  C7  UNK     1      19.611  -1.221  34.844  1.00  0.00     0.014 A 
HETATM    4  C8  UNK     1      17.857  -0.777  36.445  1.00  0.00     0.014 A 
HETATM    5  C10 UNK     1      19.749  -2.512  35.353  1.00  0.00     0.030 A 
HETATM    6  C11 UNK     1      17.995  -2.068  36.954  1.00  0.00     0.030 A 
ENDROOT
BRANCH   2   7
HETATM    7  N1  UNK     1      19.079  -4.226  36.919  1.00  0.00    -0.323 N 
HETATM    8  C15 UNK     1      20.270  -4.823  37.315  1.00  0.00     0.256 C 
HETATM    9  O4  UNK     1      21.398  -4.343  37.292  1.00  0.00    -0.267 OA
HETATM   10  H7  UNK     1      18.203  -4.723  37.043  1.00  0.00     0.169 HD
BRANCH   8  11
HETATM   11  C14 UNK     1      20.121  -6.201  37.852  1.00  0.00     0.033 A 
HETATM   12  C18 UNK     1      21.121  -6.715  38.651  1.00  0.00     0.039 A 
HETATM   13  C21 UNK     1      20.980  -8.009  39.155  1.00  0.00     0.045 A 
HETATM   14 Br1  UNK     1      22.354  -8.716  40.252  1.00  0.00    -0.048 Br
HETATM   15  C20 UNK     1      19.843  -8.756  38.850  1.00  0.00     0.086 A 
HETATM   16  C22 UNK     1      18.846  -8.211  38.040  1.00  0.00     0.039 A 
HETATM   17  C19 UNK     1      18.986  -6.918  37.536  1.00  0.00     0.020 A 
BRANCH  15  18
HETATM   18  O2  UNK     1      19.674 -10.022  39.327  1.00  0.00    -0.350 OA
BRANCH  18  19
HETATM   19  C23 UNK     1      19.495 -11.058  38.364  1.00  0.00     0.171 C 
HETATM   20  C24 UNK     1      20.659 -11.038  37.396  1.00  0.00     0.034 C 
ENDBRANCH  18  19
ENDBRANCH  15  18
ENDBRANCH   8  11
ENDBRANCH   2   7
BRANCH   1  21
HETATM   21  C1  UNK     1      18.519   1.012  34.851  1.00  0.00     0.051 A 
HETATM   22  C4  UNK     1      18.416   1.179  33.523  1.00  0.00     0.032 A 
HETATM   23  C3  UNK     1      18.285   2.506  32.945  1.00  0.00    -0.001 A 
HETATM   24  C12 UNK     1      18.170   2.711  31.568  1.00  0.00     0.014 A 
HETATM   25  C5  UNK     1      18.278   3.609  33.789  1.00  0.00     0.089 A 
HETATM   26  C16 UNK     1      18.049   4.009  31.060  1.00  0.00     0.001 A 
HETATM   27  C17 UNK     1      18.044   5.105  31.925  1.00  0.00     0.003 A 
HETATM   28  C13 UNK     1      18.159   4.909  33.300  1.00  0.00     0.038 A 
HETATM   29  O1  UNK     1      18.391   3.442  35.182  1.00  0.00    -0.274 OA
HETATM   30  C9  UNK     1      18.503   2.184  35.769  1.00  0.00     0.299 A 
HETATM   31  O3  UNK     1      18.579   2.060  36.986  1.00  0.00    -0.259 OA
ENDBRANCH   1  21
TORSDOF 5
ENDMDL
MODEL 9
REMARK VINA RESULT:      -8.7      2.287      2.975
REMARK  5 active torsions:
REMARK  status: ('A' for Active; 'I' for Inactive)
REMARK    1  A    between atoms: C20_26  and  O2_3 
REMARK    2  A    between atoms: C23_29  and  O2_3 
REMARK       I    between atoms: C15_21  and  N1_6 
REMARK    3  A    between atoms: C6_12  and  N1_6 
REMARK    4  A    between atoms: C1_7  and  C2_8 
REMARK    5  A    between atoms: C14_20  and  C15_21 
ROOT
HETATM    1  C2  UNK     1      18.164   3.727  32.493  1.00  0.00    -0.020 A 
HETATM    2  C6  UNK     1      17.377   6.324  33.137  1.00  0.00     0.035 A 
HETATM    3  C7  UNK     1      18.269   4.181  33.808  1.00  0.00     0.014 A 
HETATM    4  C8  UNK     1      17.666   4.571  31.501  1.00  0.00     0.014 A 
HETATM    5  C10 UNK     1      17.875   5.480  34.130  1.00  0.00     0.030 A 
HETATM    6  C11 UNK     1      17.273   5.870  31.823  1.00  0.00     0.030 A 
ENDROOT
BRANCH   2   7
HETATM    7  N1  UNK     1      16.985   7.624  33.459  1.00  0.00    -0.323 N 
HETATM    8  C15 UNK     1      15.739   8.004  33.944  1.00  0.00     0.256 C 
HETATM    9  O4  UNK     1      14.771   7.289  34.176  1.00  0.00    -0.267 OA
HETATM   10  H7  UNK     1      17.720   8.318  33.364  1.00  0.00     0.169 HD
BRANCH   8  11
HETATM   11  C14 UNK     1      15.606   9.456  34.232  1.00  0.00     0.033 A 
HETATM   12  C18 UNK     1      16.716  10.264  34.108  1.00  0.00     0.039 A 
HETATM   13  C21 UNK     1      16.590  11.627  34.379  1.00  0.00     0.045 A 
HETATM   14 Br1  UNK     1      18.117  12.737  34.209  1.00  0.00    -0.048 Br
HETATM   15  C20 UNK     1      15.356  12.149  34.765  1.00  0.00     0.086 A 
HETATM   16  C22 UNK     1      14.249  11.310  34.883  1.00  0.00     0.039 A 
HETATM   17  C19 UNK     1      14.374   9.947  34.612  1.00  0.00     0.020 A 
BRANCH  15  18
HETATM   18  O2  UNK     1      15.199  13.476  35.036  1.00  0.00    -0.350 OA
BRANCH  18  19
HETATM   19  C23 UNK     1      14.692  13.818  36.324  1.00  0.00     0.171 C 
HETATM   20  C24 UNK     1      15.815  13.735  37.335  1.00  0.00     0.034 C 
ENDBRANCH  18  19
ENDBRANCH  15  18
ENDBRANCH   8  11
ENDBRANCH   2   7
BRANCH   1  21
HETATM   21  C1  UNK     1      18.579   2.353  32.153  1.00  0.00     0.051 A 
HETATM   22  C4  UNK     1      19.042   2.100  30.919  1.00  0.00     0.032 A 
HETATM   23  C3  UNK     1      19.448   0.759  30.533  1.00  0.00    -0.001 A 
HETATM   24  C12 UNK     1      19.941   0.468  29.258  1.00  0.00     0.014 A 
HETATM   25  C5  UNK     1      19.341  -0.269  31.461  1.00  0.00     0.089 A 
HETATM   26  C16 UNK     1      20.315  -0.840  28.935  1.00  0.00     0.001 A 
HETATM   27  C17 UNK     1      20.200  -1.860  29.881  1.00  0.00     0.003 A 
HETATM   28  C13 UNK     1      19.710  -1.577  31.154  1.00  0.00     0.038 A 
HETATM   29  O1  UNK     1      18.851  -0.012  32.755  1.00  0.00    -0.274 OA
HETATM   30  C9  UNK     1      18.466   1.263  33.161  1.00  0.00     0.299 A 
HETATM   31  O3  UNK     1      18.062   1.468  34.300  1.00  0.00    -0.259 OA
ENDBRANCH   1  21
TORSDOF 5
ENDMDL
MODEL 10
REMARK VINA RESULT:      -8.6      6.648      9.522
REMARK  5 active torsions:
REMARK  status: ('A' for Active; 'I' for Inactive)
REMARK    1  A    between atoms: C20_26  and  O2_3 
REMARK    2  A    between atoms: C23_29  and  O2_3 
REMARK       I    between atoms: C15_21  and  N1_6 
REMARK    3  A    between atoms: C6_12  and  N1_6 
REMARK    4  A    between atoms: C1_7  and  C2_8 
REMARK    5  A    between atoms: C14_20  and  C15_21 
ROOT
HETATM    1  C2  UNK     1      19.789  -3.660  36.172  1.00  0.00    -0.020 A 
HETATM    2  C6  UNK     1      19.337  -1.286  34.781  1.00  0.00     0.035 A 
HETATM    3  C7  UNK     1      19.076  -2.624  36.775  1.00  0.00     0.014 A 
HETATM    4  C8  UNK     1      20.276  -3.509  34.874  1.00  0.00     0.014 A 
HETATM    5  C10 UNK     1      18.850  -1.437  36.079  1.00  0.00     0.030 A 
HETATM    6  C11 UNK     1      20.050  -2.321  34.178  1.00  0.00     0.030 A 
ENDROOT
BRANCH   2   7
HETATM    7  N1  UNK     1      19.112  -0.097  34.086  1.00  0.00    -0.323 N 
HETATM    8  C15 UNK     1      18.220   0.905  34.450  1.00  0.00     0.256 C 
HETATM    9  O4  UNK     1      17.478   0.936  35.425  1.00  0.00    -0.267 OA
HETATM   10  H7  UNK     1      19.709   0.032  33.275  1.00  0.00     0.169 HD
BRANCH   8  11
HETATM   11  C14 UNK     1      18.207   2.080  33.540  1.00  0.00     0.033 A 
HETATM   12  C18 UNK     1      18.160   3.345  34.087  1.00  0.00     0.039 A 
HETATM   13  C21 UNK     1      18.148   4.447  33.232  1.00  0.00     0.045 A 
HETATM   14 Br1  UNK     1      18.082   6.186  33.984  1.00  0.00    -0.048 Br
HETATM   15  C20 UNK     1      18.185   4.259  31.851  1.00  0.00     0.086 A 
HETATM   16  C22 UNK     1      18.233   2.969  31.323  1.00  0.00     0.039 A 
HETATM   17  C19 UNK     1      18.245   1.866  32.177  1.00  0.00     0.020 A 
BRANCH  15  18
HETATM   18  O2  UNK     1      18.176   5.315  30.988  1.00  0.00    -0.350 OA
BRANCH  18  19
HETATM   19  C23 UNK     1      19.189   5.341  29.986  1.00  0.00     0.171 C 
HETATM   20  C24 UNK     1      20.488   5.803  30.610  1.00  0.00     0.034 C 
ENDBRANCH  18  19
ENDBRANCH  15  18
ENDBRANCH   8  11
ENDBRANCH   2   7
BRANCH   1  21
HETATM   21  C1  UNK     1      20.027  -4.916  36.907  1.00  0.00     0.051 A 
HETATM   22  C4  UNK     1      19.195  -5.951  36.714  1.00  0.00     0.032 A 
HETATM   23  C3  UNK     1      19.380  -7.204  37.427  1.00  0.00    -0.001 A 
HETATM   24  C12 UNK     1      18.534  -8.299  37.241  1.00  0.00     0.014 A 
HETATM   25  C5  UNK     1      20.433  -7.315  38.326  1.00  0.00     0.089 A 
HETATM   26  C16 UNK     1      18.753  -9.483  37.954  1.00  0.00     0.001 A 
HETATM   27  C17 UNK     1      19.817  -9.576  38.853  1.00  0.00     0.003 A 
HETATM   28  C13 UNK     1      20.666  -8.487  39.044  1.00  0.00     0.038 A 
HETATM   29  O1  UNK     1      21.308  -6.233  38.538  1.00  0.00    -0.274 OA
HETATM   30  C9  UNK     1      21.166  -5.025  37.860  1.00  0.00     0.299 A 
HETATM   31  O3  UNK     1      21.952  -4.102  38.044  1.00  0.00    -0.259 OA
ENDBRANCH   1  21
TORSDOF 5
ENDMDL
