MODEL 1
REMARK VINA RESULT:     -10.8      0.000      0.000
REMARK  8 active torsions:
REMARK  status: ('A' for Active; 'I' for Inactive)
REMARK    1  A    between atoms: C2_16  and  N1_9 
REMARK    2  A    between atoms: C20_34  and  N2_10 
REMARK    3  A    between atoms: C6_20  and  N2_10 
REMARK       I    between atoms: C19_33  and  N4_12 
REMARK    4  A    between atoms: N4_12  and  N5_13 
REMARK    5  A    between atoms: C20_34  and  N5_13 
REMARK    6  A    between atoms: C18_32  and  N6_14 
REMARK    7  A    between atoms: C2_16  and  C4_18 
REMARK    8  A    between atoms: C11_25  and  C19_33 
ROOT
HETATM    1  O4  UNK     1      16.093   0.946  34.214  1.00  0.00    -0.264 OA
HETATM    2  N4  UNK     1      18.236   1.285  33.461  1.00  0.00    -0.262 N 
HETATM    3  C19 UNK     1      17.299   0.714  34.310  1.00  0.00     0.293 C 
HETATM    4  H14 UNK     1      19.220   1.037  33.470  1.00  0.00     0.190 HD
ENDROOT
BRANCH   2   5
HETATM    5  N5  UNK     1      17.802   2.144  32.473  1.00  0.00    -0.273 N 
HETATM    6  H15 UNK     1      16.896   2.579  32.613  1.00  0.00     0.189 HD
BRANCH   5   7
HETATM    7  C20 UNK     1      18.558   2.380  31.330  1.00  0.00     0.191 C 
HETATM    8  S1  UNK     1      19.168   1.039  30.530  1.00  0.00    -0.039 SA
BRANCH   7   9
HETATM    9  N2  UNK     1      18.680   3.738  30.988  1.00  0.00    -0.332 N 
HETATM   10  H13 UNK     1      18.778   3.890  29.986  1.00  0.00     0.168 HD
BRANCH   9  11
HETATM   11  C6  UNK     1      18.622   4.928  31.714  1.00  0.00     0.037 A 
HETATM   12  C8  UNK     1      17.396   5.428  32.139  1.00  0.00     0.067 A 
HETATM   13  C3  UNK     1      17.362   6.620  32.864  1.00  0.00     0.092 A 
HETATM   14  C1  UNK     1      18.519   7.333  33.181  1.00  0.00     0.004 A 
HETATM   15  O2  UNK     1      16.091   7.076  33.268  1.00  0.00    -0.275 OA
HETATM   16  C5  UNK     1      18.389   8.580  33.949  1.00  0.00    -0.043 A 
HETATM   17  C7  UNK     1      19.744   6.813  32.743  1.00  0.00     0.017 A 
HETATM   18  C12 UNK     1      17.167   8.990  34.320  1.00  0.00     0.090 A 
HETATM   19  C15 UNK     1      19.614   9.371  34.305  1.00  0.00     0.049 C 
HETATM   20  C16 UNK     1      15.938   8.247  33.994  1.00  0.00     0.288 A 
HETATM   21  O3  UNK     1      14.837   8.653  34.350  1.00  0.00    -0.260 OA
HETATM   22  C9  UNK     1      19.795   5.619  32.015  1.00  0.00     0.030 A 
ENDBRANCH   9  11
ENDBRANCH   7   9
ENDBRANCH   5   7
ENDBRANCH   2   5
BRANCH   3  23
HETATM   23  C11 UNK     1      17.845  -0.206  35.319  1.00  0.00     0.144 A 
HETATM   24  O1  UNK     1      19.029  -0.756  35.034  1.00  0.00    -0.308 OA
HETATM   25  C4  UNK     1      19.310  -1.551  36.101  1.00  0.00     0.073 A 
HETATM   26  C10 UNK     1      18.299  -1.485  37.032  1.00  0.00     0.037 A 
HETATM   27  C13 UNK     1      17.336  -0.592  36.503  1.00  0.00     0.045 A 
BRANCH  25  28
HETATM   28  C2  UNK     1      20.581  -2.287  36.047  1.00  0.00     0.215 C 
BRANCH  28  29
HETATM   29  N1  UNK     1      20.397  -3.733  36.283  1.00  0.00    -0.271 N 
HETATM   30  C14 UNK     1      20.447  -4.337  37.484  1.00  0.00     0.136 A 
HETATM   31  C17 UNK     1      20.224  -5.665  37.218  1.00  0.00     0.082 A 
HETATM   32 Br1  UNK     1      20.152  -7.093  38.414  1.00  0.00    -0.045 Br
HETATM   33  C18 UNK     1      20.055  -5.721  35.821  1.00  0.00     0.233 A 
HETATM   34  N3  UNK     1      20.164  -4.522  35.241  1.00  0.00    -0.146 NA
BRANCH  33  35
HETATM   35  N6  UNK     1      19.800  -6.791  34.950  1.00  0.00    -0.093 N 
HETATM   36  O5  UNK     1      20.763  -7.350  34.358  1.00  0.00    -0.530 OA
HETATM   37  O6  UNK     1      18.613  -7.177  34.776  1.00  0.00    -0.530 OA
ENDBRANCH  33  35
ENDBRANCH  28  29
ENDBRANCH  25  28
ENDBRANCH   3  23
TORSDOF 8
ENDMDL
MODEL 2
REMARK VINA RESULT:     -10.6      4.509     10.141
REMARK  8 active torsions:
REMARK  status: ('A' for Active; 'I' for Inactive)
REMARK    1  A    between atoms: C2_16  and  N1_9 
REMARK    2  A    between atoms: C20_34  and  N2_10 
REMARK    3  A    between atoms: C6_20  and  N2_10 
REMARK       I    between atoms: C19_33  and  N4_12 
REMARK    4  A    between atoms: N4_12  and  N5_13 
REMARK    5  A    between atoms: C20_34  and  N5_13 
REMARK    6  A    between atoms: C18_32  and  N6_14 
REMARK    7  A    between atoms: C2_16  and  C4_18 
REMARK    8  A    between atoms: C11_25  and  C19_33 
ROOT
HETATM    1  O4  UNK     1      17.328   2.576  30.876  1.00  0.00    -0.264 OA
HETATM    2  N4  UNK     1      19.410   2.419  29.920  1.00  0.00    -0.262 N 
HETATM    3  C19 UNK     1      18.437   3.069  30.667  1.00  0.00     0.293 C 
HETATM    4  H14 UNK     1      20.356   2.771  29.814  1.00  0.00     0.190 HD
ENDROOT
BRANCH   2   5
HETATM    5  N5  UNK     1      19.126   1.178  29.393  1.00  0.00    -0.273 N 
HETATM    6  H15 UNK     1      18.630   1.162  28.507  1.00  0.00     0.189 HD
BRANCH   5   7
HETATM    7  C20 UNK     1      19.480   0.007  30.053  1.00  0.00     0.191 C 
HETATM    8  S1  UNK     1      20.835  -0.805  29.491  1.00  0.00    -0.039 SA
BRANCH   7   9
HETATM    9  N2  UNK     1      18.647  -0.319  31.138  1.00  0.00    -0.332 N 
HETATM   10  H13 UNK     1      17.657  -0.244  30.917  1.00  0.00     0.168 HD
BRANCH   9  11
HETATM   11  C6  UNK     1      18.881  -0.795  32.429  1.00  0.00     0.037 A 
HETATM   12  C8  UNK     1      18.236  -0.213  33.515  1.00  0.00     0.067 A 
HETATM   13  C3  UNK     1      18.485  -0.704  34.797  1.00  0.00     0.092 A 
HETATM   14  C1  UNK     1      19.361  -1.764  35.032  1.00  0.00     0.004 A 
HETATM   15  O2  UNK     1      17.802  -0.075  35.857  1.00  0.00    -0.275 OA
HETATM   16  C5  UNK     1      19.564  -2.217  36.416  1.00  0.00    -0.043 A 
HETATM   17  C7  UNK     1      20.002  -2.337  33.925  1.00  0.00     0.017 A 
HETATM   18  C12 UNK     1      18.900  -1.600  37.404  1.00  0.00     0.090 A 
HETATM   19  C15 UNK     1      20.500  -3.355  36.702  1.00  0.00     0.049 C 
HETATM   20  C16 UNK     1      17.972  -0.481  37.172  1.00  0.00     0.288 A 
HETATM   21  O3  UNK     1      17.383   0.059  38.102  1.00  0.00    -0.260 OA
HETATM   22  C9  UNK     1      19.763  -1.855  32.633  1.00  0.00     0.030 A 
ENDBRANCH   9  11
ENDBRANCH   7   9
ENDBRANCH   5   7
ENDBRANCH   2   5
BRANCH   3  23
HETATM   23  C11 UNK     1      18.832   4.376  31.211  1.00  0.00     0.144 A 
HETATM   24  O1  UNK     1      18.297   4.709  32.391  1.00  0.00    -0.308 OA
HETATM   25  C4  UNK     1      18.807   5.937  32.671  1.00  0.00     0.073 A 
HETATM   26  C10 UNK     1      19.650   6.351  31.665  1.00  0.00     0.037 A 
HETATM   27  C13 UNK     1      19.657   5.310  30.706  1.00  0.00     0.045 A 
BRANCH  25  28
HETATM   28  C2  UNK     1      18.374   6.548  33.936  1.00  0.00     0.215 C 
BRANCH  28  29
HETATM   29  N1  UNK     1      17.061   7.211  33.814  1.00  0.00    -0.271 N 
HETATM   30  C14 UNK     1      16.709   8.356  34.426  1.00  0.00     0.136 A 
HETATM   31  C17 UNK     1      15.415   8.584  34.024  1.00  0.00     0.082 A 
HETATM   32 Br1  UNK     1      14.291   9.998  34.482  1.00  0.00    -0.045 Br
HETATM   33  C18 UNK     1      15.115   7.502  33.175  1.00  0.00     0.233 A 
HETATM   34  N3  UNK     1      16.135   6.650  33.046  1.00  0.00    -0.146 NA
BRANCH  33  35
HETATM   35  N6  UNK     1      13.956   7.169  32.458  1.00  0.00    -0.093 N 
HETATM   36  O5  UNK     1      13.987   7.169  31.197  1.00  0.00    -0.530 OA
HETATM   37  O6  UNK     1      12.903   6.874  33.085  1.00  0.00    -0.530 OA
ENDBRANCH  33  35
ENDBRANCH  28  29
ENDBRANCH  25  28
ENDBRANCH   3  23
TORSDOF 8
ENDMDL
MODEL 3
REMARK VINA RESULT:     -10.5      4.646     10.665
REMARK  8 active torsions:
REMARK  status: ('A' for Active; 'I' for Inactive)
REMARK    1  A    between atoms: C2_16  and  N1_9 
REMARK    2  A    between atoms: C20_34  and  N2_10 
REMARK    3  A    between atoms: C6_20  and  N2_10 
REMARK       I    between atoms: C19_33  and  N4_12 
REMARK    4  A    between atoms: N4_12  and  N5_13 
REMARK    5  A    between atoms: C20_34  and  N5_13 
REMARK    6  A    between atoms: C18_32  and  N6_14 
REMARK    7  A    between atoms: C2_16  and  C4_18 
REMARK    8  A    between atoms: C11_25  and  C19_33 
ROOT
HETATM    1  O4  UNK     1      17.168   2.609  30.733  1.00  0.00    -0.264 OA
HETATM    2  N4  UNK     1      19.383   2.608  30.127  1.00  0.00    -0.262 N 
HETATM    3  C19 UNK     1      18.274   3.152  30.759  1.00  0.00     0.293 C 
HETATM    4  H14 UNK     1      20.317   2.995  30.213  1.00  0.00     0.190 HD
ENDROOT
BRANCH   2   5
HETATM    5  N5  UNK     1      19.245   1.417  29.447  1.00  0.00    -0.273 N 
HETATM    6  H15 UNK     1      18.881   1.472  28.501  1.00  0.00     0.189 HD
BRANCH   5   7
HETATM    7  C20 UNK     1      19.564   0.199  30.037  1.00  0.00     0.191 C 
HETATM    8  S1  UNK     1      20.940  -0.580  29.478  1.00  0.00    -0.039 SA
BRANCH   7   9
HETATM    9  N2  UNK     1      18.683  -0.198  31.058  1.00  0.00    -0.332 N 
HETATM   10  H13 UNK     1      17.710  -0.210  30.762  1.00  0.00     0.168 HD
BRANCH   9  11
HETATM   11  C6  UNK     1      18.859  -0.649  32.366  1.00  0.00     0.037 A 
HETATM   12  C8  UNK     1      18.250   0.019  33.423  1.00  0.00     0.067 A 
HETATM   13  C3  UNK     1      18.439  -0.450  34.724  1.00  0.00     0.092 A 
HETATM   14  C1  UNK     1      19.220  -1.571  35.006  1.00  0.00     0.004 A 
HETATM   15  O2  UNK     1      17.797   0.268  35.752  1.00  0.00    -0.275 OA
HETATM   16  C5  UNK     1      19.365  -1.995  36.406  1.00  0.00    -0.043 A 
HETATM   17  C7  UNK     1      19.826  -2.231  33.927  1.00  0.00     0.017 A 
HETATM   18  C12 UNK     1      18.742  -1.293  37.364  1.00  0.00     0.090 A 
HETATM   19  C15 UNK     1      20.198  -3.197  36.742  1.00  0.00     0.049 C 
HETATM   20  C16 UNK     1      17.914  -0.108  37.082  1.00  0.00     0.288 A 
HETATM   21  O3  UNK     1      17.360   0.509  37.985  1.00  0.00    -0.260 OA
HETATM   22  C9  UNK     1      19.645  -1.773  32.617  1.00  0.00     0.030 A 
ENDBRANCH   9  11
ENDBRANCH   7   9
ENDBRANCH   5   7
ENDBRANCH   2   5
BRANCH   3  23
HETATM   23  C11 UNK     1      18.515   4.410  31.480  1.00  0.00     0.144 A 
HETATM   24  O1  UNK     1      17.765   4.619  32.566  1.00  0.00    -0.308 OA
HETATM   25  C4  UNK     1      18.170   5.826  33.043  1.00  0.00     0.073 A 
HETATM   26  C10 UNK     1      19.165   6.349  32.249  1.00  0.00     0.037 A 
HETATM   27  C13 UNK     1      19.384   5.404  31.219  1.00  0.00     0.045 A 
BRANCH  25  28
HETATM   28  C2  UNK     1      17.495   6.306  34.257  1.00  0.00     0.215 C 
BRANCH  28  29
HETATM   29  N1  UNK     1      16.902   7.646  34.072  1.00  0.00    -0.271 N 
HETATM   30  C14 UNK     1      15.630   7.889  33.711  1.00  0.00     0.136 A 
HETATM   31  C17 UNK     1      15.535   9.258  33.665  1.00  0.00     0.082 A 
HETATM   32 Br1  UNK     1      14.053  10.305  33.236  1.00  0.00    -0.045 Br
HETATM   33  C18 UNK     1      16.820   9.712  34.020  1.00  0.00     0.233 A 
HETATM   34  N3  UNK     1      17.668   8.711  34.272  1.00  0.00    -0.146 NA
BRANCH  33  35
HETATM   35  N6  UNK     1      17.353  11.003  34.152  1.00  0.00    -0.093 N 
HETATM   36  O5  UNK     1      18.453  11.278  33.598  1.00  0.00    -0.530 OA
HETATM   37  O6  UNK     1      16.724  11.867  34.820  1.00  0.00    -0.530 OA
ENDBRANCH  33  35
ENDBRANCH  28  29
ENDBRANCH  25  28
ENDBRANCH   3  23
TORSDOF 8
ENDMDL
MODEL 4
REMARK VINA RESULT:     -10.5      4.044     11.725
REMARK  8 active torsions:
REMARK  status: ('A' for Active; 'I' for Inactive)
REMARK    1  A    between atoms: C2_16  and  N1_9 
REMARK    2  A    between atoms: C20_34  and  N2_10 
REMARK    3  A    between atoms: C6_20  and  N2_10 
REMARK       I    between atoms: C19_33  and  N4_12 
REMARK    4  A    between atoms: N4_12  and  N5_13 
REMARK    5  A    between atoms: C20_34  and  N5_13 
REMARK    6  A    between atoms: C18_32  and  N6_14 
REMARK    7  A    between atoms: C2_16  and  C4_18 
REMARK    8  A    between atoms: C11_25  and  C19_33 
ROOT
HETATM    1  O4  UNK     1      21.431  -2.823  32.045  1.00  0.00    -0.264 OA
HETATM    2  N4  UNK     1      19.838  -1.624  33.186  1.00  0.00    -0.262 N 
HETATM    3  C19 UNK     1      20.580  -1.932  32.054  1.00  0.00     0.293 C 
HETATM    4  H14 UNK     1      19.075  -0.956  33.185  1.00  0.00     0.190 HD
ENDROOT
BRANCH   2   5
HETATM    5  N5  UNK     1      20.060  -2.340  34.343  1.00  0.00    -0.273 N 
HETATM    6  H15 UNK     1      20.830  -3.002  34.328  1.00  0.00     0.189 HD
BRANCH   5   7
HETATM    7  C20 UNK     1      19.254  -2.181  35.464  1.00  0.00     0.191 C 
HETATM    8  S1  UNK     1      18.703  -0.632  35.792  1.00  0.00    -0.039 SA
BRANCH   7   9
HETATM    9  N2  UNK     1      18.990  -3.374  36.160  1.00  0.00    -0.332 N 
HETATM   10  H13 UNK     1      18.009  -3.481  36.409  1.00  0.00     0.168 HD
BRANCH   9  11
HETATM   11  C6  UNK     1      19.765  -4.477  36.519  1.00  0.00     0.037 A 
HETATM   12  C8  UNK     1      19.837  -5.582  35.679  1.00  0.00     0.067 A 
HETATM   13  C3  UNK     1      20.619  -6.675  36.058  1.00  0.00     0.092 A 
HETATM   14  C1  UNK     1      21.334  -6.700  37.256  1.00  0.00     0.004 A 
HETATM   15  O2  UNK     1      20.653  -7.765  35.166  1.00  0.00    -0.275 OA
HETATM   16  C5  UNK     1      22.132  -7.892  37.575  1.00  0.00    -0.043 A 
HETATM   17  C7  UNK     1      21.248  -5.576  38.089  1.00  0.00     0.017 A 
HETATM   18  C12 UNK     1      22.147  -8.915  36.707  1.00  0.00     0.090 A 
HETATM   19  C15 UNK     1      22.913  -7.950  38.855  1.00  0.00     0.049 C 
HETATM   20  C16 UNK     1      21.397  -8.903  35.439  1.00  0.00     0.288 A 
HETATM   21  O3  UNK     1      21.434  -9.857  34.671  1.00  0.00    -0.260 OA
HETATM   22  C9  UNK     1      20.469  -4.473  37.722  1.00  0.00     0.030 A 
ENDBRANCH   9  11
ENDBRANCH   7   9
ENDBRANCH   5   7
ENDBRANCH   2   5
BRANCH   3  23
HETATM   23  C11 UNK     1      20.263  -1.136  30.860  1.00  0.00     0.144 A 
HETATM   24  O1  UNK     1      19.208  -0.320  30.958  1.00  0.00    -0.308 OA
HETATM   25  C4  UNK     1      19.125   0.290  29.747  1.00  0.00     0.073 A 
HETATM   26  C10 UNK     1      20.126  -0.152  28.913  1.00  0.00     0.037 A 
HETATM   27  C13 UNK     1      20.871  -1.096  29.660  1.00  0.00     0.045 A 
BRANCH  25  28
HETATM   28  C2  UNK     1      18.032   1.259  29.580  1.00  0.00     0.215 C 
BRANCH  28  29
HETATM   29  N1  UNK     1      18.318   2.543  30.248  1.00  0.00    -0.271 N 
HETATM   30  C14 UNK     1      19.063   3.538  29.733  1.00  0.00     0.136 A 
HETATM   31  C17 UNK     1      19.053   4.517  30.697  1.00  0.00     0.082 A 
HETATM   32 Br1  UNK     1      19.882   6.186  30.662  1.00  0.00    -0.045 Br
HETATM   33  C18 UNK     1      18.266   3.982  31.735  1.00  0.00     0.233 A 
HETATM   34  N3  UNK     1      17.811   2.757  31.457  1.00  0.00    -0.146 NA
BRANCH  33  35
HETATM   35  N6  UNK     1      17.886   4.498  32.982  1.00  0.00    -0.093 N 
HETATM   36  O5  UNK     1      18.308   3.947  34.035  1.00  0.00    -0.530 OA
HETATM   37  O6  UNK     1      17.129   5.506  33.030  1.00  0.00    -0.530 OA
ENDBRANCH  33  35
ENDBRANCH  28  29
ENDBRANCH  25  28
ENDBRANCH   3  23
TORSDOF 8
ENDMDL
MODEL 5
REMARK VINA RESULT:     -10.5      4.254     11.963
REMARK  8 active torsions:
REMARK  status: ('A' for Active; 'I' for Inactive)
REMARK    1  A    between atoms: C2_16  and  N1_9 
REMARK    2  A    between atoms: C20_34  and  N2_10 
REMARK    3  A    between atoms: C6_20  and  N2_10 
REMARK       I    between atoms: C19_33  and  N4_12 
REMARK    4  A    between atoms: N4_12  and  N5_13 
REMARK    5  A    between atoms: C20_34  and  N5_13 
REMARK    6  A    between atoms: C18_32  and  N6_14 
REMARK    7  A    between atoms: C2_16  and  C4_18 
REMARK    8  A    between atoms: C11_25  and  C19_33 
ROOT
HETATM    1  O4  UNK     1      16.368  -1.306  35.279  1.00  0.00    -0.264 OA
HETATM    2  N4  UNK     1      18.343  -1.529  36.429  1.00  0.00    -0.262 N 
HETATM    3  C19 UNK     1      17.435  -0.819  35.657  1.00  0.00     0.293 C 
HETATM    4  H14 UNK     1      19.183  -1.115  36.820  1.00  0.00     0.190 HD
ENDROOT
BRANCH   2   5
HETATM    5  N5  UNK     1      18.043  -2.825  36.788  1.00  0.00    -0.273 N 
HETATM    6  H15 UNK     1      17.084  -3.010  37.067  1.00  0.00     0.189 HD
BRANCH   5   7
HETATM    7  C20 UNK     1      19.010  -3.824  36.792  1.00  0.00     0.191 C 
HETATM    8  S1  UNK     1      20.561  -3.379  37.250  1.00  0.00    -0.039 SA
BRANCH   7   9
HETATM    9  N2  UNK     1      18.531  -5.096  36.431  1.00  0.00    -0.332 N 
HETATM   10  H13 UNK     1      17.569  -5.080  36.102  1.00  0.00     0.168 HD
BRANCH   9  11
HETATM   11  C6  UNK     1      19.111  -6.362  36.356  1.00  0.00     0.037 A 
HETATM   12  C8  UNK     1      18.776  -7.340  37.287  1.00  0.00     0.067 A 
HETATM   13  C3  UNK     1      19.368  -8.600  37.193  1.00  0.00     0.092 A 
HETATM   14  C1  UNK     1      20.288  -8.919  36.193  1.00  0.00     0.004 A 
HETATM   15  O2  UNK     1      18.990  -9.549  38.163  1.00  0.00    -0.275 OA
HETATM   16  C5  UNK     1      20.862 -10.272  36.169  1.00  0.00    -0.043 A 
HETATM   17  C7  UNK     1      20.612  -7.920  35.265  1.00  0.00     0.017 A 
HETATM   18  C12 UNK     1      20.483 -11.154  37.106  1.00  0.00     0.090 A 
HETATM   19  C15 UNK     1      21.854 -10.646  35.107  1.00  0.00     0.049 C 
HETATM   20  C16 UNK     1      19.513 -10.833  38.166  1.00  0.00     0.288 A 
HETATM   21  O3  UNK     1      19.191 -11.666  39.006  1.00  0.00    -0.260 OA
HETATM   22  C9  UNK     1      20.027  -6.652  35.346  1.00  0.00     0.030 A 
ENDBRANCH   9  11
ENDBRANCH   7   9
ENDBRANCH   5   7
ENDBRANCH   2   5
BRANCH   3  23
HETATM   23  C11 UNK     1      17.825   0.562  35.340  1.00  0.00     0.144 A 
HETATM   24  O1  UNK     1      17.647   0.948  34.072  1.00  0.00    -0.308 OA
HETATM   25  C4  UNK     1      18.075   2.237  34.036  1.00  0.00     0.073 A 
HETATM   26  C10 UNK     1      18.513   2.635  35.279  1.00  0.00     0.037 A 
HETATM   27  C13 UNK     1      18.342   1.519  36.131  1.00  0.00     0.045 A 
BRANCH  25  28
HETATM   28  C2  UNK     1      17.988   2.917  32.736  1.00  0.00     0.215 C 
BRANCH  28  29
HETATM   29  N1  UNK     1      18.462   2.063  31.628  1.00  0.00    -0.271 N 
HETATM   30  C14 UNK     1      19.399   1.104  31.733  1.00  0.00     0.136 A 
HETATM   31  C17 UNK     1      19.511   0.585  30.467  1.00  0.00     0.082 A 
HETATM   32 Br1  UNK     1      20.625  -0.785  29.869  1.00  0.00    -0.045 Br
HETATM   33  C18 UNK     1      18.587   1.321  29.701  1.00  0.00     0.233 A 
HETATM   34  N3  UNK     1      17.937   2.239  30.422  1.00  0.00    -0.146 NA
BRANCH  33  35
HETATM   35  N6  UNK     1      18.238   1.261  28.344  1.00  0.00    -0.093 N 
HETATM   36  O5  UNK     1      17.752   2.282  27.784  1.00  0.00    -0.530 OA
HETATM   37  O6  UNK     1      18.416   0.188  27.706  1.00  0.00    -0.530 OA
ENDBRANCH  33  35
ENDBRANCH  28  29
ENDBRANCH  25  28
ENDBRANCH   3  23
TORSDOF 8
ENDMDL
MODEL 6
REMARK VINA RESULT:     -10.3      4.153     12.775
REMARK  8 active torsions:
REMARK  status: ('A' for Active; 'I' for Inactive)
REMARK    1  A    between atoms: C2_16  and  N1_9 
REMARK    2  A    between atoms: C20_34  and  N2_10 
REMARK    3  A    between atoms: C6_20  and  N2_10 
REMARK       I    between atoms: C19_33  and  N4_12 
REMARK    4  A    between atoms: N4_12  and  N5_13 
REMARK    5  A    between atoms: C20_34  and  N5_13 
REMARK    6  A    between atoms: C18_32  and  N6_14 
REMARK    7  A    between atoms: C2_16  and  C4_18 
REMARK    8  A    between atoms: C11_25  and  C19_33 
ROOT
HETATM    1  O4  UNK     1      16.934  -1.318  34.426  1.00  0.00    -0.264 OA
HETATM    2  N4  UNK     1      18.208  -1.240  36.335  1.00  0.00    -0.262 N 
HETATM    3  C19 UNK     1      17.664  -0.682  35.187  1.00  0.00     0.293 C 
HETATM    4  H14 UNK     1      18.737  -0.706  37.016  1.00  0.00     0.190 HD
ENDROOT
BRANCH   2   5
HETATM    5  N5  UNK     1      17.922  -2.554  36.636  1.00  0.00    -0.273 N 
HETATM    6  H15 UNK     1      16.963  -2.765  36.894  1.00  0.00     0.189 HD
BRANCH   5   7
HETATM    7  C20 UNK     1      18.904  -3.538  36.613  1.00  0.00     0.191 C 
HETATM    8  S1  UNK     1      20.490  -3.035  36.826  1.00  0.00    -0.039 SA
BRANCH   7   9
HETATM    9  N2  UNK     1      18.412  -4.843  36.437  1.00  0.00    -0.332 N 
HETATM   10  H13 UNK     1      17.406  -4.873  36.291  1.00  0.00     0.168 HD
BRANCH   9  11
HETATM   11  C6  UNK     1      19.012  -6.100  36.347  1.00  0.00     0.037 A 
HETATM   12  C8  UNK     1      18.698  -7.092  37.269  1.00  0.00     0.067 A 
HETATM   13  C3  UNK     1      19.309  -8.342  37.159  1.00  0.00     0.092 A 
HETATM   14  C1  UNK     1      20.230  -8.635  36.153  1.00  0.00     0.004 A 
HETATM   15  O2  UNK     1      18.951  -9.306  38.122  1.00  0.00    -0.275 OA
HETATM   16  C5  UNK     1      20.826  -9.978  36.113  1.00  0.00    -0.043 A 
HETATM   17  C7  UNK     1      20.534  -7.621  35.234  1.00  0.00     0.017 A 
HETATM   18  C12 UNK     1      20.466 -10.875  37.042  1.00  0.00     0.090 A 
HETATM   19  C15 UNK     1      21.820 -10.325  35.043  1.00  0.00     0.049 C 
HETATM   20  C16 UNK     1      19.495 -10.581  38.109  1.00  0.00     0.288 A 
HETATM   21  O3  UNK     1      19.190 -11.428  38.942  1.00  0.00    -0.260 OA
HETATM   22  C9  UNK     1      19.929  -6.364  35.330  1.00  0.00     0.030 A 
ENDBRANCH   9  11
ENDBRANCH   7   9
ENDBRANCH   5   7
ENDBRANCH   2   5
BRANCH   3  23
HETATM   23  C11 UNK     1      18.001   0.730  34.955  1.00  0.00     0.144 A 
HETATM   24  O1  UNK     1      17.875   1.167  33.697  1.00  0.00    -0.308 OA
HETATM   25  C4  UNK     1      18.240   2.475  33.744  1.00  0.00     0.073 A 
HETATM   26  C10 UNK     1      18.587   2.834  35.026  1.00  0.00     0.037 A 
HETATM   27  C13 UNK     1      18.426   1.671  35.817  1.00  0.00     0.045 A 
BRANCH  25  28
HETATM   28  C2  UNK     1      18.191   3.210  32.472  1.00  0.00     0.215 C 
BRANCH  28  29
HETATM   29  N1  UNK     1      18.049   4.666  32.675  1.00  0.00    -0.271 N 
HETATM   30  C14 UNK     1      18.877   5.432  33.407  1.00  0.00     0.136 A 
HETATM   31  C17 UNK     1      18.357   6.700  33.309  1.00  0.00     0.082 A 
HETATM   32 Br1  UNK     1      18.993   8.276  34.075  1.00  0.00    -0.045 Br
HETATM   33  C18 UNK     1      17.221   6.553  32.491  1.00  0.00     0.233 A 
HETATM   34  N3  UNK     1      17.030   5.290  32.098  1.00  0.00    -0.146 NA
BRANCH  33  35
HETATM   35  N6  UNK     1      16.275   7.479  32.027  1.00  0.00    -0.093 N 
HETATM   36  O5  UNK     1      15.237   7.698  32.709  1.00  0.00    -0.530 OA
HETATM   37  O6  UNK     1      16.479   8.078  30.936  1.00  0.00    -0.530 OA
ENDBRANCH  33  35
ENDBRANCH  28  29
ENDBRANCH  25  28
ENDBRANCH   3  23
TORSDOF 8
ENDMDL
MODEL 7
REMARK VINA RESULT:     -10.3      3.946     12.540
REMARK  8 active torsions:
REMARK  status: ('A' for Active; 'I' for Inactive)
REMARK    1  A    between atoms: C2_16  and  N1_9 
REMARK    2  A    between atoms: C20_34  and  N2_10 
REMARK    3  A    between atoms: C6_20  and  N2_10 
REMARK       I    between atoms: C19_33  and  N4_12 
REMARK    4  A    between atoms: N4_12  and  N5_13 
REMARK    5  A    between atoms: C20_34  and  N5_13 
REMARK    6  A    between atoms: C18_32  and  N6_14 
REMARK    7  A    between atoms: C2_16  and  C4_18 
REMARK    8  A    between atoms: C11_25  and  C19_33 
ROOT
HETATM    1  O4  UNK     1      17.405  -0.918  33.737  1.00  0.00    -0.264 OA
HETATM    2  N4  UNK     1      19.181  -0.808  35.189  1.00  0.00    -0.262 N 
HETATM    3  C19 UNK     1      18.226  -0.241  34.358  1.00  0.00     0.293 C 
HETATM    4  H14 UNK     1      19.806  -0.262  35.773  1.00  0.00     0.190 HD
ENDROOT
BRANCH   2   5
HETATM    5  N5  UNK     1      19.213  -2.179  35.328  1.00  0.00    -0.273 N 
HETATM    6  H15 UNK     1      19.562  -2.709  34.535  1.00  0.00     0.189 HD
BRANCH   5   7
HETATM    7  C20 UNK     1      18.765  -2.806  36.485  1.00  0.00     0.191 C 
HETATM    8  S1  UNK     1      18.325  -1.816  37.765  1.00  0.00    -0.039 SA
BRANCH   7   9
HETATM    9  N2  UNK     1      18.719  -4.209  36.403  1.00  0.00    -0.332 N 
HETATM   10  H13 UNK     1      17.829  -4.559  36.057  1.00  0.00     0.168 HD
BRANCH   9  11
HETATM   11  C6  UNK     1      19.653  -5.222  36.622  1.00  0.00     0.037 A 
HETATM   12  C8  UNK     1      19.747  -6.288  35.735  1.00  0.00     0.067 A 
HETATM   13  C3  UNK     1      20.689  -7.291  35.973  1.00  0.00     0.092 A 
HETATM   14  C1  UNK     1      21.544  -7.263  37.076  1.00  0.00     0.004 A 
HETATM   15  O2  UNK     1      20.738  -8.345  35.040  1.00  0.00    -0.275 OA
HETATM   16  C5  UNK     1      22.505  -8.362  37.249  1.00  0.00    -0.043 A 
HETATM   17  C7  UNK     1      21.432  -6.181  37.959  1.00  0.00     0.017 A 
HETATM   18  C12 UNK     1      22.529  -9.352  36.344  1.00  0.00     0.090 A 
HETATM   19  C15 UNK     1      23.439  -8.362  38.424  1.00  0.00     0.049 C 
HETATM   20  C16 UNK     1      21.634  -9.394  35.176  1.00  0.00     0.288 A 
HETATM   21  O3  UNK     1      21.685 -10.316  34.370  1.00  0.00    -0.260 OA
HETATM   22  C9  UNK     1      20.494  -5.168  37.733  1.00  0.00     0.030 A 
ENDBRANCH   9  11
ENDBRANCH   7   9
ENDBRANCH   5   7
ENDBRANCH   2   5
BRANCH   3  23
HETATM   23  C11 UNK     1      18.249   1.227  34.286  1.00  0.00     0.144 A 
HETATM   24  O1  UNK     1      18.204   1.758  33.060  1.00  0.00    -0.308 OA
HETATM   25  C4  UNK     1      18.238   3.102  33.261  1.00  0.00     0.073 A 
HETATM   26  C10 UNK     1      18.302   3.389  34.605  1.00  0.00     0.037 A 
HETATM   27  C13 UNK     1      18.309   2.141  35.272  1.00  0.00     0.045 A 
BRANCH  25  28
HETATM   28  C2  UNK     1      18.199   3.941  32.054  1.00  0.00     0.215 C 
BRANCH  28  29
HETATM   29  N1  UNK     1      18.085   5.377  32.377  1.00  0.00    -0.271 N 
HETATM   30  C14 UNK     1      18.992   6.092  33.066  1.00  0.00     0.136 A 
HETATM   31  C17 UNK     1      18.469   7.361  33.121  1.00  0.00     0.082 A 
HETATM   32 Br1  UNK     1      19.192   8.880  33.924  1.00  0.00    -0.045 Br
HETATM   33  C18 UNK     1      17.248   7.268  32.426  1.00  0.00     0.233 A 
HETATM   34  N3  UNK     1      17.010   6.037  31.966  1.00  0.00    -0.146 NA
BRANCH  33  35
HETATM   35  N6  UNK     1      16.259   8.222  32.140  1.00  0.00    -0.093 N 
HETATM   36  O5  UNK     1      15.553   8.681  33.079  1.00  0.00    -0.530 OA
HETATM   37  O6  UNK     1      16.093   8.604  30.950  1.00  0.00    -0.530 OA
ENDBRANCH  33  35
ENDBRANCH  28  29
ENDBRANCH  25  28
ENDBRANCH   3  23
TORSDOF 8
ENDMDL
MODEL 8
REMARK VINA RESULT:     -10.3      4.519     11.525
REMARK  8 active torsions:
REMARK  status: ('A' for Active; 'I' for Inactive)
REMARK    1  A    between atoms: C2_16  and  N1_9 
REMARK    2  A    between atoms: C20_34  and  N2_10 
REMARK    3  A    between atoms: C6_20  and  N2_10 
REMARK       I    between atoms: C19_33  and  N4_12 
REMARK    4  A    between atoms: N4_12  and  N5_13 
REMARK    5  A    between atoms: C20_34  and  N5_13 
REMARK    6  A    between atoms: C18_32  and  N6_14 
REMARK    7  A    between atoms: C2_16  and  C4_18 
REMARK    8  A    between atoms: C11_25  and  C19_33 
ROOT
HETATM    1  O4  UNK     1      17.658  -0.356  37.858  1.00  0.00    -0.264 OA
HETATM    2  N4  UNK     1      18.098  -1.636  36.002  1.00  0.00    -0.262 N 
HETATM    3  C19 UNK     1      17.957  -0.425  36.665  1.00  0.00     0.293 C 
HETATM    4  H14 UNK     1      18.429  -1.711  35.046  1.00  0.00     0.190 HD
ENDROOT
BRANCH   2   5
HETATM    5  N5  UNK     1      17.896  -2.805  36.703  1.00  0.00    -0.273 N 
HETATM    6  H15 UNK     1      17.006  -2.902  37.181  1.00  0.00     0.189 HD
BRANCH   5   7
HETATM    7  C20 UNK     1      18.873  -3.792  36.771  1.00  0.00     0.191 C 
HETATM    8  S1  UNK     1      20.408  -3.312  37.243  1.00  0.00    -0.039 SA
BRANCH   7   9
HETATM    9  N2  UNK     1      18.414  -5.083  36.454  1.00  0.00    -0.332 N 
HETATM   10  H13 UNK     1      17.436  -5.101  36.174  1.00  0.00     0.168 HD
BRANCH   9  11
HETATM   11  C6  UNK     1      19.027  -6.333  36.367  1.00  0.00     0.037 A 
HETATM   12  C8  UNK     1      18.712  -7.330  37.284  1.00  0.00     0.067 A 
HETATM   13  C3  UNK     1      19.337  -8.574  37.179  1.00  0.00     0.092 A 
HETATM   14  C1  UNK     1      20.271  -8.856  36.182  1.00  0.00     0.004 A 
HETATM   15  O2  UNK     1      18.977  -9.544  38.136  1.00  0.00    -0.275 OA
HETATM   16  C5  UNK     1      20.880 -10.194  36.146  1.00  0.00    -0.043 A 
HETATM   17  C7  UNK     1      20.575  -7.838  35.268  1.00  0.00     0.017 A 
HETATM   18  C12 UNK     1      20.519 -11.097  37.069  1.00  0.00     0.090 A 
HETATM   19  C15 UNK     1      21.889 -10.529  35.086  1.00  0.00     0.049 C 
HETATM   20  C16 UNK     1      19.534 -10.813  38.127  1.00  0.00     0.288 A 
HETATM   21  O3  UNK     1      19.228 -11.665  38.954  1.00  0.00    -0.260 OA
HETATM   22  C9  UNK     1      19.957  -6.587  35.360  1.00  0.00     0.030 A 
ENDBRANCH   9  11
ENDBRANCH   7   9
ENDBRANCH   5   7
ENDBRANCH   2   5
BRANCH   3  23
HETATM   23  C11 UNK     1      18.213   0.771  35.849  1.00  0.00     0.144 A 
HETATM   24  O1  UNK     1      17.990   0.648  34.536  1.00  0.00    -0.308 OA
HETATM   25  C4  UNK     1      18.295   1.865  34.015  1.00  0.00     0.073 A 
HETATM   26  C10 UNK     1      18.703   2.727  35.006  1.00  0.00     0.037 A 
HETATM   27  C13 UNK     1      18.645   1.992  36.214  1.00  0.00     0.045 A 
BRANCH  25  28
HETATM   28  C2  UNK     1      18.134   2.009  32.561  1.00  0.00     0.215 C 
BRANCH  28  29
HETATM   29  N1  UNK     1      18.907   0.998  31.812  1.00  0.00    -0.271 N 
HETATM   30  C14 UNK     1      19.201   1.059  30.501  1.00  0.00     0.136 A 
HETATM   31  C17 UNK     1      19.923  -0.082  30.251  1.00  0.00     0.082 A 
HETATM   32 Br1  UNK     1      20.662  -0.658  28.639  1.00  0.00    -0.045 Br
HETATM   33  C18 UNK     1      19.988  -0.738  31.496  1.00  0.00     0.233 A 
HETATM   34  N3  UNK     1      19.357  -0.068  32.464  1.00  0.00    -0.146 NA
BRANCH  33  35
HETATM   35  N6  UNK     1      20.586  -1.945  31.888  1.00  0.00    -0.093 N 
HETATM   36  O5  UNK     1      21.021  -2.066  33.065  1.00  0.00    -0.530 OA
HETATM   37  O6  UNK     1      20.678  -2.889  31.057  1.00  0.00    -0.530 OA
ENDBRANCH  33  35
ENDBRANCH  28  29
ENDBRANCH  25  28
ENDBRANCH   3  23
TORSDOF 8
ENDMDL
MODEL 9
REMARK VINA RESULT:     -10.2      3.897      5.333
REMARK  8 active torsions:
REMARK  status: ('A' for Active; 'I' for Inactive)
REMARK    1  A    between atoms: C2_16  and  N1_9 
REMARK    2  A    between atoms: C20_34  and  N2_10 
REMARK    3  A    between atoms: C6_20  and  N2_10 
REMARK       I    between atoms: C19_33  and  N4_12 
REMARK    4  A    between atoms: N4_12  and  N5_13 
REMARK    5  A    between atoms: C20_34  and  N5_13 
REMARK    6  A    between atoms: C18_32  and  N6_14 
REMARK    7  A    between atoms: C2_16  and  C4_18 
REMARK    8  A    between atoms: C11_25  and  C19_33 
ROOT
HETATM    1  O4  UNK     1      18.631   2.666  29.212  1.00  0.00    -0.264 OA
HETATM    2  N4  UNK     1      18.186   2.997  31.440  1.00  0.00    -0.262 N 
HETATM    3  C19 UNK     1      18.639   2.242  30.368  1.00  0.00     0.293 C 
HETATM    4  H14 UNK     1      18.268   2.697  32.406  1.00  0.00     0.190 HD
ENDROOT
BRANCH   2   5
HETATM    5  N5  UNK     1      17.708   4.269  31.204  1.00  0.00    -0.273 N 
HETATM    6  H15 UNK     1      16.786   4.339  30.787  1.00  0.00     0.189 HD
BRANCH   5   7
HETATM    7  C20 UNK     1      18.464   5.398  31.500  1.00  0.00     0.191 C 
HETATM    8  S1  UNK     1      19.470   5.978  30.291  1.00  0.00    -0.039 SA
BRANCH   7   9
HETATM    9  N2  UNK     1      18.249   5.916  32.789  1.00  0.00    -0.332 N 
HETATM   10  H13 UNK     1      18.696   5.366  33.519  1.00  0.00     0.168 HD
BRANCH   9  11
HETATM   11  C6  UNK     1      17.619   7.060  33.279  1.00  0.00     0.037 A 
HETATM   12  C8  UNK     1      18.267   8.290  33.229  1.00  0.00     0.067 A 
HETATM   13  C3  UNK     1      17.619   9.422  33.725  1.00  0.00     0.092 A 
HETATM   14  C1  UNK     1      16.337   9.366  34.273  1.00  0.00     0.004 A 
HETATM   15  O2  UNK     1      18.325  10.639  33.646  1.00  0.00    -0.275 OA
HETATM   16  C5  UNK     1      15.729  10.608  34.772  1.00  0.00    -0.043 A 
HETATM   17  C7  UNK     1      15.701   8.118  34.315  1.00  0.00     0.017 A 
HETATM   18  C12 UNK     1      16.424  11.751  34.684  1.00  0.00     0.090 A 
HETATM   19  C15 UNK     1      14.351  10.582  35.367  1.00  0.00     0.049 C 
HETATM   20  C16 UNK     1      17.778  11.826  34.108  1.00  0.00     0.288 A 
HETATM   21  O3  UNK     1      18.383  12.890  34.044  1.00  0.00    -0.260 OA
HETATM   22  C9  UNK     1      16.338   6.974  33.821  1.00  0.00     0.030 A 
ENDBRANCH   9  11
ENDBRANCH   7   9
ENDBRANCH   5   7
ENDBRANCH   2   5
BRANCH   3  23
HETATM   23  C11 UNK     1      19.152   0.908  30.712  1.00  0.00     0.144 A 
HETATM   24  O1  UNK     1      18.751   0.407  31.885  1.00  0.00    -0.308 OA
HETATM   25  C4  UNK     1      19.352  -0.810  31.968  1.00  0.00     0.073 A 
HETATM   26  C10 UNK     1      20.116  -1.048  30.849  1.00  0.00     0.037 A 
HETATM   27  C13 UNK     1      19.977   0.095  30.026  1.00  0.00     0.045 A 
BRANCH  25  28
HETATM   28  C2  UNK     1      19.074  -1.590  33.182  1.00  0.00     0.215 C 
BRANCH  28  29
HETATM   29  N1  UNK     1      18.408  -0.783  34.223  1.00  0.00    -0.271 N 
HETATM   30  C14 UNK     1      17.097  -0.829  34.521  1.00  0.00     0.136 A 
HETATM   31  C17 UNK     1      16.938   0.081  35.538  1.00  0.00     0.082 A 
HETATM   32 Br1  UNK     1      15.377   0.542  36.447  1.00  0.00    -0.045 Br
HETATM   33  C18 UNK     1      18.229   0.600  35.752  1.00  0.00     0.233 A 
HETATM   34  N3  UNK     1      19.141   0.064  34.935  1.00  0.00    -0.146 NA
BRANCH  33  35
HETATM   35  N6  UNK     1      18.715   1.560  36.652  1.00  0.00    -0.093 N 
HETATM   36  O5  UNK     1      18.198   1.650  37.799  1.00  0.00    -0.530 OA
HETATM   37  O6  UNK     1      19.660   2.316  36.299  1.00  0.00    -0.530 OA
ENDBRANCH  33  35
ENDBRANCH  28  29
ENDBRANCH  25  28
ENDBRANCH   3  23
TORSDOF 8
ENDMDL
MODEL 10
REMARK VINA RESULT:     -10.0      4.270     11.794
REMARK  8 active torsions:
REMARK  status: ('A' for Active; 'I' for Inactive)
REMARK    1  A    between atoms: C2_16  and  N1_9 
REMARK    2  A    between atoms: C20_34  and  N2_10 
REMARK    3  A    between atoms: C6_20  and  N2_10 
REMARK       I    between atoms: C19_33  and  N4_12 
REMARK    4  A    between atoms: N4_12  and  N5_13 
REMARK    5  A    between atoms: C20_34  and  N5_13 
REMARK    6  A    between atoms: C18_32  and  N6_14 
REMARK    7  A    between atoms: C2_16  and  C4_18 
REMARK    8  A    between atoms: C11_25  and  C19_33 
ROOT
HETATM    1  O4  UNK     1      18.015  -0.697  37.934  1.00  0.00    -0.264 OA
HETATM    2  N4  UNK     1      18.137  -1.832  35.941  1.00  0.00    -0.262 N 
HETATM    3  C19 UNK     1      18.129  -0.675  36.707  1.00  0.00     0.293 C 
HETATM    4  H14 UNK     1      18.318  -1.836  34.942  1.00  0.00     0.190 HD
ENDROOT
BRANCH   2   5
HETATM    5  N5  UNK     1      18.015  -3.051  36.573  1.00  0.00    -0.273 N 
HETATM    6  H15 UNK     1      17.118  -3.253  37.003  1.00  0.00     0.189 HD
BRANCH   5   7
HETATM    7  C20 UNK     1      19.076  -3.947  36.641  1.00  0.00     0.191 C 
HETATM    8  S1  UNK     1      20.473  -3.416  37.402  1.00  0.00    -0.039 SA
BRANCH   7   9
HETATM    9  N2  UNK     1      18.809  -5.205  36.073  1.00  0.00    -0.332 N 
HETATM   10  H13 UNK     1      18.311  -5.145  35.188  1.00  0.00     0.168 HD
BRANCH   9  11
HETATM   11  C6  UNK     1      19.141  -6.514  36.422  1.00  0.00     0.037 A 
HETATM   12  C8  UNK     1      20.085  -7.216  35.680  1.00  0.00     0.067 A 
HETATM   13  C3  UNK     1      20.402  -8.525  36.047  1.00  0.00     0.092 A 
HETATM   14  C1  UNK     1      19.804  -9.159  37.136  1.00  0.00     0.004 A 
HETATM   15  O2  UNK     1      21.365  -9.185  35.258  1.00  0.00    -0.275 OA
HETATM   16  C5  UNK     1      20.198 -10.540  37.450  1.00  0.00    -0.043 A 
HETATM   17  C7  UNK     1      18.855  -8.435  37.871  1.00  0.00     0.017 A 
HETATM   18  C12 UNK     1      21.118 -11.143  36.683  1.00  0.00     0.090 A 
HETATM   19  C15 UNK     1      19.574 -11.251  38.616  1.00  0.00     0.049 C 
HETATM   20  C16 UNK     1      21.758 -10.486  35.530  1.00  0.00     0.288 A 
HETATM   21  O3  UNK     1      22.595 -11.070  34.851  1.00  0.00    -0.260 OA
HETATM   22  C9  UNK     1      18.527  -7.122  37.516  1.00  0.00     0.030 A 
ENDBRANCH   9  11
ENDBRANCH   7   9
ENDBRANCH   5   7
ENDBRANCH   2   5
BRANCH   3  23
HETATM   23  C11 UNK     1      18.287   0.577  35.955  1.00  0.00     0.144 A 
HETATM   24  O1  UNK     1      18.050   0.510  34.641  1.00  0.00    -0.308 OA
HETATM   25  C4  UNK     1      18.262   1.772  34.183  1.00  0.00     0.073 A 
HETATM   26  C10 UNK     1      18.627   2.605  35.215  1.00  0.00     0.037 A 
HETATM   27  C13 UNK     1      18.640   1.804  36.381  1.00  0.00     0.045 A 
BRANCH  25  28
HETATM   28  C2  UNK     1      18.066   1.982  32.741  1.00  0.00     0.215 C 
BRANCH  28  29
HETATM   29  N1  UNK     1      18.739   0.948  31.931  1.00  0.00    -0.271 N 
HETATM   30  C14 UNK     1      19.243  -0.205  32.406  1.00  0.00     0.136 A 
HETATM   31  C17 UNK     1      19.764  -0.839  31.304  1.00  0.00     0.082 A 
HETATM   32 Br1  UNK     1      20.623  -2.491  31.214  1.00  0.00    -0.045 Br
HETATM   33  C18 UNK     1      19.504   0.041  30.236  1.00  0.00     0.233 A 
HETATM   34  N3  UNK     1      18.869   1.150  30.625  1.00  0.00    -0.146 NA
BRANCH  33  35
HETATM   35  N6  UNK     1      19.791  -0.041  28.865  1.00  0.00    -0.093 N 
HETATM   36  O5  UNK     1      20.883  -0.548  28.490  1.00  0.00    -0.530 OA
HETATM   37  O6  UNK     1      18.951   0.393  28.030  1.00  0.00    -0.530 OA
ENDBRANCH  33  35
ENDBRANCH  28  29
ENDBRANCH  25  28
ENDBRANCH   3  23
TORSDOF 8
ENDMDL
