MODEL 1
REMARK VINA RESULT:      -8.4      0.000      0.000
REMARK  2 active torsions:
REMARK  status: ('A' for Active; 'I' for Inactive)
REMARK    1  A    between atoms: C15_20  and  O4_4 
REMARK       I    between atoms: C7_12  and  N1_5 
REMARK    2  A    between atoms: C7_12  and  C8_13 
ROOT
HETATM    1  O2  UNK     1      11.735   6.725   6.457  1.00  0.00    -0.274 OA
HETATM    2  O3  UNK     1      14.009   6.934   6.406  1.00  0.00    -0.259 OA
HETATM    3  C8  UNK     1      13.064   6.090   8.408  1.00  0.00     0.108 A 
HETATM    4  C9  UNK     1      11.961   5.741   9.080  1.00  0.00     0.037 A 
HETATM    5  C10 UNK     1      13.000   6.613   7.025  1.00  0.00     0.304 A 
HETATM    6  C11 UNK     1      10.652   5.871   8.459  1.00  0.00     0.002 A 
HETATM    7  C12 UNK     1      10.570   6.360   7.159  1.00  0.00     0.089 A 
HETATM    8  C13 UNK     1       9.474   5.519   9.123  1.00  0.00     0.051 A 
HETATM    9  C14 UNK     1       9.347   6.507   6.507  1.00  0.00     0.041 A 
HETATM   10  C15 UNK     1       8.240   5.661   8.481  1.00  0.00     0.069 A 
HETATM   11  C16 UNK     1       8.177   6.155   7.176  1.00  0.00     0.039 A 
ENDROOT
BRANCH   3  12
HETATM   12  C7  UNK     1      14.345   5.922   9.125  1.00  0.00     0.260 C 
HETATM   13  O1  UNK     1      14.806   4.783   9.202  1.00  0.00    -0.267 OA
HETATM   14  N1  UNK     1      14.946   7.061   9.668  1.00  0.00    -0.344 N 
HETATM   15  C1  UNK     1      14.339   8.414   9.711  1.00  0.00     0.083 C 
HETATM   16  C5  UNK     1      16.218   6.900  10.384  1.00  0.00     0.126 C 
HETATM   17  C2  UNK     1      15.373   9.506   9.388  1.00  0.00     0.025 C 
HETATM   18  C6  UNK     1      13.640   8.657  11.050  1.00  0.00     0.032 C 
HETATM   19  C3  UNK     1      16.663   9.363  10.188  1.00  0.00     0.004 C 
HETATM   20  C4  UNK     1      17.239   7.965  10.007  1.00  0.00     0.020 C 
ENDBRANCH   3  12
BRANCH  10  21
HETATM   21  O4  UNK     1       7.095   5.318   9.132  1.00  0.00    -0.356 OA
HETATM   22  C17 UNK     1       7.093   4.072   9.827  1.00  0.00     0.210 C 
ENDBRANCH  10  21
TORSDOF 2
ENDMDL
MODEL 2
REMARK VINA RESULT:      -8.0     22.042     24.084
REMARK  2 active torsions:
REMARK  status: ('A' for Active; 'I' for Inactive)
REMARK    1  A    between atoms: C15_20  and  O4_4 
REMARK       I    between atoms: C7_12  and  N1_5 
REMARK    2  A    between atoms: C7_12  and  C8_13 
ROOT
HETATM    1  O2  UNK     1      18.919   1.710  28.649  1.00  0.00    -0.274 OA
HETATM    2  O3  UNK     1      18.060   3.827  28.684  1.00  0.00    -0.259 OA
HETATM    3  C8  UNK     1      18.593   2.862  30.781  1.00  0.00     0.108 A 
HETATM    4  C9  UNK     1      19.066   1.807  31.455  1.00  0.00     0.037 A 
HETATM    5  C10 UNK     1      18.495   2.863  29.305  1.00  0.00     0.304 A 
HETATM    6  C11 UNK     1      19.501   0.617  30.742  1.00  0.00     0.002 A 
HETATM    7  C12 UNK     1      19.417   0.596  29.353  1.00  0.00     0.089 A 
HETATM    8  C13 UNK     1      20.001  -0.507  31.404  1.00  0.00     0.051 A 
HETATM    9  C14 UNK     1      19.818  -0.512  28.610  1.00  0.00     0.041 A 
HETATM   10  C15 UNK     1      20.407  -1.627  30.672  1.00  0.00     0.069 A 
HETATM   11  C16 UNK     1      20.316  -1.630  29.278  1.00  0.00     0.039 A 
ENDROOT
BRANCH   3  12
HETATM   12  C7  UNK     1      18.176   4.023  31.595  1.00  0.00     0.260 C 
HETATM   13  O1  UNK     1      17.046   3.994  32.085  1.00  0.00    -0.267 OA
HETATM   14  N1  UNK     1      19.084   5.073  31.753  1.00  0.00    -0.344 N 
HETATM   15  C1  UNK     1      20.389   5.190  31.058  1.00  0.00     0.083 C 
HETATM   16  C5  UNK     1      18.673   6.230  32.559  1.00  0.00     0.126 C 
HETATM   17  C2  UNK     1      21.487   5.707  32.003  1.00  0.00     0.025 C 
HETATM   18  C6  UNK     1      20.260   6.049  29.797  1.00  0.00     0.032 C 
HETATM   19  C3  UNK     1      21.069   6.948  32.783  1.00  0.00     0.004 C 
HETATM   20  C4  UNK     1      19.762   6.687  33.521  1.00  0.00     0.020 C 
ENDBRANCH   3  12
BRANCH  10  21
HETATM   21  O4  UNK     1      20.894  -2.721  31.321  1.00  0.00    -0.356 OA
HETATM   22  C17 UNK     1      20.910  -2.674  32.747  1.00  0.00     0.210 C 
ENDBRANCH  10  21
TORSDOF 2
ENDMDL
MODEL 3
REMARK VINA RESULT:      -7.9      2.560      7.338
REMARK  2 active torsions:
REMARK  status: ('A' for Active; 'I' for Inactive)
REMARK    1  A    between atoms: C15_20  and  O4_4 
REMARK       I    between atoms: C7_12  and  N1_5 
REMARK    2  A    between atoms: C7_12  and  C8_13 
ROOT
HETATM    1  O2  UNK     1      15.332   7.658  10.085  1.00  0.00    -0.274 OA
HETATM    2  O3  UNK     1      13.631   6.211  10.570  1.00  0.00    -0.259 OA
HETATM    3  C8  UNK     1      13.049   8.174   9.377  1.00  0.00     0.108 A 
HETATM    4  C9  UNK     1      13.452   9.321   8.819  1.00  0.00     0.037 A 
HETATM    5  C10 UNK     1      13.997   7.263  10.056  1.00  0.00     0.304 A 
HETATM    6  C11 UNK     1      14.854   9.707   8.867  1.00  0.00     0.002 A 
HETATM    7  C12 UNK     1      15.762   8.864   9.500  1.00  0.00     0.089 A 
HETATM    8  C13 UNK     1      15.320  10.894   8.297  1.00  0.00     0.051 A 
HETATM    9  C14 UNK     1      17.119   9.174   9.579  1.00  0.00     0.041 A 
HETATM   10  C15 UNK     1      16.678  11.219   8.369  1.00  0.00     0.069 A 
HETATM   11  C16 UNK     1      17.575  10.361   9.009  1.00  0.00     0.039 A 
ENDROOT
BRANCH   3  12
HETATM   12  C7  UNK     1      11.606   7.872   9.277  1.00  0.00     0.260 C 
HETATM   13  O1  UNK     1      10.859   8.391  10.108  1.00  0.00    -0.267 OA
HETATM   14  N1  UNK     1      11.185   7.019   8.253  1.00  0.00    -0.344 N 
HETATM   15  C1  UNK     1      12.080   6.273   7.334  1.00  0.00     0.083 C 
HETATM   16  C5  UNK     1       9.752   6.712   8.151  1.00  0.00     0.126 C 
HETATM   17  C2  UNK     1      11.546   6.288   5.892  1.00  0.00     0.025 C 
HETATM   18  C6  UNK     1      12.325   4.852   7.847  1.00  0.00     0.032 C 
HETATM   19  C3  UNK     1      10.074   5.903   5.796  1.00  0.00     0.004 C 
HETATM   20  C4  UNK     1       9.241   6.784   6.719  1.00  0.00     0.020 C 
ENDBRANCH   3  12
BRANCH  10  21
HETATM   21  O4  UNK     1      17.127  12.378   7.814  1.00  0.00    -0.356 OA
HETATM   22  C17 UNK     1      18.210  12.276   6.890  1.00  0.00     0.210 C 
ENDBRANCH  10  21
TORSDOF 2
ENDMDL
MODEL 4
REMARK VINA RESULT:      -7.6      2.023      6.918
REMARK  2 active torsions:
REMARK  status: ('A' for Active; 'I' for Inactive)
REMARK    1  A    between atoms: C15_20  and  O4_4 
REMARK       I    between atoms: C7_12  and  N1_5 
REMARK    2  A    between atoms: C7_12  and  C8_13 
ROOT
HETATM    1  O2  UNK     1      14.506   5.402   9.309  1.00  0.00    -0.274 OA
HETATM    2  O3  UNK     1      12.855   4.205   8.279  1.00  0.00    -0.259 OA
HETATM    3  C8  UNK     1      12.927   6.528   7.820  1.00  0.00     0.108 A 
HETATM    4  C9  UNK     1      13.526   7.706   8.030  1.00  0.00     0.037 A 
HETATM    5  C10 UNK     1      13.403   5.285   8.468  1.00  0.00     0.304 A 
HETATM    6  C11 UNK     1      14.678   7.795   8.915  1.00  0.00     0.002 A 
HETATM    7  C12 UNK     1      15.141   6.638   9.534  1.00  0.00     0.089 A 
HETATM    8  C13 UNK     1      15.334   9.003   9.163  1.00  0.00     0.051 A 
HETATM    9  C14 UNK     1      16.240   6.655  10.392  1.00  0.00     0.041 A 
HETATM   10  C15 UNK     1      16.437   9.035  10.022  1.00  0.00     0.069 A 
HETATM   11  C16 UNK     1      16.889   7.864  10.635  1.00  0.00     0.039 A 
ENDROOT
BRANCH   3  12
HETATM   12  C7  UNK     1      11.766   6.541   6.906  1.00  0.00     0.260 C 
HETATM   13  O1  UNK     1      11.996   6.475   5.698  1.00  0.00    -0.267 OA
HETATM   14  N1  UNK     1      10.490   6.629   7.469  1.00  0.00    -0.344 N 
HETATM   15  C1  UNK     1      10.199   6.852   8.907  1.00  0.00     0.083 C 
HETATM   16  C5  UNK     1       9.333   6.645   6.565  1.00  0.00     0.126 C 
HETATM   17  C2  UNK     1       9.027   5.980   9.387  1.00  0.00     0.025 C 
HETATM   18  C6  UNK     1       9.970   8.338   9.192  1.00  0.00     0.032 C 
HETATM   19  C3  UNK     1       7.810   6.059   8.473  1.00  0.00     0.004 C 
HETATM   20  C4  UNK     1       8.209   5.733   7.040  1.00  0.00     0.020 C 
ENDBRANCH   3  12
BRANCH  10  21
HETATM   21  O4  UNK     1      17.074  10.215  10.262  1.00  0.00    -0.356 OA
HETATM   22  C17 UNK     1      17.727  10.836   9.155  1.00  0.00     0.210 C 
ENDBRANCH  10  21
TORSDOF 2
ENDMDL
MODEL 5
REMARK VINA RESULT:      -7.6     27.487     29.746
REMARK  2 active torsions:
REMARK  status: ('A' for Active; 'I' for Inactive)
REMARK    1  A    between atoms: C15_20  and  O4_4 
REMARK       I    between atoms: C7_12  and  N1_5 
REMARK    2  A    between atoms: C7_12  and  C8_13 
ROOT
HETATM    1  O2  UNK     1      18.527  -1.261  35.420  1.00  0.00    -0.274 OA
HETATM    2  O3  UNK     1      18.500  -1.929  37.604  1.00  0.00    -0.259 OA
HETATM    3  C8  UNK     1      20.055  -3.011  36.182  1.00  0.00     0.108 A 
HETATM    4  C9  UNK     1      20.573  -3.131  34.954  1.00  0.00     0.037 A 
HETATM    5  C10 UNK     1      18.978  -2.042  36.481  1.00  0.00     0.304 A 
HETATM    6  C11 UNK     1      20.081  -2.301  33.866  1.00  0.00     0.002 A 
HETATM    7  C12 UNK     1      19.068  -1.383  34.126  1.00  0.00     0.089 A 
HETATM    8  C13 UNK     1      20.592  -2.392  32.569  1.00  0.00     0.051 A 
HETATM    9  C14 UNK     1      18.554  -0.557  33.128  1.00  0.00     0.041 A 
HETATM   10  C15 UNK     1      20.086  -1.571  31.558  1.00  0.00     0.069 A 
HETATM   11  C16 UNK     1      19.068  -0.655  31.837  1.00  0.00     0.039 A 
ENDROOT
BRANCH   3  12
HETATM   12  C7  UNK     1      20.621  -3.899  37.219  1.00  0.00     0.260 C 
HETATM   13  O1  UNK     1      21.464  -3.419  37.977  1.00  0.00    -0.267 OA
HETATM   14  N1  UNK     1      20.167  -5.220  37.269  1.00  0.00    -0.344 N 
HETATM   15  C1  UNK     1      19.262  -5.855  36.280  1.00  0.00     0.083 C 
HETATM   16  C5  UNK     1      20.728  -6.107  38.296  1.00  0.00     0.126 C 
HETATM   17  C2  UNK     1      18.214  -6.747  36.966  1.00  0.00     0.025 C 
HETATM   18  C6  UNK     1      20.061  -6.613  35.218  1.00  0.00     0.032 C 
HETATM   19  C3  UNK     1      18.820  -7.709  37.981  1.00  0.00     0.004 C 
HETATM   20  C4  UNK     1      19.661  -6.941  38.993  1.00  0.00     0.020 C 
ENDBRANCH   3  12
BRANCH  10  21
HETATM   21  O4  UNK     1      20.586  -1.664  30.295  1.00  0.00    -0.356 OA
HETATM   22  C17 UNK     1      20.588  -0.473  29.509  1.00  0.00     0.210 C 
ENDBRANCH  10  21
TORSDOF 2
ENDMDL
MODEL 6
REMARK VINA RESULT:      -7.5     24.475     26.722
REMARK  2 active torsions:
REMARK  status: ('A' for Active; 'I' for Inactive)
REMARK    1  A    between atoms: C15_20  and  O4_4 
REMARK       I    between atoms: C7_12  and  N1_5 
REMARK    2  A    between atoms: C7_12  and  C8_13 
ROOT
HETATM    1  O2  UNK     1      20.552  -2.657  31.980  1.00  0.00    -0.274 OA
HETATM    2  O3  UNK     1      20.615  -3.576  34.070  1.00  0.00    -0.259 OA
HETATM    3  C8  UNK     1      19.553  -1.468  33.869  1.00  0.00     0.108 A 
HETATM    4  C9  UNK     1      19.184  -0.457  33.074  1.00  0.00     0.037 A 
HETATM    5  C10 UNK     1      20.274  -2.649  33.344  1.00  0.00     0.304 A 
HETATM    6  C11 UNK     1      19.488  -0.495  31.652  1.00  0.00     0.002 A 
HETATM    7  C12 UNK     1      20.166  -1.596  31.138  1.00  0.00     0.089 A 
HETATM    8  C13 UNK     1      19.123   0.538  30.784  1.00  0.00     0.051 A 
HETATM    9  C14 UNK     1      20.487  -1.693  29.785  1.00  0.00     0.041 A 
HETATM   10  C15 UNK     1      19.438   0.454  29.425  1.00  0.00     0.069 A 
HETATM   11  C16 UNK     1      20.119  -0.659  28.926  1.00  0.00     0.039 A 
ENDROOT
BRANCH   3  12
HETATM   12  C7  UNK     1      19.198  -1.337  35.298  1.00  0.00     0.260 C 
HETATM   13  O1  UNK     1      20.053  -1.657  36.125  1.00  0.00    -0.267 OA
HETATM   14  N1  UNK     1      17.923  -0.863  35.616  1.00  0.00    -0.344 N 
HETATM   15  C1  UNK     1      16.834  -0.609  34.641  1.00  0.00     0.083 C 
HETATM   16  C5  UNK     1      17.564  -0.734  37.034  1.00  0.00     0.126 C 
HETATM   17  C2  UNK     1      16.072   0.686  34.971  1.00  0.00     0.025 C 
HETATM   18  C6  UNK     1      15.901  -1.818  34.537  1.00  0.00     0.032 C 
HETATM   19  C3  UNK     1      15.650   0.775  36.433  1.00  0.00     0.004 C 
HETATM   20  C4  UNK     1      16.858   0.580  37.340  1.00  0.00     0.020 C 
ENDBRANCH   3  12
BRANCH  10  21
HETATM   21  O4  UNK     1      19.081   1.462  28.583  1.00  0.00    -0.356 OA
HETATM   22  C17 UNK     1      17.932   2.228  28.941  1.00  0.00     0.210 C 
ENDBRANCH  10  21
TORSDOF 2
ENDMDL
MODEL 7
REMARK VINA RESULT:      -7.5     33.088     35.866
REMARK  2 active torsions:
REMARK  status: ('A' for Active; 'I' for Inactive)
REMARK    1  A    between atoms: C15_20  and  O4_4 
REMARK       I    between atoms: C7_12  and  N1_5 
REMARK    2  A    between atoms: C7_12  and  C8_13 
ROOT
HETATM    1  O2  UNK     1      25.638  -5.932  38.588  1.00  0.00    -0.274 OA
HETATM    2  O3  UNK     1      23.414  -5.471  38.833  1.00  0.00    -0.259 OA
HETATM    3  C8  UNK     1      24.059  -7.739  39.058  1.00  0.00     0.108 A 
HETATM    4  C9  UNK     1      25.047  -8.642  39.046  1.00  0.00     0.037 A 
HETATM    5  C10 UNK     1      24.316  -6.301  38.824  1.00  0.00     0.304 A 
HETATM    6  C11 UNK     1      26.418  -8.225  38.797  1.00  0.00     0.002 A 
HETATM    7  C12 UNK     1      26.681  -6.878  38.573  1.00  0.00     0.089 A 
HETATM    8  C13 UNK     1      27.480  -9.133  38.774  1.00  0.00     0.051 A 
HETATM    9  C14 UNK     1      27.973  -6.413  38.330  1.00  0.00     0.041 A 
HETATM   10  C15 UNK     1      28.780  -8.682  38.531  1.00  0.00     0.069 A 
HETATM   11  C16 UNK     1      29.026  -7.325  38.309  1.00  0.00     0.039 A 
ENDROOT
BRANCH   3  12
HETATM   12  C7  UNK     1      22.702  -8.261  39.320  1.00  0.00     0.260 C 
HETATM   13  O1  UNK     1      22.370  -8.412  40.497  1.00  0.00    -0.267 OA
HETATM   14  N1  UNK     1      21.888  -8.549  38.221  1.00  0.00    -0.344 N 
HETATM   15  C1  UNK     1      22.316  -8.509  36.801  1.00  0.00     0.083 C 
HETATM   16  C5  UNK     1      20.538  -9.070  38.475  1.00  0.00     0.126 C 
HETATM   17  C2  UNK     1      21.233  -7.887  35.903  1.00  0.00     0.025 C 
HETATM   18  C6  UNK     1      22.739  -9.898  36.320  1.00  0.00     0.032 C 
HETATM   19  C3  UNK     1      19.850  -8.485  36.133  1.00  0.00     0.004 C 
HETATM   20  C4  UNK     1      19.481  -8.400  37.608  1.00  0.00     0.020 C 
ENDBRANCH   3  12
BRANCH  10  21
HETATM   21  O4  UNK     1      29.813  -9.570  38.509  1.00  0.00    -0.356 OA
HETATM   22  C17 UNK     1      31.078  -9.082  38.067  1.00  0.00     0.210 C 
ENDBRANCH  10  21
TORSDOF 2
ENDMDL
MODEL 8
REMARK VINA RESULT:      -7.2     31.399     34.432
REMARK  2 active torsions:
REMARK  status: ('A' for Active; 'I' for Inactive)
REMARK    1  A    between atoms: C15_20  and  O4_4 
REMARK       I    between atoms: C7_12  and  N1_5 
REMARK    2  A    between atoms: C7_12  and  C8_13 
ROOT
HETATM    1  O2  UNK     1      31.728  -4.182  36.245  1.00  0.00    -0.274 OA
HETATM    2  O3  UNK     1      32.923  -4.228  34.298  1.00  0.00    -0.259 OA
HETATM    3  C8  UNK     1      31.316  -5.943  34.599  1.00  0.00     0.108 A 
HETATM    4  C9  UNK     1      30.374  -6.488  35.377  1.00  0.00     0.037 A 
HETATM    5  C10 UNK     1      32.058  -4.729  35.008  1.00  0.00     0.304 A 
HETATM    6  C11 UNK     1      30.052  -5.893  36.665  1.00  0.00     0.002 A 
HETATM    7  C12 UNK     1      30.738  -4.752  37.069  1.00  0.00     0.089 A 
HETATM    8  C13 UNK     1      29.077  -6.428  37.510  1.00  0.00     0.051 A 
HETATM    9  C14 UNK     1      30.476  -4.132  38.289  1.00  0.00     0.041 A 
HETATM   10  C15 UNK     1      28.804  -5.818  38.737  1.00  0.00     0.069 A 
HETATM   11  C16 UNK     1      29.502  -4.672  39.127  1.00  0.00     0.039 A 
ENDROOT
BRANCH   3  12
HETATM   12  C7  UNK     1      31.572  -6.621  33.311  1.00  0.00     0.260 C 
HETATM   13  O1  UNK     1      32.565  -7.346  33.240  1.00  0.00    -0.267 OA
HETATM   14  N1  UNK     1      30.676  -6.394  32.262  1.00  0.00    -0.344 N 
HETATM   15  C1  UNK     1      29.559  -5.418  32.283  1.00  0.00     0.083 C 
HETATM   16  C5  UNK     1      30.927  -7.063  30.979  1.00  0.00     0.126 C 
HETATM   17  C2  UNK     1      28.293  -5.995  31.629  1.00  0.00     0.025 C 
HETATM   18  C6  UNK     1      29.984  -4.091  31.650  1.00  0.00     0.032 C 
HETATM   19  C3  UNK     1      28.559  -6.627  30.267  1.00  0.00     0.004 C 
HETATM   20  C4  UNK     1      29.664  -7.669  30.381  1.00  0.00     0.020 C 
ENDBRANCH   3  12
BRANCH  10  21
HETATM   21  O4  UNK     1      27.853  -6.343  39.558  1.00  0.00    -0.356 OA
HETATM   22  C17 UNK     1      27.694  -7.761  39.542  1.00  0.00     0.210 C 
ENDBRANCH  10  21
TORSDOF 2
ENDMDL
MODEL 9
REMARK VINA RESULT:      -7.2     34.934     36.579
REMARK  2 active torsions:
REMARK  status: ('A' for Active; 'I' for Inactive)
REMARK    1  A    between atoms: C15_20  and  O4_4 
REMARK       I    between atoms: C7_12  and  N1_5 
REMARK    2  A    between atoms: C7_12  and  C8_13 
ROOT
HETATM    1  O2  UNK     1      28.828  -4.439  38.039  1.00  0.00    -0.274 OA
HETATM    2  O3  UNK     1      30.667  -3.169  37.569  1.00  0.00    -0.259 OA
HETATM    3  C8  UNK     1      31.051  -5.458  38.048  1.00  0.00     0.108 A 
HETATM    4  C9  UNK     1      30.534  -6.649  38.369  1.00  0.00     0.037 A 
HETATM    5  C10 UNK     1      30.197  -4.263  37.862  1.00  0.00     0.304 A 
HETATM    6  C11 UNK     1      29.098  -6.802  38.547  1.00  0.00     0.002 A 
HETATM    7  C12 UNK     1      28.278  -5.691  38.377  1.00  0.00     0.089 A 
HETATM    8  C13 UNK     1      28.515  -8.026  38.882  1.00  0.00     0.051 A 
HETATM    9  C14 UNK     1      26.895  -5.770  38.532  1.00  0.00     0.041 A 
HETATM   10  C15 UNK     1      27.130  -8.121  39.041  1.00  0.00     0.069 A 
HETATM   11  C16 UNK     1      26.321  -6.995  38.867  1.00  0.00     0.039 A 
ENDROOT
BRANCH   3  12
HETATM   12  C7  UNK     1      32.519  -5.404  37.890  1.00  0.00     0.260 C 
HETATM   13  O1  UNK     1      33.184  -5.093  38.880  1.00  0.00    -0.267 OA
HETATM   14  N1  UNK     1      33.055  -5.706  36.635  1.00  0.00    -0.344 N 
HETATM   15  C1  UNK     1      32.267  -5.942  35.400  1.00  0.00     0.083 C 
HETATM   16  C5  UNK     1      34.513  -5.651  36.472  1.00  0.00     0.126 C 
HETATM   17  C2  UNK     1      32.841  -7.109  34.580  1.00  0.00     0.025 C 
HETATM   18  C6  UNK     1      32.148  -4.658  34.576  1.00  0.00     0.032 C 
HETATM   19  C3  UNK     1      34.347  -7.003  34.363  1.00  0.00     0.004 C 
HETATM   20  C4  UNK     1      35.058  -6.845  35.700  1.00  0.00     0.020 C 
ENDBRANCH   3  12
BRANCH  10  21
HETATM   21  O4  UNK     1      26.565  -9.316  39.368  1.00  0.00    -0.356 OA
HETATM   22  C17 UNK     1      27.372 -10.234  40.105  1.00  0.00     0.210 C 
ENDBRANCH  10  21
TORSDOF 2
ENDMDL
MODEL 10
REMARK VINA RESULT:      -7.2      2.349      4.116
REMARK  2 active torsions:
REMARK  status: ('A' for Active; 'I' for Inactive)
REMARK    1  A    between atoms: C15_20  and  O4_4 
REMARK       I    between atoms: C7_12  and  N1_5 
REMARK    2  A    between atoms: C7_12  and  C8_13 
ROOT
HETATM    1  O2  UNK     1      15.162   6.092   9.815  1.00  0.00    -0.274 OA
HETATM    2  O3  UNK     1      16.707   7.331  10.953  1.00  0.00    -0.259 OA
HETATM    3  C8  UNK     1      14.657   8.402  10.439  1.00  0.00     0.108 A 
HETATM    4  C9  UNK     1      13.447   8.320   9.873  1.00  0.00     0.037 A 
HETATM    5  C10 UNK     1      15.597   7.259  10.436  1.00  0.00     0.304 A 
HETATM    6  C11 UNK     1      13.021   7.086   9.231  1.00  0.00     0.002 A 
HETATM    7  C12 UNK     1      13.890   6.000   9.217  1.00  0.00     0.089 A 
HETATM    8  C13 UNK     1      11.767   6.955   8.627  1.00  0.00     0.051 A 
HETATM    9  C14 UNK     1      13.542   4.790   8.619  1.00  0.00     0.041 A 
HETATM   10  C15 UNK     1      11.405   5.748   8.024  1.00  0.00     0.069 A 
HETATM   11  C16 UNK     1      12.290   4.667   8.019  1.00  0.00     0.039 A 
ENDROOT
BRANCH   3  12
HETATM   12  C7  UNK     1      14.997   9.696  11.065  1.00  0.00     0.260 C 
HETATM   13  O1  UNK     1      14.505   9.939  12.168  1.00  0.00    -0.267 OA
HETATM   14  N1  UNK     1      15.849  10.557  10.369  1.00  0.00    -0.344 N 
HETATM   15  C1  UNK     1      16.337  10.347   8.983  1.00  0.00     0.083 C 
HETATM   16  C5  UNK     1      16.189  11.846  10.985  1.00  0.00     0.126 C 
HETATM   17  C2  UNK     1      17.820  10.728   8.843  1.00  0.00     0.025 C 
HETATM   18  C6  UNK     1      15.452  11.086   7.976  1.00  0.00     0.032 C 
HETATM   19  C3  UNK     1      18.143  12.098   9.430  1.00  0.00     0.004 C 
HETATM   20  C4  UNK     1      17.672  12.172  10.876  1.00  0.00     0.020 C 
ENDBRANCH   3  12
BRANCH  10  21
HETATM   21  O4  UNK     1      10.182   5.624   7.436  1.00  0.00    -0.356 OA
HETATM   22  C17 UNK     1      10.044   6.141   6.114  1.00  0.00     0.210 C 
ENDBRANCH  10  21
TORSDOF 2
ENDMDL
