MODEL 1
REMARK VINA RESULT:      -7.6      0.000      0.000
REMARK  4 active torsions:
REMARK  status: ('A' for Active; 'I' for Inactive)
REMARK    1  A    between atoms: C7_12  and  O2_2 
REMARK    2  A    between atoms: C12_17  and  O4_4 
REMARK    3  A    between atoms: C15_20  and  O5_5 
REMARK    4  A    between atoms: C1_6  and  C3_8 
ROOT
HETATM    1  O1  UNK     1      16.809   6.035  33.173  1.00  0.00    -0.340 OA
HETATM    2  O3  UNK     1      19.857   8.450  34.483  1.00  0.00    -0.292 OA
HETATM    3  C1  UNK     1      18.123   5.937  32.599  1.00  0.00     0.172 C 
HETATM    4  C2  UNK     1      19.196   6.312  33.619  1.00  0.00     0.121 C 
HETATM    5  C4  UNK     1      18.951   7.721  34.095  1.00  0.00     0.165 C 
HETATM    6  C5  UNK     1      17.540   8.154  34.136  1.00  0.00     0.046 A 
HETATM    7  C6  UNK     1      16.546   7.276  33.694  1.00  0.00     0.083 A 
HETATM    8  C9  UNK     1      17.198   9.407  34.651  1.00  0.00     0.054 A 
HETATM    9  C10 UNK     1      15.202   7.641  33.798  1.00  0.00     0.040 A 
HETATM   10  C12 UNK     1      15.854   9.773  34.733  1.00  0.00     0.069 A 
HETATM   11  C14 UNK     1      14.858   8.891  34.312  1.00  0.00     0.039 A 
ENDROOT
BRANCH   3  12
HETATM   12  C3  UNK     1      18.320   4.523  32.093  1.00  0.00     0.005 A 
HETATM   13  C7  UNK     1      18.690   4.285  30.770  1.00  0.00     0.079 A 
HETATM   14  C11 UNK     1      18.867   2.976  30.320  1.00  0.00     0.074 A 
HETATM   15  C15 UNK     1      18.673   1.906  31.194  1.00  0.00     0.070 A 
HETATM   16  C13 UNK     1      18.302   2.144  32.518  1.00  0.00     0.037 A 
HETATM   17  C8  UNK     1      18.126   3.453  32.967  1.00  0.00     0.015 A 
BRANCH  13  18
HETATM   18  O2  UNK     1      18.885   5.318  29.904  1.00  0.00    -0.355 OA
HETATM   19  C16 UNK     1      20.180   5.913  29.886  1.00  0.00     0.210 C 
ENDBRANCH  13  18
BRANCH  15  20
HETATM   20  O5  UNK     1      18.845   0.629  30.755  1.00  0.00    -0.356 OA
HETATM   21  C18 UNK     1      20.187   0.159  30.637  1.00  0.00     0.210 C 
ENDBRANCH  15  20
ENDBRANCH   3  12
BRANCH  10  22
HETATM   22  O4  UNK     1      15.512  10.992  35.235  1.00  0.00    -0.356 OA
HETATM   23  C17 UNK     1      14.211  11.117  35.806  1.00  0.00     0.210 C 
ENDBRANCH  10  22
TORSDOF 4
ENDMDL
MODEL 2
REMARK VINA RESULT:      -7.6      1.238      1.322
REMARK  4 active torsions:
REMARK  status: ('A' for Active; 'I' for Inactive)
REMARK    1  A    between atoms: C7_12  and  O2_2 
REMARK    2  A    between atoms: C12_17  and  O4_4 
REMARK    3  A    between atoms: C15_20  and  O5_5 
REMARK    4  A    between atoms: C1_6  and  C3_8 
ROOT
HETATM    1  O1  UNK     1      16.979   7.106  33.179  1.00  0.00    -0.340 OA
HETATM    2  O3  UNK     1      20.177   9.260  34.581  1.00  0.00    -0.292 OA
HETATM    3  C1  UNK     1      18.322   6.742  32.823  1.00  0.00     0.172 C 
HETATM    4  C2  UNK     1      19.304   7.123  33.930  1.00  0.00     0.121 C 
HETATM    5  C4  UNK     1      19.225   8.608  34.167  1.00  0.00     0.165 C 
HETATM    6  C5  UNK     1      17.905   9.231  33.940  1.00  0.00     0.046 A 
HETATM    7  C6  UNK     1      16.849   8.438  33.480  1.00  0.00     0.083 A 
HETATM    8  C9  UNK     1      17.701  10.583  34.223  1.00  0.00     0.054 A 
HETATM    9  C10 UNK     1      15.577   8.993  33.334  1.00  0.00     0.040 A 
HETATM   10  C12 UNK     1      16.431  11.137  34.056  1.00  0.00     0.069 A 
HETATM   11  C14 UNK     1      15.370  10.343  33.617  1.00  0.00     0.039 A 
ENDROOT
BRANCH   3  12
HETATM   12  C3  UNK     1      18.358   5.253  32.550  1.00  0.00     0.005 A 
HETATM   13  C7  UNK     1      18.589   4.770  31.262  1.00  0.00     0.079 A 
HETATM   14  C11 UNK     1      18.617   3.395  31.027  1.00  0.00     0.074 A 
HETATM   15  C15 UNK     1      18.416   2.504  32.081  1.00  0.00     0.070 A 
HETATM   16  C13 UNK     1      18.185   2.986  33.369  1.00  0.00     0.037 A 
HETATM   17  C8  UNK     1      18.157   4.361  33.604  1.00  0.00     0.015 A 
BRANCH  13  18
HETATM   18  O2  UNK     1      18.788   5.627  30.222  1.00  0.00    -0.355 OA
HETATM   19  C16 UNK     1      20.140   5.931  29.884  1.00  0.00     0.210 C 
ENDBRANCH  13  18
BRANCH  15  20
HETATM   20  O5  UNK     1      18.444   1.162  31.852  1.00  0.00    -0.356 OA
HETATM   21  C18 UNK     1      19.306   0.698  30.813  1.00  0.00     0.210 C 
ENDBRANCH  15  20
ENDBRANCH   3  12
BRANCH  10  22
HETATM   22  O4  UNK     1      16.223  12.455  34.331  1.00  0.00    -0.356 OA
HETATM   23  C17 UNK     1      16.953  13.014  35.420  1.00  0.00     0.210 C 
ENDBRANCH  10  22
TORSDOF 4
ENDMDL
MODEL 3
REMARK VINA RESULT:      -7.6      1.798      7.647
REMARK  4 active torsions:
REMARK  status: ('A' for Active; 'I' for Inactive)
REMARK    1  A    between atoms: C7_12  and  O2_2 
REMARK    2  A    between atoms: C12_17  and  O4_4 
REMARK    3  A    between atoms: C15_20  and  O5_5 
REMARK    4  A    between atoms: C1_6  and  C3_8 
ROOT
HETATM    1  O1  UNK     1      18.289   5.176  31.486  1.00  0.00    -0.340 OA
HETATM    2  O3  UNK     1      18.317   2.272  34.383  1.00  0.00    -0.292 OA
HETATM    3  C1  UNK     1      17.536   5.342  32.698  1.00  0.00     0.172 C 
HETATM    4  C2  UNK     1      18.205   4.611  33.861  1.00  0.00     0.121 C 
HETATM    5  C4  UNK     1      18.313   3.146  33.524  1.00  0.00     0.165 C 
HETATM    6  C5  UNK     1      18.487   2.823  32.094  1.00  0.00     0.046 A 
HETATM    7  C6  UNK     1      18.489   3.861  31.157  1.00  0.00     0.083 A 
HETATM    8  C9  UNK     1      18.693   1.503  31.685  1.00  0.00     0.054 A 
HETATM    9  C10 UNK     1      18.730   3.579  29.811  1.00  0.00     0.040 A 
HETATM   10  C12 UNK     1      18.913   1.226  30.336  1.00  0.00     0.069 A 
HETATM   11  C14 UNK     1      18.936   2.262  29.401  1.00  0.00     0.039 A 
ENDROOT
BRANCH   3  12
HETATM   12  C3  UNK     1      17.410   6.823  32.985  1.00  0.00     0.005 A 
HETATM   13  C7  UNK     1      16.253   7.520  32.638  1.00  0.00     0.079 A 
HETATM   14  C11 UNK     1      16.153   8.885  32.908  1.00  0.00     0.074 A 
HETATM   15  C15 UNK     1      17.210   9.553  33.526  1.00  0.00     0.070 A 
HETATM   16  C13 UNK     1      18.368   8.856  33.874  1.00  0.00     0.037 A 
HETATM   17  C8  UNK     1      18.467   7.491  33.604  1.00  0.00     0.015 A 
BRANCH  13  18
HETATM   18  O2  UNK     1      15.210   6.883  32.034  1.00  0.00    -0.355 OA
HETATM   19  C16 UNK     1      13.897   7.265  32.438  1.00  0.00     0.210 C 
ENDBRANCH  13  18
BRANCH  15  20
HETATM   20  O5  UNK     1      17.112  10.885  33.790  1.00  0.00    -0.356 OA
HETATM   21  C18 UNK     1      18.326  11.581  34.071  1.00  0.00     0.210 C 
ENDBRANCH  15  20
ENDBRANCH   3  12
BRANCH  10  22
HETATM   22  O4  UNK     1      19.115  -0.058  29.929  1.00  0.00    -0.356 OA
HETATM   23  C17 UNK     1      20.236  -0.302  29.081  1.00  0.00     0.210 C 
ENDBRANCH  10  22
TORSDOF 4
ENDMDL
MODEL 4
REMARK VINA RESULT:      -7.5      2.025      3.173
REMARK  4 active torsions:
REMARK  status: ('A' for Active; 'I' for Inactive)
REMARK    1  A    between atoms: C7_12  and  O2_2 
REMARK    2  A    between atoms: C12_17  and  O4_4 
REMARK    3  A    between atoms: C15_20  and  O5_5 
REMARK    4  A    between atoms: C1_6  and  C3_8 
ROOT
HETATM    1  O1  UNK     1      19.143   5.952  32.679  1.00  0.00    -0.340 OA
HETATM    2  O3  UNK     1      16.136   8.239  31.080  1.00  0.00    -0.292 OA
HETATM    3  C1  UNK     1      17.953   5.339  32.157  1.00  0.00     0.172 C 
HETATM    4  C2  UNK     1      17.358   6.176  31.026  1.00  0.00     0.121 C 
HETATM    5  C4  UNK     1      17.036   7.551  31.548  1.00  0.00     0.165 C 
HETATM    6  C5  UNK     1      17.918   8.060  32.618  1.00  0.00     0.046 A 
HETATM    7  C6  UNK     1      18.937   7.238  33.107  1.00  0.00     0.083 A 
HETATM    8  C9  UNK     1      17.764   9.361  33.105  1.00  0.00     0.054 A 
HETATM    9  C10 UNK     1      19.827   7.732  34.064  1.00  0.00     0.040 A 
HETATM   10  C12 UNK     1      18.644   9.841  34.076  1.00  0.00     0.069 A 
HETATM   11  C14 UNK     1      19.676   9.029  34.551  1.00  0.00     0.039 A 
ENDROOT
BRANCH   3  12
HETATM   12  C3  UNK     1      18.302   3.945  31.681  1.00  0.00     0.005 A 
HETATM   13  C7  UNK     1      18.264   2.862  32.558  1.00  0.00     0.079 A 
HETATM   14  C11 UNK     1      18.589   1.583  32.103  1.00  0.00     0.074 A 
HETATM   15  C15 UNK     1      18.952   1.389  30.771  1.00  0.00     0.070 A 
HETATM   16  C13 UNK     1      18.990   2.473  29.892  1.00  0.00     0.037 A 
HETATM   17  C8  UNK     1      18.664   3.750  30.348  1.00  0.00     0.015 A 
BRANCH  13  18
HETATM   18  O2  UNK     1      17.911   3.034  33.863  1.00  0.00    -0.355 OA
HETATM   19  C16 UNK     1      18.393   2.071  34.797  1.00  0.00     0.210 C 
ENDBRANCH  13  18
BRANCH  15  20
HETATM   20  O5  UNK     1      19.269   0.142  30.327  1.00  0.00    -0.356 OA
HETATM   21  C18 UNK     1      20.030   0.056  29.122  1.00  0.00     0.210 C 
ENDBRANCH  15  20
ENDBRANCH   3  12
BRANCH  10  22
HETATM   22  O4  UNK     1      18.502  11.107  34.555  1.00  0.00    -0.356 OA
HETATM   23  C17 UNK     1      17.319  11.812  34.187  1.00  0.00     0.210 C 
ENDBRANCH  10  22
TORSDOF 4
ENDMDL
MODEL 5
REMARK VINA RESULT:      -7.5      1.827      7.692
REMARK  4 active torsions:
REMARK  status: ('A' for Active; 'I' for Inactive)
REMARK    1  A    between atoms: C7_12  and  O2_2 
REMARK    2  A    between atoms: C12_17  and  O4_4 
REMARK    3  A    between atoms: C15_20  and  O5_5 
REMARK    4  A    between atoms: C1_6  and  C3_8 
ROOT
HETATM    1  O1  UNK     1      17.868   3.446  33.167  1.00  0.00    -0.340 OA
HETATM    2  O3  UNK     1      19.130   2.117  29.496  1.00  0.00    -0.292 OA
HETATM    3  C1  UNK     1      18.514   4.339  32.245  1.00  0.00     0.172 C 
HETATM    4  C2  UNK     1      18.243   3.924  30.800  1.00  0.00     0.121 C 
HETATM    5  C4  UNK     1      18.746   2.520  30.588  1.00  0.00     0.165 C 
HETATM    6  C5  UNK     1      18.685   1.627  31.763  1.00  0.00     0.046 A 
HETATM    7  C6  UNK     1      18.226   2.136  32.981  1.00  0.00     0.083 A 
HETATM    8  C9  UNK     1      19.038   0.280  31.648  1.00  0.00     0.054 A 
HETATM    9  C10 UNK     1      18.089   1.286  34.081  1.00  0.00     0.040 A 
HETATM   10  C12 UNK     1      18.918  -0.560  32.756  1.00  0.00     0.069 A 
HETATM   11  C14 UNK     1      18.440  -0.059  33.968  1.00  0.00     0.039 A 
ENDROOT
BRANCH   3  12
HETATM   12  C3  UNK     1      18.019   5.745  32.512  1.00  0.00     0.005 A 
HETATM   13  C7  UNK     1      18.820   6.666  33.186  1.00  0.00     0.079 A 
HETATM   14  C11 UNK     1      18.349   7.958  33.425  1.00  0.00     0.074 A 
HETATM   15  C15 UNK     1      17.076   8.326  32.990  1.00  0.00     0.070 A 
HETATM   16  C13 UNK     1      16.273   7.404  32.317  1.00  0.00     0.037 A 
HETATM   17  C8  UNK     1      16.746   6.114  32.078  1.00  0.00     0.015 A 
BRANCH  13  18
HETATM   18  O2  UNK     1      20.067   6.323  33.616  1.00  0.00    -0.355 OA
HETATM   19  C16 UNK     1      21.146   6.534  32.708  1.00  0.00     0.210 C 
ENDBRANCH  13  18
BRANCH  15  20
HETATM   20  O5  UNK     1      16.615   9.585  33.224  1.00  0.00    -0.356 OA
HETATM   21  C18 UNK     1      15.219   9.813  33.029  1.00  0.00     0.210 C 
ENDBRANCH  15  20
ENDBRANCH   3  12
BRANCH  10  22
HETATM   22  O4  UNK     1      19.258  -1.874  32.653  1.00  0.00    -0.356 OA
HETATM   23  C17 UNK     1      20.515  -2.174  32.050  1.00  0.00     0.210 C 
ENDBRANCH  10  22
TORSDOF 4
ENDMDL
MODEL 6
REMARK VINA RESULT:      -7.5     23.032     24.793
REMARK  4 active torsions:
REMARK  status: ('A' for Active; 'I' for Inactive)
REMARK    1  A    between atoms: C7_12  and  O2_2 
REMARK    2  A    between atoms: C12_17  and  O4_4 
REMARK    3  A    between atoms: C15_20  and  O5_5 
REMARK    4  A    between atoms: C1_6  and  C3_8 
ROOT
HETATM    1  O1  UNK     1      12.022   8.795   9.398  1.00  0.00    -0.340 OA
HETATM    2  O3  UNK     1      11.051   5.415   7.285  1.00  0.00    -0.292 OA
HETATM    3  C1  UNK     1      12.957   7.712   9.275  1.00  0.00     0.172 C 
HETATM    4  C2  UNK     1      12.756   6.961   7.960  1.00  0.00     0.121 C 
HETATM    5  C4  UNK     1      11.349   6.427   7.910  1.00  0.00     0.165 C 
HETATM    6  C5  UNK     1      10.324   7.236   8.601  1.00  0.00     0.046 A 
HETATM    7  C6  UNK     1      10.717   8.388   9.287  1.00  0.00     0.083 A 
HETATM    8  C9  UNK     1       8.975   6.879   8.533  1.00  0.00     0.054 A 
HETATM    9  C10 UNK     1       9.752   9.205   9.880  1.00  0.00     0.040 A 
HETATM   10  C12 UNK     1       8.018   7.689   9.145  1.00  0.00     0.069 A 
HETATM   11  C14 UNK     1       8.405   8.852   9.813  1.00  0.00     0.039 A 
ENDROOT
BRANCH   3  12
HETATM   12  C3  UNK     1      14.359   8.277   9.373  1.00  0.00     0.005 A 
HETATM   13  C7  UNK     1      15.364   7.579  10.043  1.00  0.00     0.079 A 
HETATM   14  C11 UNK     1      16.650   8.113  10.125  1.00  0.00     0.074 A 
HETATM   15  C15 UNK     1      16.930   9.347   9.537  1.00  0.00     0.070 A 
HETATM   16  C13 UNK     1      15.926  10.046   8.867  1.00  0.00     0.037 A 
HETATM   17  C8  UNK     1      14.640   9.510   8.785  1.00  0.00     0.015 A 
BRANCH  13  18
HETATM   18  O2  UNK     1      15.107   6.372  10.621  1.00  0.00    -0.355 OA
HETATM   19  C16 UNK     1      15.551   5.211   9.923  1.00  0.00     0.210 C 
ENDBRANCH  13  18
BRANCH  15  20
HETATM   20  O5  UNK     1      18.185   9.869   9.617  1.00  0.00    -0.356 OA
HETATM   21  C18 UNK     1      18.290  11.278   9.822  1.00  0.00     0.210 C 
ENDBRANCH  15  20
ENDBRANCH   3  12
BRANCH  10  22
HETATM   22  O4  UNK     1       6.700   7.350   9.083  1.00  0.00    -0.356 OA
HETATM   23  C17 UNK     1       5.884   7.709  10.195  1.00  0.00     0.210 C 
ENDBRANCH  10  22
TORSDOF 4
ENDMDL
MODEL 7
REMARK VINA RESULT:      -7.5      1.725      7.606
REMARK  4 active torsions:
REMARK  status: ('A' for Active; 'I' for Inactive)
REMARK    1  A    between atoms: C7_12  and  O2_2 
REMARK    2  A    between atoms: C12_17  and  O4_4 
REMARK    3  A    between atoms: C15_20  and  O5_5 
REMARK    4  A    between atoms: C1_6  and  C3_8 
ROOT
HETATM    1  O1  UNK     1      18.683   6.157  31.760  1.00  0.00    -0.340 OA
HETATM    2  O3  UNK     1      18.116   3.087  34.423  1.00  0.00    -0.292 OA
HETATM    3  C1  UNK     1      17.981   6.376  32.994  1.00  0.00     0.172 C 
HETATM    4  C2  UNK     1      18.485   5.434  34.086  1.00  0.00     0.121 C 
HETATM    5  C4  UNK     1      18.291   4.009  33.634  1.00  0.00     0.165 C 
HETATM    6  C5  UNK     1      18.396   3.771  32.181  1.00  0.00     0.046 A 
HETATM    7  C6  UNK     1      18.610   4.858  31.327  1.00  0.00     0.083 A 
HETATM    8  C9  UNK     1      18.327   2.473  31.668  1.00  0.00     0.054 A 
HETATM    9  C10 UNK     1      18.788   4.641  29.960  1.00  0.00     0.040 A 
HETATM   10  C12 UNK     1      18.486   2.265  30.297  1.00  0.00     0.069 A 
HETATM   11  C14 UNK     1      18.720   3.346  29.446  1.00  0.00     0.039 A 
ENDROOT
BRANCH   3  12
HETATM   12  C3  UNK     1      18.160   7.824  33.397  1.00  0.00     0.005 A 
HETATM   13  C7  UNK     1      17.097   8.723  33.318  1.00  0.00     0.079 A 
HETATM   14  C11 UNK     1      17.279  10.055  33.692  1.00  0.00     0.074 A 
HETATM   15  C15 UNK     1      18.525  10.487  34.145  1.00  0.00     0.070 A 
HETATM   16  C13 UNK     1      19.589   9.588  34.224  1.00  0.00     0.037 A 
HETATM   17  C8  UNK     1      19.406   8.257  33.850  1.00  0.00     0.015 A 
BRANCH  13  18
HETATM   18  O2  UNK     1      15.872   8.317  32.878  1.00  0.00    -0.355 OA
HETATM   19  C16 UNK     1      14.766   8.535  33.751  1.00  0.00     0.210 C 
ENDBRANCH  13  18
BRANCH  15  20
HETATM   20  O5  UNK     1      18.703  11.786  34.510  1.00  0.00    -0.356 OA
HETATM   21  C18 UNK     1      17.598  12.671  34.322  1.00  0.00     0.210 C 
ENDBRANCH  15  20
ENDBRANCH   3  12
BRANCH  10  22
HETATM   22  O4  UNK     1      18.421   1.004  29.790  1.00  0.00    -0.356 OA
HETATM   23  C17 UNK     1      19.582   0.511  29.124  1.00  0.00     0.210 C 
ENDBRANCH  10  22
TORSDOF 4
ENDMDL
MODEL 8
REMARK VINA RESULT:      -7.5      1.782      3.018
REMARK  4 active torsions:
REMARK  status: ('A' for Active; 'I' for Inactive)
REMARK    1  A    between atoms: C7_12  and  O2_2 
REMARK    2  A    between atoms: C12_17  and  O4_4 
REMARK    3  A    between atoms: C15_20  and  O5_5 
REMARK    4  A    between atoms: C1_6  and  C3_8 
ROOT
HETATM    1  O1  UNK     1      17.926   4.277  33.041  1.00  0.00    -0.340 OA
HETATM    2  O3  UNK     1      19.073   6.524  29.805  1.00  0.00    -0.292 OA
HETATM    3  C1  UNK     1      18.085   3.674  31.747  1.00  0.00     0.172 C 
HETATM    4  C2  UNK     1      19.146   4.405  30.928  1.00  0.00     0.121 C 
HETATM    5  C4  UNK     1      18.739   5.847  30.771  1.00  0.00     0.165 C 
HETATM    6  C5  UNK     1      17.968   6.427  31.889  1.00  0.00     0.046 A 
HETATM    7  C6  UNK     1      17.625   5.613  32.973  1.00  0.00     0.083 A 
HETATM    8  C9  UNK     1      17.623   7.781  31.886  1.00  0.00     0.054 A 
HETATM    9  C10 UNK     1      16.964   6.165  34.073  1.00  0.00     0.040 A 
HETATM   10  C12 UNK     1      16.945   8.321  32.979  1.00  0.00     0.069 A 
HETATM   11  C14 UNK     1      16.620   7.516  34.072  1.00  0.00     0.039 A 
ENDROOT
BRANCH   3  12
HETATM   12  C3  UNK     1      18.451   2.217  31.940  1.00  0.00     0.005 A 
HETATM   13  C7  UNK     1      18.914   1.451  30.871  1.00  0.00     0.079 A 
HETATM   14  C11 UNK     1      19.246   0.110  31.065  1.00  0.00     0.074 A 
HETATM   15  C15 UNK     1      19.117  -0.464  32.330  1.00  0.00     0.070 A 
HETATM   16  C13 UNK     1      18.654   0.302  33.400  1.00  0.00     0.037 A 
HETATM   17  C8  UNK     1      18.322   1.643  33.205  1.00  0.00     0.015 A 
BRANCH  13  18
HETATM   18  O2  UNK     1      19.047   1.996  29.629  1.00  0.00    -0.355 OA
HETATM   19  C16 UNK     1      18.047   1.669  28.667  1.00  0.00     0.210 C 
ENDBRANCH  13  18
BRANCH  15  20
HETATM   20  O5  UNK     1      19.441  -1.772  32.520  1.00  0.00    -0.356 OA
HETATM   21  C18 UNK     1      20.555  -2.279  31.784  1.00  0.00     0.210 C 
ENDBRANCH  15  20
ENDBRANCH   3  12
BRANCH  10  22
HETATM   22  O4  UNK     1      16.607   9.640  32.985  1.00  0.00    -0.356 OA
HETATM   23  C17 UNK     1      16.937  10.391  34.151  1.00  0.00     0.210 C 
ENDBRANCH  10  22
TORSDOF 4
ENDMDL
MODEL 9
REMARK VINA RESULT:      -7.4      1.110      2.010
REMARK  4 active torsions:
REMARK  status: ('A' for Active; 'I' for Inactive)
REMARK    1  A    between atoms: C7_12  and  O2_2 
REMARK    2  A    between atoms: C12_17  and  O4_4 
REMARK    3  A    between atoms: C15_20  and  O5_5 
REMARK    4  A    between atoms: C1_6  and  C3_8 
ROOT
HETATM    1  O1  UNK     1      17.013   5.673  32.758  1.00  0.00    -0.340 OA
HETATM    2  O3  UNK     1      20.134   8.087  33.883  1.00  0.00    -0.292 OA
HETATM    3  C1  UNK     1      18.270   5.619  32.064  1.00  0.00     0.172 C 
HETATM    4  C2  UNK     1      19.426   5.973  32.997  1.00  0.00     0.121 C 
HETATM    5  C4  UNK     1      19.207   7.358  33.549  1.00  0.00     0.165 C 
HETATM    6  C5  UNK     1      17.800   7.765  33.735  1.00  0.00     0.046 A 
HETATM    7  C6  UNK     1      16.781   6.888  33.350  1.00  0.00     0.083 A 
HETATM    8  C9  UNK     1      17.489   8.990  34.329  1.00  0.00     0.054 A 
HETATM    9  C10 UNK     1      15.448   7.225  33.590  1.00  0.00     0.040 A 
HETATM   10  C12 UNK     1      16.153   9.330  34.548  1.00  0.00     0.069 A 
HETATM   11  C14 UNK     1      15.135   8.447  34.183  1.00  0.00     0.039 A 
ENDROOT
BRANCH   3  12
HETATM   12  C3  UNK     1      18.439   4.230  31.486  1.00  0.00     0.005 A 
HETATM   13  C7  UNK     1      18.274   3.100  32.286  1.00  0.00     0.079 A 
HETATM   14  C11 UNK     1      18.435   1.827  31.738  1.00  0.00     0.074 A 
HETATM   15  C15 UNK     1      18.761   1.685  30.390  1.00  0.00     0.070 A 
HETATM   16  C13 UNK     1      18.927   2.815  29.588  1.00  0.00     0.037 A 
HETATM   17  C8  UNK     1      18.765   4.088  30.137  1.00  0.00     0.015 A 
BRANCH  13  18
HETATM   18  O2  UNK     1      17.954   3.221  33.605  1.00  0.00    -0.355 OA
HETATM   19  C16 UNK     1      18.230   2.102  34.444  1.00  0.00     0.210 C 
ENDBRANCH  13  18
BRANCH  15  20
HETATM   20  O5  UNK     1      18.918   0.443  29.855  1.00  0.00    -0.356 OA
HETATM   21  C18 UNK     1      20.138   0.184  29.161  1.00  0.00     0.210 C 
ENDBRANCH  15  20
ENDBRANCH   3  12
BRANCH  10  22
HETATM   22  O4  UNK     1      15.841  10.522  35.127  1.00  0.00    -0.356 OA
HETATM   23  C17 UNK     1      14.501  10.692  35.584  1.00  0.00     0.210 C 
ENDBRANCH  10  22
TORSDOF 4
ENDMDL
MODEL 10
REMARK VINA RESULT:      -7.3      8.133     11.268
REMARK  4 active torsions:
REMARK  status: ('A' for Active; 'I' for Inactive)
REMARK    1  A    between atoms: C7_12  and  O2_2 
REMARK    2  A    between atoms: C12_17  and  O4_4 
REMARK    3  A    between atoms: C15_20  and  O5_5 
REMARK    4  A    between atoms: C1_6  and  C3_8 
ROOT
HETATM    1  O1  UNK     1      19.023  -3.189  37.615  1.00  0.00    -0.340 OA
HETATM    2  O3  UNK     1      20.446  -2.132  33.914  1.00  0.00    -0.292 OA
HETATM    3  C1  UNK     1      19.244  -4.184  36.602  1.00  0.00     0.172 C 
HETATM    4  C2  UNK     1      20.379  -3.770  35.667  1.00  0.00     0.121 C 
HETATM    5  C4  UNK     1      20.029  -2.454  35.022  1.00  0.00     0.165 C 
HETATM    6  C5  UNK     1      19.208  -1.533  35.834  1.00  0.00     0.046 A 
HETATM    7  C6  UNK     1      18.770  -1.946  37.096  1.00  0.00     0.083 A 
HETATM    8  C9  UNK     1      18.908  -0.251  35.367  1.00  0.00     0.054 A 
HETATM    9  C10 UNK     1      18.059  -1.060  37.907  1.00  0.00     0.040 A 
HETATM   10  C12 UNK     1      18.179   0.623  36.174  1.00  0.00     0.069 A 
HETATM   11  C14 UNK     1      17.759   0.221  37.444  1.00  0.00     0.039 A 
ENDROOT
BRANCH   3  12
HETATM   12  C3  UNK     1      19.551  -5.501  37.282  1.00  0.00     0.005 A 
HETATM   13  C7  UNK     1      18.682  -6.585  37.161  1.00  0.00     0.079 A 
HETATM   14  C11 UNK     1      18.979  -7.792  37.796  1.00  0.00     0.074 A 
HETATM   15  C15 UNK     1      20.145  -7.914  38.551  1.00  0.00     0.070 A 
HETATM   16  C13 UNK     1      21.014  -6.829  38.673  1.00  0.00     0.037 A 
HETATM   17  C8  UNK     1      20.718  -5.623  38.038  1.00  0.00     0.015 A 
BRANCH  13  18
HETATM   18  O2  UNK     1      17.540  -6.484  36.426  1.00  0.00    -0.355 OA
HETATM   19  C16 UNK     1      17.371  -7.415  35.359  1.00  0.00     0.210 C 
ENDBRANCH  13  18
BRANCH  15  20
HETATM   20  O5  UNK     1      20.435  -9.091  39.170  1.00  0.00    -0.356 OA
HETATM   21  C18 UNK     1      19.642 -10.224  38.815  1.00  0.00     0.210 C 
ENDBRANCH  15  20
ENDBRANCH   3  12
BRANCH  10  22
HETATM   22  O4  UNK     1      17.884   1.875  35.727  1.00  0.00    -0.356 OA
HETATM   23  C17 UNK     1      18.232   2.182  34.379  1.00  0.00     0.210 C 
ENDBRANCH  10  22
TORSDOF 4
ENDMDL
