MODEL 1
REMARK VINA RESULT:      -7.6      0.000      0.000
REMARK  7 active torsions:
REMARK  status: ('A' for Active; 'I' for Inactive)
REMARK    1  A    between atoms: C3_8  and  O1_1 
REMARK    2  A    between atoms: C9_14  and  O1_1 
REMARK    3  A    between atoms: C17_22  and  O4_4 
REMARK    4  A    between atoms: C11_16  and  C5_10 
REMARK    5  A    between atoms: C10_15  and  C9_14 
REMARK    6  A    between atoms: C10_15  and  C14_19 
REMARK    7  A    between atoms: C11_16  and  C17_22 
ROOT
HETATM    1  O2  UNK     1      18.198   2.365  35.805  1.00  0.00    -0.274 OA
HETATM    2  O3  UNK     1      18.169   0.924  37.556  1.00  0.00    -0.259 OA
HETATM    3  C1  UNK     1      18.312   1.528  33.524  1.00  0.00     0.038 A 
HETATM    4  C2  UNK     1      18.324   0.148  34.050  1.00  0.00    -0.033 A 
HETATM    5  C3  UNK     1      18.373   1.848  32.158  1.00  0.00     0.082 A 
HETATM    6  C4  UNK     1      18.249   2.590  34.421  1.00  0.00     0.093 A 
HETATM    7  C5  UNK     1      18.307  -0.053  35.386  1.00  0.00     0.034 A 
HETATM    8  C6  UNK     1      18.291   4.217  32.650  1.00  0.00    -0.057 A 
HETATM    9  C7  UNK     1      18.362   3.179  31.725  1.00  0.00     0.044 A 
HETATM   10  C8  UNK     1      18.236   3.925  34.008  1.00  0.00     0.045 A 
HETATM   11  C12 UNK     1      18.310  -1.013  33.085  1.00  0.00     0.050 C 
HETATM   12  C13 UNK     1      18.224   1.089  36.341  1.00  0.00     0.295 A 
HETATM   13  C15 UNK     1      18.280   5.635  32.187  1.00  0.00     0.048 C 
ENDROOT
BRANCH   5  14
HETATM   14  O1  UNK     1      18.469   0.914  31.167  1.00  0.00    -0.350 OA
BRANCH  14  15
HETATM   15  C9  UNK     1      19.748   0.744  30.562  1.00  0.00     0.175 C 
BRANCH  15  16
HETATM   16  C10 UNK     1      19.555   0.411  29.089  1.00  0.00     0.026 C 
BRANCH  16  17
HETATM   17  C14 UNK     1      20.267  -0.883  28.706  1.00  0.00    -0.002 C 
HETATM   18  C16 UNK     1      20.327  -1.853  29.874  1.00  0.00     0.005 C 
ENDBRANCH  16  17
ENDBRANCH  15  16
ENDBRANCH  14  15
ENDBRANCH   5  14
BRANCH   7  19
HETATM   19  C11 UNK     1      18.381  -1.407  36.049  1.00  0.00     0.156 C 
BRANCH  19  20
HETATM   20  C17 UNK     1      19.816  -1.794  36.287  1.00  0.00     0.262 C 
HETATM   21  O5  UNK     1      20.770  -1.531  35.568  1.00  0.00    -0.265 OA
BRANCH  20  22
HETATM   22  O4  UNK     1      19.868  -2.516  37.449  1.00  0.00    -0.326 OA
HETATM   23  C18 UNK     1      20.555  -3.769  37.366  1.00  0.00     0.213 C 
ENDBRANCH  20  22
ENDBRANCH  19  20
ENDBRANCH   7  19
TORSDOF 7
ENDMDL
MODEL 2
REMARK VINA RESULT:      -7.4      1.865      4.599
REMARK  7 active torsions:
REMARK  status: ('A' for Active; 'I' for Inactive)
REMARK    1  A    between atoms: C3_8  and  O1_1 
REMARK    2  A    between atoms: C9_14  and  O1_1 
REMARK    3  A    between atoms: C17_22  and  O4_4 
REMARK    4  A    between atoms: C11_16  and  C5_10 
REMARK    5  A    between atoms: C10_15  and  C9_14 
REMARK    6  A    between atoms: C10_15  and  C14_19 
REMARK    7  A    between atoms: C11_16  and  C17_22 
ROOT
HETATM    1  O2  UNK     1      19.228  -0.926  33.200  1.00  0.00    -0.274 OA
HETATM    2  O3  UNK     1      18.837  -1.204  35.416  1.00  0.00    -0.259 OA
HETATM    3  C1  UNK     1      18.771   1.209  32.129  1.00  0.00     0.038 A 
HETATM    4  C2  UNK     1      18.323   1.746  33.430  1.00  0.00    -0.033 A 
HETATM    5  C3  UNK     1      18.774   1.948  30.935  1.00  0.00     0.082 A 
HETATM    6  C4  UNK     1      19.208  -0.109  32.059  1.00  0.00     0.093 A 
HETATM    7  C5  UNK     1      18.315   0.939  34.513  1.00  0.00     0.034 A 
HETATM    8  C6  UNK     1      19.648   0.057  29.700  1.00  0.00    -0.057 A 
HETATM    9  C7  UNK     1      19.210   1.378  29.733  1.00  0.00     0.044 A 
HETATM   10  C8  UNK     1      19.648  -0.696  30.869  1.00  0.00     0.045 A 
HETATM   11  C12 UNK     1      17.922   3.198  33.534  1.00  0.00     0.050 C 
HETATM   12  C13 UNK     1      18.800  -0.469  34.435  1.00  0.00     0.295 A 
HETATM   13  C15 UNK     1      20.110  -0.549  28.418  1.00  0.00     0.048 C 
ENDROOT
BRANCH   5  14
HETATM   14  O1  UNK     1      18.345   3.240  30.844  1.00  0.00    -0.350 OA
BRANCH  14  15
HETATM   15  C9  UNK     1      18.952   4.054  29.844  1.00  0.00     0.175 C 
BRANCH  15  16
HETATM   16  C10 UNK     1      19.709   5.186  30.524  1.00  0.00     0.026 C 
BRANCH  16  17
HETATM   17  C14 UNK     1      18.760   6.176  31.194  1.00  0.00    -0.002 C 
HETATM   18  C16 UNK     1      19.274   6.603  32.559  1.00  0.00     0.005 C 
ENDBRANCH  16  17
ENDBRANCH  15  16
ENDBRANCH  14  15
ENDBRANCH   5  14
BRANCH   7  19
HETATM   19  C11 UNK     1      17.821   1.345  35.880  1.00  0.00     0.156 C 
BRANCH  19  20
HETATM   20  C17 UNK     1      16.482   0.716  36.161  1.00  0.00     0.262 C 
HETATM   21  O5  UNK     1      15.565   0.571  35.364  1.00  0.00    -0.265 OA
BRANCH  20  22
HETATM   22  O4  UNK     1      16.460   0.347  37.478  1.00  0.00    -0.326 OA
HETATM   23  C18 UNK     1      17.625   0.692  38.235  1.00  0.00     0.213 C 
ENDBRANCH  20  22
ENDBRANCH  19  20
ENDBRANCH   7  19
TORSDOF 7
ENDMDL
MODEL 3
REMARK VINA RESULT:      -7.4      2.188      6.721
REMARK  7 active torsions:
REMARK  status: ('A' for Active; 'I' for Inactive)
REMARK    1  A    between atoms: C3_8  and  O1_1 
REMARK    2  A    between atoms: C9_14  and  O1_1 
REMARK    3  A    between atoms: C17_22  and  O4_4 
REMARK    4  A    between atoms: C11_16  and  C5_10 
REMARK    5  A    between atoms: C10_15  and  C9_14 
REMARK    6  A    between atoms: C10_15  and  C14_19 
REMARK    7  A    between atoms: C11_16  and  C17_22 
ROOT
HETATM    1  O2  UNK     1      19.124   1.997  29.329  1.00  0.00    -0.274 OA
HETATM    2  O3  UNK     1      18.496   4.141  28.938  1.00  0.00    -0.259 OA
HETATM    3  C1  UNK     1      19.012   1.073  31.575  1.00  0.00     0.038 A 
HETATM    4  C2  UNK     1      18.493   2.366  32.063  1.00  0.00    -0.033 A 
HETATM    5  C3  UNK     1      19.241  -0.042  32.399  1.00  0.00     0.082 A 
HETATM    6  C4  UNK     1      19.309   0.933  30.224  1.00  0.00     0.093 A 
HETATM    7  C5  UNK     1      18.350   3.393  31.197  1.00  0.00     0.034 A 
HETATM    8  C6  UNK     1      20.018  -1.348  30.514  1.00  0.00    -0.057 A 
HETATM    9  C7  UNK     1      19.738  -1.240  31.874  1.00  0.00     0.044 A 
HETATM   10  C8  UNK     1      19.805  -0.256  29.680  1.00  0.00     0.045 A 
HETATM   11  C12 UNK     1      18.091   2.505  33.512  1.00  0.00     0.050 C 
HETATM   12  C13 UNK     1      18.656   3.232  29.746  1.00  0.00     0.295 A 
HETATM   13  C15 UNK     1      20.549  -2.625  29.956  1.00  0.00     0.048 C 
ENDROOT
BRANCH   5  14
HETATM   14  O1  UNK     1      19.025  -0.042  33.747  1.00  0.00    -0.350 OA
BRANCH  14  15
HETATM   15  C9  UNK     1      18.788  -1.306  34.362  1.00  0.00     0.175 C 
BRANCH  15  16
HETATM   16  C10 UNK     1      17.837  -1.111  35.535  1.00  0.00     0.026 C 
BRANCH  16  17
HETATM   17  C14 UNK     1      16.380  -1.080  35.080  1.00  0.00    -0.002 C 
HETATM   18  C16 UNK     1      15.736   0.265  35.368  1.00  0.00     0.005 C 
ENDBRANCH  16  17
ENDBRANCH  15  16
ENDBRANCH  14  15
ENDBRANCH   5  14
BRANCH   7  19
HETATM   19  C11 UNK     1      17.894   4.780  31.579  1.00  0.00     0.156 C 
BRANCH  19  20
HETATM   20  C17 UNK     1      19.070   5.620  32.000  1.00  0.00     0.262 C 
HETATM   21  O5  UNK     1      20.042   5.907  31.313  1.00  0.00    -0.265 OA
BRANCH  20  22
HETATM   22  O4  UNK     1      18.874   5.996  33.300  1.00  0.00    -0.326 OA
HETATM   23  C18 UNK     1      17.509   6.189  33.687  1.00  0.00     0.213 C 
ENDBRANCH  20  22
ENDBRANCH  19  20
ENDBRANCH   7  19
TORSDOF 7
ENDMDL
MODEL 4
REMARK VINA RESULT:      -7.3     11.353     13.350
REMARK  7 active torsions:
REMARK  status: ('A' for Active; 'I' for Inactive)
REMARK    1  A    between atoms: C3_8  and  O1_1 
REMARK    2  A    between atoms: C9_14  and  O1_1 
REMARK    3  A    between atoms: C17_22  and  O4_4 
REMARK    4  A    between atoms: C11_16  and  C5_10 
REMARK    5  A    between atoms: C10_15  and  C9_14 
REMARK    6  A    between atoms: C10_15  and  C14_19 
REMARK    7  A    between atoms: C11_16  and  C17_22 
ROOT
HETATM    1  O2  UNK     1      30.890  -3.973  38.209  1.00  0.00    -0.274 OA
HETATM    2  O3  UNK     1      29.411  -4.008  39.927  1.00  0.00    -0.259 OA
HETATM    3  C1  UNK     1      30.802  -5.676  36.474  1.00  0.00     0.038 A 
HETATM    4  C2  UNK     1      29.650  -6.292  37.162  1.00  0.00    -0.033 A 
HETATM    5  C3  UNK     1      31.368  -6.176  35.291  1.00  0.00     0.082 A 
HETATM    6  C4  UNK     1      31.383  -4.536  37.021  1.00  0.00     0.093 A 
HETATM    7  C5  UNK     1      29.207  -5.759  38.322  1.00  0.00     0.034 A 
HETATM    8  C6  UNK     1      33.016  -4.402  35.260  1.00  0.00    -0.057 A 
HETATM    9  C7  UNK     1      32.463  -5.545  34.689  1.00  0.00     0.044 A 
HETATM   10  C8  UNK     1      32.475  -3.891  36.435  1.00  0.00     0.045 A 
HETATM   11  C12 UNK     1      28.962  -7.481  36.536  1.00  0.00     0.050 C 
HETATM   12  C13 UNK     1      29.824  -4.528  38.895  1.00  0.00     0.295 A 
HETATM   13  C15 UNK     1      34.183  -3.732  34.619  1.00  0.00     0.048 C 
ENDROOT
BRANCH   5  14
HETATM   14  O1  UNK     1      30.925  -7.302  34.658  1.00  0.00    -0.350 OA
BRANCH  14  15
HETATM   15  C9  UNK     1      30.797  -7.236  33.240  1.00  0.00     0.175 C 
BRANCH  15  16
HETATM   16  C10 UNK     1      29.318  -7.260  32.879  1.00  0.00     0.026 C 
BRANCH  16  17
HETATM   17  C14 UNK     1      28.750  -5.850  32.735  1.00  0.00    -0.002 C 
HETATM   18  C16 UNK     1      29.686  -4.951  31.945  1.00  0.00     0.005 C 
ENDBRANCH  16  17
ENDBRANCH  15  16
ENDBRANCH  14  15
ENDBRANCH   5  14
BRANCH   7  19
HETATM   19  C11 UNK     1      28.085  -6.330  39.154  1.00  0.00     0.156 C 
BRANCH  19  20
HETATM   20  C17 UNK     1      26.763  -5.769  38.705  1.00  0.00     0.262 C 
HETATM   21  O5  UNK     1      26.388  -4.610  38.818  1.00  0.00    -0.265 OA
BRANCH  20  22
HETATM   22  O4  UNK     1      26.036  -6.793  38.160  1.00  0.00    -0.326 OA
HETATM   23  C18 UNK     1      26.139  -8.050  38.836  1.00  0.00     0.213 C 
ENDBRANCH  20  22
ENDBRANCH  19  20
ENDBRANCH   7  19
TORSDOF 7
ENDMDL
MODEL 5
REMARK VINA RESULT:      -7.2     11.589     13.977
REMARK  7 active torsions:
REMARK  status: ('A' for Active; 'I' for Inactive)
REMARK    1  A    between atoms: C3_8  and  O1_1 
REMARK    2  A    between atoms: C9_14  and  O1_1 
REMARK    3  A    between atoms: C17_22  and  O4_4 
REMARK    4  A    between atoms: C11_16  and  C5_10 
REMARK    5  A    between atoms: C10_15  and  C9_14 
REMARK    6  A    between atoms: C10_15  and  C14_19 
REMARK    7  A    between atoms: C11_16  and  C17_22 
ROOT
HETATM    1  O2  UNK     1      30.831  -3.933  38.292  1.00  0.00    -0.274 OA
HETATM    2  O3  UNK     1      29.360  -4.016  40.016  1.00  0.00    -0.259 OA
HETATM    3  C1  UNK     1      30.694  -5.550  36.480  1.00  0.00     0.038 A 
HETATM    4  C2  UNK     1      29.533  -6.173  37.146  1.00  0.00    -0.033 A 
HETATM    5  C3  UNK     1      31.243  -6.007  35.271  1.00  0.00     0.082 A 
HETATM    6  C4  UNK     1      31.304  -4.450  37.076  1.00  0.00     0.093 A 
HETATM    7  C5  UNK     1      29.109  -5.684  38.332  1.00  0.00     0.034 A 
HETATM    8  C6  UNK     1      32.930  -4.270  35.313  1.00  0.00    -0.057 A 
HETATM    9  C7  UNK     1      32.348  -5.372  34.692  1.00  0.00     0.044 A 
HETATM   10  C8  UNK     1      32.407  -3.803  36.513  1.00  0.00     0.045 A 
HETATM   11  C12 UNK     1      28.815  -7.314  36.469  1.00  0.00     0.050 C 
HETATM   12  C13 UNK     1      29.756  -4.496  38.959  1.00  0.00     0.295 A 
HETATM   13  C15 UNK     1      34.108  -3.596  34.696  1.00  0.00     0.048 C 
ENDROOT
BRANCH   5  14
HETATM   14  O1  UNK     1      30.772  -7.091  34.589  1.00  0.00    -0.350 OA
BRANCH  14  15
HETATM   15  C9  UNK     1      31.717  -8.103  34.253  1.00  0.00     0.175 C 
BRANCH  15  16
HETATM   16  C10 UNK     1      31.699  -9.171  35.339  1.00  0.00     0.026 C 
BRANCH  16  17
HETATM   17  C14 UNK     1      32.599  -8.796  36.513  1.00  0.00    -0.002 C 
HETATM   18  C16 UNK     1      31.862  -8.907  37.837  1.00  0.00     0.005 C 
ENDBRANCH  16  17
ENDBRANCH  15  16
ENDBRANCH  14  15
ENDBRANCH   5  14
BRANCH   7  19
HETATM   19  C11 UNK     1      27.979  -6.269  39.145  1.00  0.00     0.156 C 
BRANCH  19  20
HETATM   20  C17 UNK     1      26.663  -5.680  38.711  1.00  0.00     0.262 C 
HETATM   21  O5  UNK     1      26.350  -4.498  38.743  1.00  0.00    -0.265 OA
BRANCH  20  22
HETATM   22  O4  UNK     1      25.863  -6.706  38.288  1.00  0.00    -0.326 OA
HETATM   23  C18 UNK     1      26.160  -7.990  38.847  1.00  0.00     0.213 C 
ENDBRANCH  20  22
ENDBRANCH  19  20
ENDBRANCH   7  19
TORSDOF 7
ENDMDL
MODEL 6
REMARK VINA RESULT:      -7.0      2.593      6.847
REMARK  7 active torsions:
REMARK  status: ('A' for Active; 'I' for Inactive)
REMARK    1  A    between atoms: C3_8  and  O1_1 
REMARK    2  A    between atoms: C9_14  and  O1_1 
REMARK    3  A    between atoms: C17_22  and  O4_4 
REMARK    4  A    between atoms: C11_16  and  C5_10 
REMARK    5  A    between atoms: C10_15  and  C9_14 
REMARK    6  A    between atoms: C10_15  and  C14_19 
REMARK    7  A    between atoms: C11_16  and  C17_22 
ROOT
HETATM    1  O2  UNK     1      18.761   4.357  29.799  1.00  0.00    -0.274 OA
HETATM    2  O3  UNK     1      18.475   6.560  30.254  1.00  0.00    -0.259 OA
HETATM    3  C1  UNK     1      18.664   2.710  31.585  1.00  0.00     0.038 A 
HETATM    4  C2  UNK     1      18.407   3.797  32.551  1.00  0.00    -0.033 A 
HETATM    5  C3  UNK     1      18.763   1.354  31.939  1.00  0.00     0.082 A 
HETATM    6  C4  UNK     1      18.832   3.027  30.242  1.00  0.00     0.093 A 
HETATM    7  C5  UNK     1      18.374   5.076  32.116  1.00  0.00     0.034 A 
HETATM    8  C6  UNK     1      19.168   0.724  29.637  1.00  0.00    -0.057 A 
HETATM    9  C7  UNK     1      19.011   0.371  30.974  1.00  0.00     0.044 A 
HETATM   10  C8  UNK     1      19.079   2.060  29.264  1.00  0.00     0.045 A 
HETATM   11  C12 UNK     1      18.143   3.457  33.998  1.00  0.00     0.050 C 
HETATM   12  C13 UNK     1      18.540   5.408  30.672  1.00  0.00     0.295 A 
HETATM   13  C15 UNK     1      19.433  -0.325  28.610  1.00  0.00     0.048 C 
ENDROOT
BRANCH   5  14
HETATM   14  O1  UNK     1      18.651   0.897  33.220  1.00  0.00    -0.350 OA
BRANCH  14  15
HETATM   15  C9  UNK     1      18.361  -0.488  33.388  1.00  0.00     0.175 C 
BRANCH  15  16
HETATM   16  C10 UNK     1      17.651  -0.683  34.721  1.00  0.00     0.026 C 
BRANCH  16  17
HETATM   17  C14 UNK     1      16.364   0.134  34.799  1.00  0.00    -0.002 C 
HETATM   18  C16 UNK     1      16.046   0.537  36.229  1.00  0.00     0.005 C 
ENDBRANCH  16  17
ENDBRANCH  15  16
ENDBRANCH  14  15
ENDBRANCH   5  14
BRANCH   7  19
HETATM   19  C11 UNK     1      18.187   6.279  33.008  1.00  0.00     0.156 C 
BRANCH  19  20
HETATM   20  C17 UNK     1      16.721   6.563  33.202  1.00  0.00     0.262 C 
HETATM   21  O5  UNK     1      15.863   6.587  32.331  1.00  0.00    -0.265 OA
BRANCH  20  22
HETATM   22  O4  UNK     1      16.515   6.811  34.532  1.00  0.00    -0.326 OA
HETATM   23  C18 UNK     1      16.719   8.166  34.945  1.00  0.00     0.213 C 
ENDBRANCH  20  22
ENDBRANCH  19  20
ENDBRANCH   7  19
TORSDOF 7
ENDMDL
MODEL 7
REMARK VINA RESULT:      -6.9     24.308     26.777
REMARK  7 active torsions:
REMARK  status: ('A' for Active; 'I' for Inactive)
REMARK    1  A    between atoms: C3_8  and  O1_1 
REMARK    2  A    between atoms: C9_14  and  O1_1 
REMARK    3  A    between atoms: C17_22  and  O4_4 
REMARK    4  A    between atoms: C11_16  and  C5_10 
REMARK    5  A    between atoms: C10_15  and  C9_14 
REMARK    6  A    between atoms: C10_15  and  C14_19 
REMARK    7  A    between atoms: C11_16  and  C17_22 
ROOT
HETATM    1  O2  UNK     1      14.007   5.540   8.045  1.00  0.00    -0.274 OA
HETATM    2  O3  UNK     1      16.061   5.273   8.969  1.00  0.00    -0.259 OA
HETATM    3  C1  UNK     1      12.454   7.177   8.953  1.00  0.00     0.038 A 
HETATM    4  C2  UNK     1      13.464   7.551   9.962  1.00  0.00    -0.033 A 
HETATM    5  C3  UNK     1      11.178   7.757   8.868  1.00  0.00     0.082 A 
HETATM    6  C4  UNK     1      12.760   6.184   8.028  1.00  0.00     0.093 A 
HETATM    7  C5  UNK     1      14.648   6.900   9.988  1.00  0.00     0.034 A 
HETATM    8  C6  UNK     1      10.606   6.362   6.973  1.00  0.00    -0.057 A 
HETATM    9  C7  UNK     1      10.263   7.355   7.887  1.00  0.00     0.044 A 
HETATM   10  C8  UNK     1      11.861   5.770   7.041  1.00  0.00     0.045 A 
HETATM   11  C12 UNK     1      13.173   8.682  10.919  1.00  0.00     0.050 C 
HETATM   12  C13 UNK     1      14.976   5.847   8.984  1.00  0.00     0.295 A 
HETATM   13  C15 UNK     1       9.630   5.934   5.930  1.00  0.00     0.048 C 
ENDROOT
BRANCH   5  14
HETATM   14  O1  UNK     1      10.726   8.719   9.725  1.00  0.00    -0.350 OA
BRANCH  14  15
HETATM   15  C9  UNK     1       9.315   8.899   9.807  1.00  0.00     0.175 C 
BRANCH  15  16
HETATM   16  C10 UNK     1       9.028  10.213  10.521  1.00  0.00     0.026 C 
BRANCH  16  17
HETATM   17  C14 UNK     1      10.214  11.170  10.438  1.00  0.00    -0.002 C 
HETATM   18  C16 UNK     1       9.875  12.410   9.628  1.00  0.00     0.005 C 
ENDBRANCH  16  17
ENDBRANCH  15  16
ENDBRANCH  14  15
ENDBRANCH   5  14
BRANCH   7  19
HETATM   19  C11 UNK     1      15.736   7.141  11.006  1.00  0.00     0.156 C 
BRANCH  19  20
HETATM   20  C17 UNK     1      16.826   7.995  10.415  1.00  0.00     0.262 C 
HETATM   21  O5  UNK     1      17.893   7.602   9.962  1.00  0.00    -0.265 OA
BRANCH  20  22
HETATM   22  O4  UNK     1      16.423   9.300  10.490  1.00  0.00    -0.326 OA
HETATM   23  C18 UNK     1      16.510  10.043   9.269  1.00  0.00     0.213 C 
ENDBRANCH  20  22
ENDBRANCH  19  20
ENDBRANCH   7  19
TORSDOF 7
ENDMDL
MODEL 8
REMARK VINA RESULT:      -6.9      6.306     11.898
REMARK  7 active torsions:
REMARK  status: ('A' for Active; 'I' for Inactive)
REMARK    1  A    between atoms: C3_8  and  O1_1 
REMARK    2  A    between atoms: C9_14  and  O1_1 
REMARK    3  A    between atoms: C17_22  and  O4_4 
REMARK    4  A    between atoms: C11_16  and  C5_10 
REMARK    5  A    between atoms: C10_15  and  C9_14 
REMARK    6  A    between atoms: C10_15  and  C14_19 
REMARK    7  A    between atoms: C11_16  and  C17_22 
ROOT
HETATM    1  O2  UNK     1      20.404  -9.707  36.097  1.00  0.00    -0.274 OA
HETATM    2  O3  UNK     1      18.512  -8.476  36.304  1.00  0.00    -0.259 OA
HETATM    3  C1  UNK     1      22.512  -8.882  36.987  1.00  0.00     0.038 A 
HETATM    4  C2  UNK     1      21.817  -7.668  37.460  1.00  0.00    -0.033 A 
HETATM    5  C3  UNK     1      23.887  -9.115  37.156  1.00  0.00     0.082 A 
HETATM    6  C4  UNK     1      21.781  -9.861  36.322  1.00  0.00     0.093 A 
HETATM    7  C5  UNK     1      20.499  -7.518  37.208  1.00  0.00     0.034 A 
HETATM    8  C6  UNK     1      23.723 -11.249  36.024  1.00  0.00    -0.057 A 
HETATM    9  C7  UNK     1      24.486 -10.287  36.681  1.00  0.00     0.044 A 
HETATM   10  C8  UNK     1      22.361 -11.038  35.841  1.00  0.00     0.045 A 
HETATM   11  C12 UNK     1      22.583  -6.637  38.253  1.00  0.00     0.050 C 
HETATM   12  C13 UNK     1      19.717  -8.578  36.508  1.00  0.00     0.295 A 
HETATM   13  C15 UNK     1      24.363 -12.497  35.518  1.00  0.00     0.048 C 
ENDROOT
BRANCH   5  14
HETATM   14  O1  UNK     1      24.734  -8.232  37.760  1.00  0.00    -0.350 OA
BRANCH  14  15
HETATM   15  C9  UNK     1      26.127  -8.526  37.694  1.00  0.00     0.175 C 
BRANCH  15  16
HETATM   16  C10 UNK     1      26.830  -7.843  38.859  1.00  0.00     0.026 C 
BRANCH  16  17
HETATM   17  C14 UNK     1      27.578  -8.847  39.733  1.00  0.00    -0.002 C 
HETATM   18  C16 UNK     1      27.218 -10.278  39.370  1.00  0.00     0.005 C 
ENDBRANCH  16  17
ENDBRANCH  15  16
ENDBRANCH  14  15
ENDBRANCH   5  14
BRANCH   7  19
HETATM   19  C11 UNK     1      19.688  -6.300  37.579  1.00  0.00     0.156 C 
BRANCH  19  20
HETATM   20  C17 UNK     1      19.985  -5.167  36.633  1.00  0.00     0.262 C 
HETATM   21  O5  UNK     1      20.136  -5.251  35.421  1.00  0.00    -0.265 OA
BRANCH  20  22
HETATM   22  O4  UNK     1      20.076  -4.018  37.370  1.00  0.00    -0.326 OA
HETATM   23  C18 UNK     1      20.282  -2.818  36.618  1.00  0.00     0.213 C 
ENDBRANCH  20  22
ENDBRANCH  19  20
ENDBRANCH   7  19
TORSDOF 7
ENDMDL
MODEL 9
REMARK VINA RESULT:      -6.9      2.822      7.495
REMARK  7 active torsions:
REMARK  status: ('A' for Active; 'I' for Inactive)
REMARK    1  A    between atoms: C3_8  and  O1_1 
REMARK    2  A    between atoms: C9_14  and  O1_1 
REMARK    3  A    between atoms: C17_22  and  O4_4 
REMARK    4  A    between atoms: C11_16  and  C5_10 
REMARK    5  A    between atoms: C10_15  and  C9_14 
REMARK    6  A    between atoms: C10_15  and  C14_19 
REMARK    7  A    between atoms: C11_16  and  C17_22 
ROOT
HETATM    1  O2  UNK     1      18.842   3.884  30.203  1.00  0.00    -0.274 OA
HETATM    2  O3  UNK     1      18.701   6.047  29.538  1.00  0.00    -0.259 OA
HETATM    3  C1  UNK     1      18.394   3.277  32.515  1.00  0.00     0.038 A 
HETATM    4  C2  UNK     1      18.125   4.697  32.818  1.00  0.00    -0.033 A 
HETATM    5  C3  UNK     1      18.332   2.246  33.467  1.00  0.00     0.082 A 
HETATM    6  C4  UNK     1      18.743   2.919  31.217  1.00  0.00     0.093 A 
HETATM    7  C5  UNK     1      18.255   5.619  31.840  1.00  0.00     0.034 A 
HETATM    8  C6  UNK     1      18.942   0.595  31.805  1.00  0.00    -0.057 A 
HETATM    9  C7  UNK     1      18.602   0.918  33.115  1.00  0.00     0.044 A 
HETATM   10  C8  UNK     1      19.015   1.599  30.846  1.00  0.00     0.045 A 
HETATM   11  C12 UNK     1      17.667   5.085  34.203  1.00  0.00     0.050 C 
HETATM   12  C13 UNK     1      18.615   5.228  30.447  1.00  0.00     0.295 A 
HETATM   13  C15 UNK     1      19.230  -0.820  31.432  1.00  0.00     0.048 C 
ENDROOT
BRANCH   5  14
HETATM   14  O1  UNK     1      18.033   2.450  34.783  1.00  0.00    -0.350 OA
BRANCH  14  15
HETATM   15  C9  UNK     1      18.712   1.632  35.733  1.00  0.00     0.175 C 
BRANCH  15  16
HETATM   16  C10 UNK     1      17.931   1.645  37.040  1.00  0.00     0.026 C 
BRANCH  16  17
HETATM   17  C14 UNK     1      17.621   0.232  37.526  1.00  0.00    -0.002 C 
HETATM   18  C16 UNK     1      17.670  -0.772  36.385  1.00  0.00     0.005 C 
ENDBRANCH  16  17
ENDBRANCH  15  16
ENDBRANCH  14  15
ENDBRANCH   5  14
BRANCH   7  19
HETATM   19  C11 UNK     1      18.074   7.105  32.035  1.00  0.00     0.156 C 
BRANCH  19  20
HETATM   20  C17 UNK     1      16.706   7.530  31.571  1.00  0.00     0.262 C 
HETATM   21  O5  UNK     1      16.455   8.325  30.675  1.00  0.00    -0.265 OA
BRANCH  20  22
HETATM   22  O4  UNK     1      15.782   6.882  32.345  1.00  0.00    -0.326 OA
HETATM   23  C18 UNK     1      14.413   7.148  32.022  1.00  0.00     0.213 C 
ENDBRANCH  20  22
ENDBRANCH  19  20
ENDBRANCH   7  19
TORSDOF 7
ENDMDL
MODEL 10
REMARK VINA RESULT:      -6.8     14.792     19.476
REMARK  7 active torsions:
REMARK  status: ('A' for Active; 'I' for Inactive)
REMARK    1  A    between atoms: C3_8  and  O1_1 
REMARK    2  A    between atoms: C9_14  and  O1_1 
REMARK    3  A    between atoms: C17_22  and  O4_4 
REMARK    4  A    between atoms: C11_16  and  C5_10 
REMARK    5  A    between atoms: C10_15  and  C9_14 
REMARK    6  A    between atoms: C10_15  and  C14_19 
REMARK    7  A    between atoms: C11_16  and  C17_22 
ROOT
HETATM    1  O2  UNK     1      19.951  -0.242  13.809  1.00  0.00    -0.274 OA
HETATM    2  O3  UNK     1      19.669   1.191  15.544  1.00  0.00    -0.259 OA
HETATM    3  C1  UNK     1      19.010  -2.483  13.899  1.00  0.00     0.038 A 
HETATM    4  C2  UNK     1      18.464  -2.181  15.237  1.00  0.00    -0.033 A 
HETATM    5  C3  UNK     1      18.855  -3.718  13.248  1.00  0.00     0.082 A 
HETATM    6  C4  UNK     1      19.735  -1.502  13.230  1.00  0.00     0.093 A 
HETATM    7  C5  UNK     1      18.706  -0.976  15.796  1.00  0.00     0.034 A 
HETATM    8  C6  UNK     1      20.116  -2.934  11.336  1.00  0.00    -0.057 A 
HETATM    9  C7  UNK     1      19.402  -3.941  11.979  1.00  0.00     0.044 A 
HETATM   10  C8  UNK     1      20.287  -1.705  11.963  1.00  0.00     0.045 A 
HETATM   11  C12 UNK     1      17.607  -3.209  15.937  1.00  0.00     0.050 C 
HETATM   12  C13 UNK     1      19.471   0.077  15.068  1.00  0.00     0.295 A 
HETATM   13  C15 UNK     1      20.699  -3.174   9.984  1.00  0.00     0.048 C 
ENDROOT
BRANCH   5  14
HETATM   14  O1  UNK     1      18.197  -4.782  13.793  1.00  0.00    -0.350 OA
BRANCH  14  15
HETATM   15  C9  UNK     1      18.924  -6.002  13.906  1.00  0.00     0.175 C 
BRANCH  15  16
HETATM   16  C10 UNK     1      19.484  -6.112  15.318  1.00  0.00     0.026 C 
BRANCH  16  17
HETATM   17  C14 UNK     1      20.992  -5.881  15.346  1.00  0.00    -0.002 C 
HETATM   18  C16 UNK     1      21.336  -4.520  15.927  1.00  0.00     0.005 C 
ENDBRANCH  16  17
ENDBRANCH  15  16
ENDBRANCH  14  15
ENDBRANCH   5  14
BRANCH   7  19
HETATM   19  C11 UNK     1      18.261  -0.568  17.180  1.00  0.00     0.156 C 
BRANCH  19  20
HETATM   20  C17 UNK     1      19.335  -0.881  18.188  1.00  0.00     0.262 C 
HETATM   21  O5  UNK     1      20.427  -1.382  17.956  1.00  0.00    -0.265 OA
BRANCH  20  22
HETATM   22  O4  UNK     1      18.868  -0.522  19.422  1.00  0.00    -0.326 OA
HETATM   23  C18 UNK     1      19.671   0.424  20.135  1.00  0.00     0.213 C 
ENDBRANCH  20  22
ENDBRANCH  19  20
ENDBRANCH   7  19
TORSDOF 7
ENDMDL
