MODEL 1
REMARK VINA RESULT:      -9.2      0.000      0.000
REMARK  5 active torsions:
REMARK  status: ('A' for Active; 'I' for Inactive)
REMARK    1  A    between atoms: C13_19  and  O2_2 
REMARK    2  A    between atoms: C5_11  and  O2_2 
REMARK    3  A    between atoms: C7_13  and  N1_5 
REMARK       I    between atoms: C8_14  and  N1_5 
REMARK    4  A    between atoms: C3_9  and  C8_14 
REMARK    5  A    between atoms: C12_18  and  C7_13 
ROOT
HETATM    1  O1  UNK     1      18.886   0.409  32.284  1.00  0.00    -0.271 OA
HETATM    2  O4  UNK     1      17.974   2.496  32.467  1.00  0.00    -0.259 OA
HETATM    3  C1  UNK     1      19.930  -0.266  30.195  1.00  0.00     0.002 A 
HETATM    4  C2  UNK     1      19.563  -0.550  31.506  1.00  0.00     0.123 A 
HETATM    5  C3  UNK     1      18.961   1.947  30.384  1.00  0.00     0.108 A 
HETATM    6  C4  UNK     1      19.603   1.038  29.640  1.00  0.00     0.037 A 
HETATM    7  C5  UNK     1      19.844  -1.781  32.096  1.00  0.00     0.103 A 
HETATM    8  C6  UNK     1      20.599  -1.243  29.454  1.00  0.00     0.014 A 
HETATM    9  C9  UNK     1      18.562   1.666  31.782  1.00  0.00     0.304 A 
HETATM   10  C10 UNK     1      20.513  -2.751  31.351  1.00  0.00     0.040 A 
HETATM   11  C11 UNK     1      20.889  -2.482  30.034  1.00  0.00     0.004 A 
ENDROOT
BRANCH   5  12
HETATM   12  C8  UNK     1      18.677   3.233  29.736  1.00  0.00     0.258 C 
HETATM   13  O3  UNK     1      18.079   3.281  28.663  1.00  0.00    -0.267 OA
HETATM   14  N1  UNK     1      19.152   4.314  30.456  1.00  0.00    -0.352 N 
HETATM   15  H7  UNK     1      19.650   4.169  31.329  1.00  0.00     0.163 HD
BRANCH  14  16
HETATM   16  C7  UNK     1      18.993   5.683  30.019  1.00  0.00     0.162 C 
BRANCH  16  17
HETATM   17  C12 UNK     1      18.563   6.585  31.140  1.00  0.00    -0.023 A 
HETATM   18  C14 UNK     1      19.330   6.695  32.286  1.00  0.00     0.012 A 
HETATM   19  C17 UNK     1      18.906   7.540  33.306  1.00  0.00     0.020 A 
HETATM   20  C18 UNK     1      17.723   8.237  33.122  1.00  0.00     0.116 A 
HETATM   21  N2  UNK     1      16.956   8.147  32.013  1.00  0.00    -0.273 NA
HETATM   22  C15 UNK     1      17.399   7.317  31.042  1.00  0.00     0.124 A 
ENDBRANCH  16  17
ENDBRANCH  14  16
ENDBRANCH   5  12
BRANCH   7  23
HETATM   23  O2  UNK     1      19.480  -2.046  33.379  1.00  0.00    -0.349 OA
BRANCH  23  24
HETATM   24  C13 UNK     1      20.494  -2.537  34.256  1.00  0.00     0.171 C 
HETATM   25  C16 UNK     1      20.148  -2.150  35.677  1.00  0.00     0.034 C 
ENDBRANCH  23  24
ENDBRANCH   7  23
TORSDOF 5
ENDMDL
MODEL 2
REMARK VINA RESULT:      -8.6      4.157      9.178
REMARK  5 active torsions:
REMARK  status: ('A' for Active; 'I' for Inactive)
REMARK    1  A    between atoms: C13_19  and  O2_2 
REMARK    2  A    between atoms: C5_11  and  O2_2 
REMARK    3  A    between atoms: C7_13  and  N1_5 
REMARK       I    between atoms: C8_14  and  N1_5 
REMARK    4  A    between atoms: C3_9  and  C8_14 
REMARK    5  A    between atoms: C12_18  and  C7_13 
ROOT
HETATM    1  O1  UNK     1      18.813  -0.041  32.793  1.00  0.00    -0.271 OA
HETATM    2  O4  UNK     1      18.544  -0.350  35.041  1.00  0.00    -0.259 OA
HETATM    3  C1  UNK     1      20.266  -1.535  31.540  1.00  0.00     0.002 A 
HETATM    4  C2  UNK     1      19.403  -0.445  31.579  1.00  0.00     0.123 A 
HETATM    5  C3  UNK     1      19.986  -1.864  33.925  1.00  0.00     0.108 A 
HETATM    6  C4  UNK     1      20.550  -2.251  32.775  1.00  0.00     0.037 A 
HETATM    7  C5  UNK     1      19.090   0.285  30.434  1.00  0.00     0.103 A 
HETATM    8  C6  UNK     1      20.832  -1.904  30.318  1.00  0.00     0.014 A 
HETATM    9  C9  UNK     1      19.063  -0.707  33.989  1.00  0.00     0.304 A 
HETATM   10  C10 UNK     1      19.659  -0.090  29.218  1.00  0.00     0.040 A 
HETATM   11  C11 UNK     1      20.527  -1.182  29.160  1.00  0.00     0.004 A 
ENDROOT
BRANCH   5  12
HETATM   12  C8  UNK     1      20.333  -2.650  35.114  1.00  0.00     0.258 C 
HETATM   13  O3  UNK     1      21.454  -2.577  35.614  1.00  0.00    -0.267 OA
HETATM   14  N1  UNK     1      19.288  -3.437  35.563  1.00  0.00    -0.352 N 
HETATM   15  H7  UNK     1      18.401  -3.439  35.070  1.00  0.00     0.163 HD
BRANCH  14  16
HETATM   16  C7  UNK     1      19.391  -4.300  36.718  1.00  0.00     0.162 C 
BRANCH  16  17
HETATM   17  C12 UNK     1      20.045  -5.610  36.386  1.00  0.00    -0.023 A 
HETATM   18  C14 UNK     1      19.691  -6.301  35.241  1.00  0.00     0.012 A 
HETATM   19  C17 UNK     1      20.315  -7.511  34.959  1.00  0.00     0.020 A 
HETATM   20  C18 UNK     1      21.273  -7.970  35.850  1.00  0.00     0.116 A 
HETATM   21  N2  UNK     1      21.636  -7.315  36.975  1.00  0.00    -0.273 NA
HETATM   22  C15 UNK     1      21.009  -6.142  37.215  1.00  0.00     0.124 A 
ENDBRANCH  16  17
ENDBRANCH  14  16
ENDBRANCH   5  12
BRANCH   7  23
HETATM   23  O2  UNK     1      18.245   1.349  30.485  1.00  0.00    -0.349 OA
BRANCH  23  24
HETATM   24  C13 UNK     1      18.385   2.341  29.468  1.00  0.00     0.171 C 
HETATM   25  C16 UNK     1      18.786   3.652  30.110  1.00  0.00     0.034 C 
ENDBRANCH  23  24
ENDBRANCH   7  23
TORSDOF 5
ENDMDL
MODEL 3
REMARK VINA RESULT:      -8.6     15.401     17.803
REMARK  5 active torsions:
REMARK  status: ('A' for Active; 'I' for Inactive)
REMARK    1  A    between atoms: C13_19  and  O2_2 
REMARK    2  A    between atoms: C5_11  and  O2_2 
REMARK    3  A    between atoms: C7_13  and  N1_5 
REMARK       I    between atoms: C8_14  and  N1_5 
REMARK    4  A    between atoms: C3_9  and  C8_14 
REMARK    5  A    between atoms: C12_18  and  C7_13 
ROOT
HETATM    1  O1  UNK     1      19.620  -1.714  12.880  1.00  0.00    -0.271 OA
HETATM    2  O4  UNK     1      19.411  -0.011  14.389  1.00  0.00    -0.259 OA
HETATM    3  C1  UNK     1      18.845  -3.942  13.468  1.00  0.00     0.002 A 
HETATM    4  C2  UNK     1      19.428  -3.071  12.554  1.00  0.00     0.123 A 
HETATM    5  C3  UNK     1      18.623  -2.139  15.072  1.00  0.00     0.108 A 
HETATM    6  C4  UNK     1      18.439  -3.429  14.768  1.00  0.00     0.037 A 
HETATM    7  C5  UNK     1      19.840  -3.498  11.293  1.00  0.00     0.103 A 
HETATM    8  C6  UNK     1      18.671  -5.280  13.109  1.00  0.00     0.014 A 
HETATM    9  C9  UNK     1      19.241  -1.194  14.114  1.00  0.00     0.304 A 
HETATM   10  C10 UNK     1      19.663  -4.835  10.942  1.00  0.00     0.040 A 
HETATM   11  C11 UNK     1      19.080  -5.724  11.847  1.00  0.00     0.004 A 
ENDROOT
BRANCH   5  12
HETATM   12  C8  UNK     1      18.180  -1.718  16.406  1.00  0.00     0.258 C 
HETATM   13  O3  UNK     1      17.050  -1.984  16.810  1.00  0.00    -0.267 OA
HETATM   14  N1  UNK     1      19.152  -1.019  17.100  1.00  0.00    -0.352 N 
HETATM   15  H7  UNK     1      20.054  -0.836  16.672  1.00  0.00     0.163 HD
BRANCH  14  16
HETATM   16  C7  UNK     1      18.949  -0.501  18.434  1.00  0.00     0.162 C 
BRANCH  16  17
HETATM   17  C12 UNK     1      19.251   0.967  18.519  1.00  0.00    -0.023 A 
HETATM   18  C14 UNK     1      19.154   1.770  17.396  1.00  0.00     0.012 A 
HETATM   19  C17 UNK     1      19.439   3.127  17.506  1.00  0.00     0.020 A 
HETATM   20  C18 UNK     1      19.811   3.613  18.750  1.00  0.00     0.116 A 
HETATM   21  N2  UNK     1      19.914   2.851  19.861  1.00  0.00    -0.273 NA
HETATM   22  C15 UNK     1      19.628   1.537  19.716  1.00  0.00     0.124 A 
ENDBRANCH  16  17
ENDBRANCH  14  16
ENDBRANCH   5  12
BRANCH   7  23
HETATM   23  O2  UNK     1      20.409  -2.636  10.408  1.00  0.00    -0.349 OA
BRANCH  23  24
HETATM   24  C13 UNK     1      20.770  -3.160   9.130  1.00  0.00     0.171 C 
HETATM   25  C16 UNK     1      22.210  -2.797   8.838  1.00  0.00     0.034 C 
ENDBRANCH  23  24
ENDBRANCH   7  23
TORSDOF 5
ENDMDL
MODEL 4
REMARK VINA RESULT:      -8.4      2.462      4.012
REMARK  5 active torsions:
REMARK  status: ('A' for Active; 'I' for Inactive)
REMARK    1  A    between atoms: C13_19  and  O2_2 
REMARK    2  A    between atoms: C5_11  and  O2_2 
REMARK    3  A    between atoms: C7_13  and  N1_5 
REMARK       I    between atoms: C8_14  and  N1_5 
REMARK    4  A    between atoms: C3_9  and  C8_14 
REMARK    5  A    between atoms: C12_18  and  C7_13 
ROOT
HETATM    1  O1  UNK     1      18.669  -0.231  33.981  1.00  0.00    -0.271 OA
HETATM    2  O4  UNK     1      18.937   0.256  31.764  1.00  0.00    -0.259 OA
HETATM    3  C1  UNK     1      17.915   1.503  35.509  1.00  0.00     0.002 A 
HETATM    4  C2  UNK     1      18.317   0.191  35.277  1.00  0.00     0.123 A 
HETATM    5  C3  UNK     1      18.200   2.023  33.159  1.00  0.00     0.108 A 
HETATM    6  C4  UNK     1      17.865   2.431  34.389  1.00  0.00     0.037 A 
HETATM    7  C5  UNK     1      18.388  -0.746  36.305  1.00  0.00     0.103 A 
HETATM    8  C6  UNK     1      17.574   1.885  36.808  1.00  0.00     0.014 A 
HETATM    9  C9  UNK     1      18.630   0.633  32.890  1.00  0.00     0.304 A 
HETATM   10  C10 UNK     1      18.046  -0.357  37.600  1.00  0.00     0.040 A 
HETATM   11  C11 UNK     1      17.640   0.954  37.850  1.00  0.00     0.004 A 
ENDROOT
BRANCH   5  12
HETATM   12  C8  UNK     1      18.116   3.033  32.097  1.00  0.00     0.258 C 
HETATM   13  O3  UNK     1      17.586   2.772  31.019  1.00  0.00    -0.267 OA
HETATM   14  N1  UNK     1      18.685   4.241  32.457  1.00  0.00    -0.352 N 
HETATM   15  H7  UNK     1      19.114   4.353  33.371  1.00  0.00     0.163 HD
BRANCH  14  16
HETATM   16  C7  UNK     1      18.726   5.387  31.577  1.00  0.00     0.162 C 
BRANCH  16  17
HETATM   17  C12 UNK     1      17.624   6.363  31.874  1.00  0.00    -0.023 A 
HETATM   18  C14 UNK     1      16.945   6.310  33.077  1.00  0.00     0.012 A 
HETATM   19  C17 UNK     1      15.929   7.228  33.324  1.00  0.00     0.020 A 
HETATM   20  C18 UNK     1      15.645   8.162  32.339  1.00  0.00     0.116 A 
HETATM   21  N2  UNK     1      16.294   8.234  31.155  1.00  0.00    -0.273 NA
HETATM   22  C15 UNK     1      17.275   7.326  30.951  1.00  0.00     0.124 A 
ENDBRANCH  16  17
ENDBRANCH  14  16
ENDBRANCH   5  12
BRANCH   7  23
HETATM   23  O2  UNK     1      18.783  -2.026  36.066  1.00  0.00    -0.349 OA
BRANCH  23  24
HETATM   24  C13 UNK     1      20.141  -2.353  36.360  1.00  0.00     0.171 C 
HETATM   25  C16 UNK     1      20.186  -3.703  37.042  1.00  0.00     0.034 C 
ENDBRANCH  23  24
ENDBRANCH   7  23
TORSDOF 5
ENDMDL
MODEL 5
REMARK VINA RESULT:      -8.1      5.200     10.681
REMARK  5 active torsions:
REMARK  status: ('A' for Active; 'I' for Inactive)
REMARK    1  A    between atoms: C13_19  and  O2_2 
REMARK    2  A    between atoms: C5_11  and  O2_2 
REMARK    3  A    between atoms: C7_13  and  N1_5 
REMARK       I    between atoms: C8_14  and  N1_5 
REMARK    4  A    between atoms: C3_9  and  C8_14 
REMARK    5  A    between atoms: C12_18  and  C7_13 
ROOT
HETATM    1  O1  UNK     1      19.539  -1.014  35.050  1.00  0.00    -0.271 OA
HETATM    2  O4  UNK     1      20.488  -3.026  34.529  1.00  0.00    -0.259 OA
HETATM    3  C1  UNK     1      18.326  -0.764  37.142  1.00  0.00     0.002 A 
HETATM    4  C2  UNK     1      18.793  -0.225  35.948  1.00  0.00     0.123 A 
HETATM    5  C3  UNK     1      19.329  -2.900  36.592  1.00  0.00     0.108 A 
HETATM    6  C4  UNK     1      18.619  -2.156  37.448  1.00  0.00     0.037 A 
HETATM    7  C5  UNK     1      18.546   1.099  35.594  1.00  0.00     0.103 A 
HETATM    8  C6  UNK     1      17.589   0.049  38.007  1.00  0.00     0.014 A 
HETATM    9  C9  UNK     1      19.837  -2.347  35.316  1.00  0.00     0.304 A 
HETATM   10  C10 UNK     1      17.810   1.904  36.462  1.00  0.00     0.040 A 
HETATM   11  C11 UNK     1      17.334   1.381  37.665  1.00  0.00     0.004 A 
ENDROOT
BRANCH   5  12
HETATM   12  C8  UNK     1      19.574  -4.292  36.991  1.00  0.00     0.258 C 
HETATM   13  O3  UNK     1      20.618  -4.613  37.554  1.00  0.00    -0.267 OA
HETATM   14  N1  UNK     1      18.530  -5.137  36.661  1.00  0.00    -0.352 N 
HETATM   15  H7  UNK     1      17.711  -4.776  36.180  1.00  0.00     0.163 HD
BRANCH  14  16
HETATM   16  C7  UNK     1      18.540  -6.552  36.951  1.00  0.00     0.162 C 
BRANCH  16  17
HETATM   17  C12 UNK     1      19.554  -7.289  36.124  1.00  0.00    -0.023 A 
HETATM   18  C14 UNK     1      20.238  -8.369  36.650  1.00  0.00     0.012 A 
HETATM   19  C17 UNK     1      21.170  -9.033  35.860  1.00  0.00     0.020 A 
HETATM   20  C18 UNK     1      21.370  -8.572  34.568  1.00  0.00     0.116 A 
HETATM   21  N2  UNK     1      20.716  -7.518  34.030  1.00  0.00    -0.273 NA
HETATM   22  C15 UNK     1      19.817  -6.899  34.828  1.00  0.00     0.124 A 
ENDBRANCH  16  17
ENDBRANCH  14  16
ENDBRANCH   5  12
BRANCH   7  23
HETATM   23  O2  UNK     1      19.008   1.614  34.423  1.00  0.00    -0.349 OA
BRANCH  23  24
HETATM   24  C13 UNK     1      18.034   2.043  33.471  1.00  0.00     0.171 C 
HETATM   25  C16 UNK     1      18.230   3.518  33.197  1.00  0.00     0.034 C 
ENDBRANCH  23  24
ENDBRANCH   7  23
TORSDOF 5
ENDMDL
MODEL 6
REMARK VINA RESULT:      -8.1      3.878      8.951
REMARK  5 active torsions:
REMARK  status: ('A' for Active; 'I' for Inactive)
REMARK    1  A    between atoms: C13_19  and  O2_2 
REMARK    2  A    between atoms: C5_11  and  O2_2 
REMARK    3  A    between atoms: C7_13  and  N1_5 
REMARK       I    between atoms: C8_14  and  N1_5 
REMARK    4  A    between atoms: C3_9  and  C8_14 
REMARK    5  A    between atoms: C12_18  and  C7_13 
ROOT
HETATM    1  O1  UNK     1      16.860   7.857  32.941  1.00  0.00    -0.271 OA
HETATM    2  O4  UNK     1      15.836   5.969  32.163  1.00  0.00    -0.259 OA
HETATM    3  C1  UNK     1      19.181   7.756  33.658  1.00  0.00     0.002 A 
HETATM    4  C2  UNK     1      18.012   8.483  33.457  1.00  0.00     0.123 A 
HETATM    5  C3  UNK     1      18.097   5.751  32.835  1.00  0.00     0.108 A 
HETATM    6  C4  UNK     1      19.194   6.340  33.327  1.00  0.00     0.037 A 
HETATM    7  C5  UNK     1      17.932   9.841  33.756  1.00  0.00     0.103 A 
HETATM    8  C6  UNK     1      20.302   8.411  34.172  1.00  0.00     0.014 A 
HETATM    9  C9  UNK     1      16.843   6.505  32.613  1.00  0.00     0.304 A 
HETATM   10  C10 UNK     1      19.055  10.488  34.268  1.00  0.00     0.040 A 
HETATM   11  C11 UNK     1      20.237   9.775  34.475  1.00  0.00     0.004 A 
ENDROOT
BRANCH   5  12
HETATM   12  C8  UNK     1      18.211   4.319  32.532  1.00  0.00     0.258 C 
HETATM   13  O3  UNK     1      18.424   3.932  31.385  1.00  0.00    -0.267 OA
HETATM   14  N1  UNK     1      18.050   3.518  33.648  1.00  0.00    -0.352 N 
HETATM   15  H7  UNK     1      17.861   3.935  34.554  1.00  0.00     0.163 HD
BRANCH  14  16
HETATM   16  C7  UNK     1      18.118   2.076  33.599  1.00  0.00     0.162 C 
BRANCH  16  17
HETATM   17  C12 UNK     1      17.890   1.456  34.948  1.00  0.00    -0.023 A 
HETATM   18  C14 UNK     1      17.141   0.299  35.071  1.00  0.00     0.012 A 
HETATM   19  C17 UNK     1      16.948  -0.252  36.332  1.00  0.00     0.020 A 
HETATM   20  C18 UNK     1      17.521   0.392  37.418  1.00  0.00     0.116 A 
HETATM   21  N2  UNK     1      18.256   1.523  37.324  1.00  0.00    -0.273 NA
HETATM   22  C15 UNK     1      18.423   2.030  36.082  1.00  0.00     0.124 A 
ENDBRANCH  16  17
ENDBRANCH  14  16
ENDBRANCH   5  12
BRANCH   7  23
HETATM   23  O2  UNK     1      16.782  10.540  33.555  1.00  0.00    -0.349 OA
BRANCH  23  24
HETATM   24  C13 UNK     1      16.069  10.966  34.716  1.00  0.00     0.171 C 
HETATM   25  C16 UNK     1      14.869  10.066  34.915  1.00  0.00     0.034 C 
ENDBRANCH  23  24
ENDBRANCH   7  23
TORSDOF 5
ENDMDL
MODEL 7
REMARK VINA RESULT:      -8.1      5.329     10.787
REMARK  5 active torsions:
REMARK  status: ('A' for Active; 'I' for Inactive)
REMARK    1  A    between atoms: C13_19  and  O2_2 
REMARK    2  A    between atoms: C5_11  and  O2_2 
REMARK    3  A    between atoms: C7_13  and  N1_5 
REMARK       I    between atoms: C8_14  and  N1_5 
REMARK    4  A    between atoms: C3_9  and  C8_14 
REMARK    5  A    between atoms: C12_18  and  C7_13 
ROOT
HETATM    1  O1  UNK     1      19.651  -0.968  34.859  1.00  0.00    -0.271 OA
HETATM    2  O4  UNK     1      20.613  -2.835  33.960  1.00  0.00    -0.259 OA
HETATM    3  C1  UNK     1      18.481  -1.124  36.984  1.00  0.00     0.002 A 
HETATM    4  C2  UNK     1      18.915  -0.369  35.900  1.00  0.00     0.123 A 
HETATM    5  C3  UNK     1      19.498  -3.107  36.033  1.00  0.00     0.108 A 
HETATM    6  C4  UNK     1      18.797  -2.543  37.024  1.00  0.00     0.037 A 
HETATM    7  C5  UNK     1      18.644   0.994  35.799  1.00  0.00     0.103 A 
HETATM    8  C6  UNK     1      17.753  -0.495  37.997  1.00  0.00     0.014 A 
HETATM    9  C9  UNK     1      19.971  -2.322  34.870  1.00  0.00     0.304 A 
HETATM   10  C10 UNK     1      17.917   1.615  36.814  1.00  0.00     0.040 A 
HETATM   11  C11 UNK     1      17.474   0.873  37.910  1.00  0.00     0.004 A 
ENDROOT
BRANCH   5  12
HETATM   12  C8  UNK     1      19.768  -4.544  36.166  1.00  0.00     0.258 C 
HETATM   13  O3  UNK     1      20.233  -5.188  35.228  1.00  0.00    -0.267 OA
HETATM   14  N1  UNK     1      19.442  -5.039  37.415  1.00  0.00    -0.352 N 
HETATM   15  H7  UNK     1      19.047  -4.426  38.122  1.00  0.00     0.163 HD
BRANCH  14  16
HETATM   16  C7  UNK     1      19.618  -6.425  37.784  1.00  0.00     0.162 C 
BRANCH  16  17
HETATM   17  C12 UNK     1      20.953  -6.673  38.423  1.00  0.00    -0.023 A 
HETATM   18  C14 UNK     1      21.160  -7.794  39.207  1.00  0.00     0.012 A 
HETATM   19  C17 UNK     1      22.408  -7.997  39.785  1.00  0.00     0.020 A 
HETATM   20  C18 UNK     1      23.396  -7.054  39.545  1.00  0.00     0.116 A 
HETATM   21  N2  UNK     1      23.220  -5.951  38.785  1.00  0.00    -0.273 NA
HETATM   22  C15 UNK     1      21.994  -5.787  38.238  1.00  0.00     0.124 A 
ENDBRANCH  16  17
ENDBRANCH  14  16
ENDBRANCH   5  12
BRANCH   7  23
HETATM   23  O2  UNK     1      19.074   1.721  34.734  1.00  0.00    -0.349 OA
BRANCH  23  24
HETATM   24  C13 UNK     1      18.084   2.168  33.808  1.00  0.00     0.171 C 
HETATM   25  C16 UNK     1      18.273   3.649  33.560  1.00  0.00     0.034 C 
ENDBRANCH  23  24
ENDBRANCH   7  23
TORSDOF 5
ENDMDL
MODEL 8
REMARK VINA RESULT:      -8.0      5.797      9.754
REMARK  5 active torsions:
REMARK  status: ('A' for Active; 'I' for Inactive)
REMARK    1  A    between atoms: C13_19  and  O2_2 
REMARK    2  A    between atoms: C5_11  and  O2_2 
REMARK    3  A    between atoms: C7_13  and  N1_5 
REMARK       I    between atoms: C8_14  and  N1_5 
REMARK    4  A    between atoms: C3_9  and  C8_14 
REMARK    5  A    between atoms: C12_18  and  C7_13 
ROOT
HETATM    1  O1  UNK     1      20.163  -7.576  35.986  1.00  0.00    -0.271 OA
HETATM    2  O4  UNK     1      20.232  -5.746  34.619  1.00  0.00    -0.259 OA
HETATM    3  C1  UNK     1      20.070  -7.271  38.396  1.00  0.00     0.002 A 
HETATM    4  C2  UNK     1      20.106  -8.110  37.288  1.00  0.00     0.123 A 
HETATM    5  C3  UNK     1      20.145  -5.328  36.950  1.00  0.00     0.108 A 
HETATM    6  C4  UNK     1      20.093  -5.831  38.189  1.00  0.00     0.037 A 
HETATM    7  C5  UNK     1      20.089  -9.497  37.417  1.00  0.00     0.103 A 
HETATM    8  C6  UNK     1      20.015  -7.838  39.671  1.00  0.00     0.014 A 
HETATM    9  C9  UNK     1      20.184  -6.203  35.756  1.00  0.00     0.304 A 
HETATM   10  C10 UNK     1      20.033 -10.056  38.693  1.00  0.00     0.040 A 
HETATM   11  C11 UNK     1      19.996  -9.229  39.817  1.00  0.00     0.004 A 
ENDROOT
BRANCH   5  12
HETATM   12  C8  UNK     1      20.163  -3.864  36.844  1.00  0.00     0.258 C 
HETATM   13  O3  UNK     1      20.857  -3.185  37.597  1.00  0.00    -0.267 OA
HETATM   14  N1  UNK     1      19.338  -3.388  35.841  1.00  0.00    -0.352 N 
HETATM   15  H7  UNK     1      18.790  -4.032  35.279  1.00  0.00     0.163 HD
BRANCH  14  16
HETATM   16  C7  UNK     1      19.188  -1.981  35.546  1.00  0.00     0.162 C 
BRANCH  16  17
HETATM   17  C12 UNK     1      19.389  -1.687  34.088  1.00  0.00    -0.023 A 
HETATM   18  C14 UNK     1      20.375  -2.339  33.370  1.00  0.00     0.012 A 
HETATM   19  C17 UNK     1      20.537  -2.047  32.020  1.00  0.00     0.020 A 
HETATM   20  C18 UNK     1      19.692  -1.105  31.454  1.00  0.00     0.116 A 
HETATM   21  N2  UNK     1      18.722  -0.454  32.133  1.00  0.00    -0.273 NA
HETATM   22  C15 UNK     1      18.594  -0.764  33.443  1.00  0.00     0.124 A 
ENDBRANCH  16  17
ENDBRANCH  14  16
ENDBRANCH   5  12
BRANCH   7  23
HETATM   23  O2  UNK     1      20.124 -10.308  36.325  1.00  0.00    -0.349 OA
BRANCH  23  24
HETATM   24  C13 UNK     1      21.345 -11.003  36.071  1.00  0.00     0.171 C 
HETATM   25  C16 UNK     1      22.071 -10.323  34.931  1.00  0.00     0.034 C 
ENDBRANCH  23  24
ENDBRANCH   7  23
TORSDOF 5
ENDMDL
MODEL 9
REMARK VINA RESULT:      -8.0     15.805     18.142
REMARK  5 active torsions:
REMARK  status: ('A' for Active; 'I' for Inactive)
REMARK    1  A    between atoms: C13_19  and  O2_2 
REMARK    2  A    between atoms: C5_11  and  O2_2 
REMARK    3  A    between atoms: C7_13  and  N1_5 
REMARK       I    between atoms: C8_14  and  N1_5 
REMARK    4  A    between atoms: C3_9  and  C8_14 
REMARK    5  A    between atoms: C12_18  and  C7_13 
ROOT
HETATM    1  O1  UNK     1      19.082  -3.261  12.761  1.00  0.00    -0.271 OA
HETATM    2  O4  UNK     1      19.025  -1.188  13.719  1.00  0.00    -0.259 OA
HETATM    3  C1  UNK     1      18.305  -5.189  14.023  1.00  0.00     0.002 A 
HETATM    4  C2  UNK     1      18.835  -4.645  12.858  1.00  0.00     0.123 A 
HETATM    5  C3  UNK     1      18.246  -2.992  15.043  1.00  0.00     0.108 A 
HETATM    6  C4  UNK     1      18.011  -4.305  15.141  1.00  0.00     0.037 A 
HETATM    7  C5  UNK     1      19.141  -5.435  11.752  1.00  0.00     0.103 A 
HETATM    8  C6  UNK     1      18.075  -6.565  14.082  1.00  0.00     0.014 A 
HETATM    9  C9  UNK     1      18.809  -2.391  13.813  1.00  0.00     0.304 A 
HETATM   10  C10 UNK     1      18.908  -6.808  11.818  1.00  0.00     0.040 A 
HETATM   11  C11 UNK     1      18.377  -7.371  12.980  1.00  0.00     0.004 A 
ENDROOT
BRANCH   5  12
HETATM   12  C8  UNK     1      17.915  -2.184  16.224  1.00  0.00     0.258 C 
HETATM   13  O3  UNK     1      16.777  -2.179  16.686  1.00  0.00    -0.267 OA
HETATM   14  N1  UNK     1      18.998  -1.472  16.709  1.00  0.00    -0.352 N 
HETATM   15  H7  UNK     1      19.899  -1.532  16.244  1.00  0.00     0.163 HD
BRANCH  14  16
HETATM   16  C7  UNK     1      18.918  -0.605  17.862  1.00  0.00     0.162 C 
BRANCH  16  17
HETATM   17  C12 UNK     1      19.117   0.837  17.497  1.00  0.00    -0.023 A 
HETATM   18  C14 UNK     1      19.183   1.808  18.480  1.00  0.00     0.012 A 
HETATM   19  C17 UNK     1      19.369   3.136  18.111  1.00  0.00     0.020 A 
HETATM   20  C18 UNK     1      19.481   3.424  16.760  1.00  0.00     0.116 A 
HETATM   21  N2  UNK     1      19.419   2.495  15.780  1.00  0.00    -0.273 NA
HETATM   22  C15 UNK     1      19.239   1.215  16.176  1.00  0.00     0.124 A 
ENDBRANCH  16  17
ENDBRANCH  14  16
ENDBRANCH   5  12
BRANCH   7  23
HETATM   23  O2  UNK     1      19.658  -4.891  10.618  1.00  0.00    -0.349 OA
BRANCH  23  24
HETATM   24  C13 UNK     1      19.262  -5.474   9.377  1.00  0.00     0.171 C 
HETATM   25  C16 UNK     1      18.019  -4.769   8.876  1.00  0.00     0.034 C 
ENDBRANCH  23  24
ENDBRANCH   7  23
TORSDOF 5
ENDMDL
MODEL 10
REMARK VINA RESULT:      -7.9     15.386     17.656
REMARK  5 active torsions:
REMARK  status: ('A' for Active; 'I' for Inactive)
REMARK    1  A    between atoms: C13_19  and  O2_2 
REMARK    2  A    between atoms: C5_11  and  O2_2 
REMARK    3  A    between atoms: C7_13  and  N1_5 
REMARK       I    between atoms: C8_14  and  N1_5 
REMARK    4  A    between atoms: C3_9  and  C8_14 
REMARK    5  A    between atoms: C12_18  and  C7_13 
ROOT
HETATM    1  O1  UNK     1      18.692  -4.283  13.499  1.00  0.00    -0.271 OA
HETATM    2  O4  UNK     1      17.557  -4.588  15.459  1.00  0.00    -0.259 OA
HETATM    3  C1  UNK     1      19.735  -2.136  13.038  1.00  0.00     0.002 A 
HETATM    4  C2  UNK     1      19.446  -3.442  12.657  1.00  0.00     0.123 A 
HETATM    5  C3  UNK     1      18.530  -2.455  15.116  1.00  0.00     0.108 A 
HETATM    6  C4  UNK     1      19.244  -1.651  14.319  1.00  0.00     0.037 A 
HETATM    7  C5  UNK     1      19.884  -3.967  11.443  1.00  0.00     0.103 A 
HETATM    8  C6  UNK     1      20.484  -1.332  12.176  1.00  0.00     0.014 A 
HETATM    9  C9  UNK     1      18.211  -3.849  14.731  1.00  0.00     0.304 A 
HETATM   10  C10 UNK     1      20.632  -3.158  10.589  1.00  0.00     0.040 A 
HETATM   11  C11 UNK     1      20.932  -1.845  10.954  1.00  0.00     0.004 A 
ENDROOT
BRANCH   5  12
HETATM   12  C8  UNK     1      18.081  -1.875  16.387  1.00  0.00     0.258 C 
HETATM   13  O3  UNK     1      16.927  -2.033  16.781  1.00  0.00    -0.267 OA
HETATM   14  N1  UNK     1      19.077  -1.169  17.037  1.00  0.00    -0.352 N 
HETATM   15  H7  UNK     1      19.999  -1.083  16.621  1.00  0.00     0.163 HD
BRANCH  14  16
HETATM   16  C7  UNK     1      18.875  -0.507  18.306  1.00  0.00     0.162 C 
BRANCH  16  17
HETATM   17  C12 UNK     1      19.150   0.966  18.222  1.00  0.00    -0.023 A 
HETATM   18  C14 UNK     1      19.193   1.604  16.995  1.00  0.00     0.012 A 
HETATM   19  C17 UNK     1      19.449   2.970  16.949  1.00  0.00     0.020 A 
HETATM   20  C18 UNK     1      19.651   3.633  18.150  1.00  0.00     0.116 A 
HETATM   21  N2  UNK     1      19.615   3.034  19.361  1.00  0.00    -0.273 NA
HETATM   22  C15 UNK     1      19.363   1.705  19.366  1.00  0.00     0.124 A 
ENDBRANCH  16  17
ENDBRANCH  14  16
ENDBRANCH   5  12
BRANCH   7  23
HETATM   23  O2  UNK     1      19.594  -5.246  11.083  1.00  0.00    -0.349 OA
BRANCH  23  24
HETATM   24  C13 UNK     1      20.620  -6.222  11.269  1.00  0.00     0.171 C 
HETATM   25  C16 UNK     1      20.022  -7.445  11.930  1.00  0.00     0.034 C 
ENDBRANCH  23  24
ENDBRANCH   7  23
TORSDOF 5
ENDMDL
