MODEL 1
REMARK VINA RESULT:      -9.1      0.000      0.000
REMARK  4 active torsions:
REMARK  status: ('A' for Active; 'I' for Inactive)
REMARK    1  A    between atoms: C13_19  and  O2_3 
REMARK    2  A    between atoms: C6_12  and  O2_3 
REMARK    3  A    between atoms: C10_16  and  C3_9 
REMARK    4  A    between atoms: C13_19  and  C15_21 
ROOT
HETATM    1  O1  UNK     1      19.259   2.966  30.048  1.00  0.00    -0.307 OA
HETATM    2  O4  UNK     1      17.692   2.859  33.807  1.00  0.00    -0.287 OA
HETATM    3  C1  UNK     1      18.342   4.167  31.949  1.00  0.00     0.051 A 
HETATM    4  C2  UNK     1      18.884   4.132  30.665  1.00  0.00     0.090 A 
HETATM    5  C3  UNK     1      19.098   1.773  30.734  1.00  0.00     0.113 A 
HETATM    6  C4  UNK     1      17.977   5.384  32.528  1.00  0.00     0.055 A 
HETATM    7  C5  UNK     1      18.163   2.902  32.679  1.00  0.00     0.187 A 
HETATM    8  C6  UNK     1      18.158   6.568  31.813  1.00  0.00     0.080 A 
HETATM    9  C7  UNK     1      19.062   5.317  29.951  1.00  0.00     0.041 A 
HETATM   10  C8  UNK     1      18.584   1.676  31.971  1.00  0.00     0.095 A 
HETATM   11  C9  UNK     1      18.698   6.535  30.527  1.00  0.00     0.040 A 
ENDROOT
BRANCH   8  12
HETATM   12  O2  UNK     1      17.804   7.760  32.369  1.00  0.00    -0.275 OA
BRANCH  12  13
HETATM   13  C13 UNK     1      16.579   8.261  31.921  1.00  0.00     0.305 C 
HETATM   14  O5  UNK     1      16.139   8.156  30.786  1.00  0.00    -0.258 OA
BRANCH  13  15
HETATM   15  C15 UNK     1      15.846   8.945  33.017  1.00  0.00     0.080 A 
HETATM   16  S1  UNK     1      16.755   9.854  34.108  1.00  0.00    -0.096 SA
HETATM   17  C18 UNK     1      15.327  10.265  34.958  1.00  0.00     0.050 A 
HETATM   18  C17 UNK     1      14.206   9.701  34.389  1.00  0.00     0.009 A 
HETATM   19  C16 UNK     1      14.524   8.921  33.240  1.00  0.00     0.025 A 
ENDBRANCH  13  15
ENDBRANCH  12  13
ENDBRANCH   8  12
BRANCH   5  20
HETATM   20  C10 UNK     1      19.527   0.580  29.976  1.00  0.00     0.108 A 
HETATM   21  O3  UNK     1      19.161   0.363  28.678  1.00  0.00    -0.320 OA
HETATM   22  C14 UNK     1      19.726  -0.812  28.295  1.00  0.00     0.142 A 
HETATM   23  C12 UNK     1      20.451  -1.358  29.329  1.00  0.00     0.027 A 
HETATM   24  C11 UNK     1      20.324  -0.461  30.416  1.00  0.00     0.042 A 
ENDBRANCH   5  20
TORSDOF 4
ENDMDL
MODEL 2
REMARK VINA RESULT:      -8.6      2.790      8.889
REMARK  4 active torsions:
REMARK  status: ('A' for Active; 'I' for Inactive)
REMARK    1  A    between atoms: C13_19  and  O2_3 
REMARK    2  A    between atoms: C6_12  and  O2_3 
REMARK    3  A    between atoms: C10_16  and  C3_9 
REMARK    4  A    between atoms: C13_19  and  C15_21 
ROOT
HETATM    1  O1  UNK     1      17.855   9.169  33.926  1.00  0.00    -0.307 OA
HETATM    2  O4  UNK     1      15.123   7.647  31.314  1.00  0.00    -0.287 OA
HETATM    3  C1  UNK     1      17.263   7.464  32.300  1.00  0.00     0.051 A 
HETATM    4  C2  UNK     1      18.151   8.037  33.210  1.00  0.00     0.090 A 
HETATM    5  C3  UNK     1      16.623   9.772  33.730  1.00  0.00     0.113 A 
HETATM    6  C4  UNK     1      17.618   6.310  31.598  1.00  0.00     0.055 A 
HETATM    7  C5  UNK     1      15.951   8.097  32.094  1.00  0.00     0.187 A 
HETATM    8  C6  UNK     1      18.869   5.731  31.813  1.00  0.00     0.080 A 
HETATM    9  C7  UNK     1      19.400   7.455  33.424  1.00  0.00     0.041 A 
HETATM   10  C8  UNK     1      15.682   9.313  32.888  1.00  0.00     0.095 A 
HETATM   11  C9  UNK     1      19.758   6.302  32.724  1.00  0.00     0.040 A 
ENDROOT
BRANCH   8  12
HETATM   12  O2  UNK     1      19.223   4.605  31.135  1.00  0.00    -0.275 OA
BRANCH  12  13
HETATM   13  C13 UNK     1      18.488   3.470  31.483  1.00  0.00     0.305 C 
HETATM   14  O5  UNK     1      17.866   3.316  32.524  1.00  0.00    -0.258 OA
BRANCH  13  15
HETATM   15  C15 UNK     1      18.540   2.446  30.409  1.00  0.00     0.080 A 
HETATM   16  S1  UNK     1      19.417   1.040  30.719  1.00  0.00    -0.096 SA
HETATM   17  C18 UNK     1      19.025   0.448  29.162  1.00  0.00     0.050 A 
HETATM   18  C17 UNK     1      18.241   1.334  28.454  1.00  0.00     0.009 A 
HETATM   19  C16 UNK     1      17.959   2.514  29.202  1.00  0.00     0.025 A 
ENDBRANCH  13  15
ENDBRANCH  12  13
ENDBRANCH   8  12
BRANCH   5  20
HETATM   20  C10 UNK     1      16.406  10.977  34.555  1.00  0.00     0.108 A 
HETATM   21  O3  UNK     1      15.385  11.077  35.458  1.00  0.00    -0.320 OA
HETATM   22  C14 UNK     1      15.483  12.303  36.036  1.00  0.00     0.142 A 
HETATM   23  C12 UNK     1      16.552  12.997  35.519  1.00  0.00     0.027 A 
HETATM   24  C11 UNK     1      17.150  12.143  34.563  1.00  0.00     0.042 A 
ENDBRANCH   5  20
TORSDOF 4
ENDMDL
MODEL 3
REMARK VINA RESULT:      -8.6      6.429     10.369
REMARK  4 active torsions:
REMARK  status: ('A' for Active; 'I' for Inactive)
REMARK    1  A    between atoms: C13_19  and  O2_3 
REMARK    2  A    between atoms: C6_12  and  O2_3 
REMARK    3  A    between atoms: C10_16  and  C3_9 
REMARK    4  A    between atoms: C13_19  and  C15_21 
ROOT
HETATM    1  O1  UNK     1      18.732  -0.135  33.061  1.00  0.00    -0.307 OA
HETATM    2  O4  UNK     1      21.331  -3.221  32.498  1.00  0.00    -0.287 OA
HETATM    3  C1  UNK     1      19.898  -2.059  33.975  1.00  0.00     0.051 A 
HETATM    4  C2  UNK     1      19.018  -0.985  34.099  1.00  0.00     0.090 A 
HETATM    5  C3  UNK     1      19.349  -0.351  31.839  1.00  0.00     0.113 A 
HETATM    6  C4  UNK     1      20.153  -2.893  35.066  1.00  0.00     0.055 A 
HETATM    7  C5  UNK     1      20.550  -2.297  32.677  1.00  0.00     0.187 A 
HETATM    8  C6  UNK     1      19.519  -2.645  36.284  1.00  0.00     0.080 A 
HETATM    9  C7  UNK     1      18.385  -0.740  35.317  1.00  0.00     0.041 A 
HETATM   10  C8  UNK     1      20.210  -1.352  31.594  1.00  0.00     0.095 A 
HETATM   11  C9  UNK     1      18.637  -1.571  36.409  1.00  0.00     0.040 A 
ENDROOT
BRANCH   8  12
HETATM   12  O2  UNK     1      19.760  -3.453  37.352  1.00  0.00    -0.275 OA
BRANCH  12  13
HETATM   13  C13 UNK     1      20.404  -4.651  37.033  1.00  0.00     0.305 C 
HETATM   14  O5  UNK     1      21.596  -4.878  37.175  1.00  0.00    -0.258 OA
BRANCH  13  15
HETATM   15  C15 UNK     1      19.445  -5.649  36.495  1.00  0.00     0.080 A 
HETATM   16  S1  UNK     1      19.981  -6.645  35.245  1.00  0.00    -0.096 SA
HETATM   17  C18 UNK     1      18.455  -7.418  35.203  1.00  0.00     0.050 A 
HETATM   18  C17 UNK     1      17.585  -6.898  36.137  1.00  0.00     0.009 A 
HETATM   19  C16 UNK     1      18.181  -5.851  36.897  1.00  0.00     0.025 A 
ENDBRANCH  13  15
ENDBRANCH  12  13
ENDBRANCH   8  12
BRANCH   5  20
HETATM   20  C10 UNK     1      18.964   0.617  30.792  1.00  0.00     0.108 A 
HETATM   21  O3  UNK     1      18.268   1.760  31.065  1.00  0.00    -0.320 OA
HETATM   22  C14 UNK     1      18.088   2.409  29.885  1.00  0.00     0.142 A 
HETATM   23  C12 UNK     1      18.658   1.701  28.853  1.00  0.00     0.027 A 
HETATM   24  C11 UNK     1      19.224   0.543  29.435  1.00  0.00     0.042 A 
ENDBRANCH   5  20
TORSDOF 4
ENDMDL
MODEL 4
REMARK VINA RESULT:      -8.5      1.375      2.290
REMARK  4 active torsions:
REMARK  status: ('A' for Active; 'I' for Inactive)
REMARK    1  A    between atoms: C13_19  and  O2_3 
REMARK    2  A    between atoms: C6_12  and  O2_3 
REMARK    3  A    between atoms: C10_16  and  C3_9 
REMARK    4  A    between atoms: C13_19  and  C15_21 
ROOT
HETATM    1  O1  UNK     1      18.559   2.727  32.570  1.00  0.00    -0.307 OA
HETATM    2  O4  UNK     1      18.806   4.555  28.938  1.00  0.00    -0.287 OA
HETATM    3  C1  UNK     1      18.425   4.768  31.260  1.00  0.00     0.051 A 
HETATM    4  C2  UNK     1      18.356   4.080  32.471  1.00  0.00     0.090 A 
HETATM    5  C3  UNK     1      18.837   2.014  31.415  1.00  0.00     0.113 A 
HETATM    6  C4  UNK     1      18.210   6.147  31.218  1.00  0.00     0.055 A 
HETATM    7  C5  UNK     1      18.728   4.016  30.032  1.00  0.00     0.187 A 
HETATM    8  C6  UNK     1      17.926   6.835  32.398  1.00  0.00     0.080 A 
HETATM    9  C7  UNK     1      18.073   4.771  33.649  1.00  0.00     0.041 A 
HETATM   10  C8  UNK     1      18.935   2.562  30.193  1.00  0.00     0.095 A 
HETATM   11  C9  UNK     1      17.857   6.148  33.611  1.00  0.00     0.040 A 
ENDROOT
BRANCH   8  12
HETATM   12  O2  UNK     1      17.716   8.180  32.368  1.00  0.00    -0.275 OA
BRANCH  12  13
HETATM   13  C13 UNK     1      16.419   8.551  32.007  1.00  0.00     0.305 C 
HETATM   14  O5  UNK     1      15.889   8.331  30.927  1.00  0.00    -0.258 OA
BRANCH  13  15
HETATM   15  C15 UNK     1      15.731   9.253  33.121  1.00  0.00     0.080 A 
HETATM   16  S1  UNK     1      16.671  10.242  34.111  1.00  0.00    -0.096 SA
HETATM   17  C18 UNK     1      15.286  10.634  35.037  1.00  0.00     0.050 A 
HETATM   18  C17 UNK     1      14.154  10.003  34.568  1.00  0.00     0.009 A 
HETATM   19  C16 UNK     1      14.429   9.187  33.433  1.00  0.00     0.025 A 
ENDBRANCH  13  15
ENDBRANCH  12  13
ENDBRANCH   8  12
BRANCH   5  20
HETATM   20  C10 UNK     1      19.044   0.569  31.636  1.00  0.00     0.108 A 
HETATM   21  O3  UNK     1      18.390  -0.129  32.612  1.00  0.00    -0.320 OA
HETATM   22  C14 UNK     1      18.812  -1.418  32.533  1.00  0.00     0.142 A 
HETATM   23  C12 UNK     1      19.731  -1.564  31.520  1.00  0.00     0.027 A 
HETATM   24  C11 UNK     1      19.884  -0.283  30.940  1.00  0.00     0.042 A 
ENDBRANCH   5  20
TORSDOF 4
ENDMDL
MODEL 5
REMARK VINA RESULT:      -8.4      2.511      8.401
REMARK  4 active torsions:
REMARK  status: ('A' for Active; 'I' for Inactive)
REMARK    1  A    between atoms: C13_19  and  O2_3 
REMARK    2  A    between atoms: C6_12  and  O2_3 
REMARK    3  A    between atoms: C10_16  and  C3_9 
REMARK    4  A    between atoms: C13_19  and  C15_21 
ROOT
HETATM    1  O1  UNK     1      17.706   7.741  32.039  1.00  0.00    -0.307 OA
HETATM    2  O4  UNK     1      18.100   4.480  34.448  1.00  0.00    -0.287 OA
HETATM    3  C1  UNK     1      18.293   5.397  32.279  1.00  0.00     0.051 A 
HETATM    4  C2  UNK     1      18.137   6.551  31.512  1.00  0.00     0.090 A 
HETATM    5  C3  UNK     1      17.407   7.797  33.391  1.00  0.00     0.113 A 
HETATM    6  C4  UNK     1      18.735   4.211  31.688  1.00  0.00     0.055 A 
HETATM    7  C5  UNK     1      17.984   5.453  33.716  1.00  0.00     0.187 A 
HETATM    8  C6  UNK     1      19.021   4.188  30.323  1.00  0.00     0.080 A 
HETATM    9  C7  UNK     1      18.425   6.525  30.147  1.00  0.00     0.041 A 
HETATM   10  C8  UNK     1      17.522   6.757  34.233  1.00  0.00     0.095 A 
HETATM   11  C9  UNK     1      18.867   5.342  29.555  1.00  0.00     0.040 A 
ENDROOT
BRANCH   8  12
HETATM   12  O2  UNK     1      19.455   3.036  29.739  1.00  0.00    -0.275 OA
BRANCH  12  13
HETATM   13  C13 UNK     1      18.578   1.957  29.878  1.00  0.00     0.305 C 
HETATM   14  O5  UNK     1      17.359   2.029  29.908  1.00  0.00    -0.258 OA
BRANCH  13  15
HETATM   15  C15 UNK     1      19.319   0.673  29.975  1.00  0.00     0.080 A 
HETATM   16  S1  UNK     1      19.368  -0.081  31.481  1.00  0.00    -0.096 SA
HETATM   17  C18 UNK     1      20.303  -1.351  30.817  1.00  0.00     0.050 A 
HETATM   18  C17 UNK     1      20.550  -1.165  29.475  1.00  0.00     0.009 A 
HETATM   19  C16 UNK     1      19.963   0.038  28.985  1.00  0.00     0.025 A 
ENDBRANCH  13  15
ENDBRANCH  12  13
ENDBRANCH   8  12
BRANCH   5  20
HETATM   20  C10 UNK     1      16.961   9.126  33.854  1.00  0.00     0.108 A 
HETATM   21  O3  UNK     1      17.696  10.260  33.656  1.00  0.00    -0.320 OA
HETATM   22  C14 UNK     1      16.996  11.290  34.201  1.00  0.00     0.142 A 
HETATM   23  C12 UNK     1      15.819  10.837  34.748  1.00  0.00     0.027 A 
HETATM   24  C11 UNK     1      15.793   9.440  34.526  1.00  0.00     0.042 A 
ENDBRANCH   5  20
TORSDOF 4
ENDMDL
MODEL 6
REMARK VINA RESULT:      -8.4      7.152     11.073
REMARK  4 active torsions:
REMARK  status: ('A' for Active; 'I' for Inactive)
REMARK    1  A    between atoms: C13_19  and  O2_3 
REMARK    2  A    between atoms: C6_12  and  O2_3 
REMARK    3  A    between atoms: C10_16  and  C3_9 
REMARK    4  A    between atoms: C13_19  and  C15_21 
ROOT
HETATM    1  O1  UNK     1      18.978  -0.422  33.264  1.00  0.00    -0.307 OA
HETATM    2  O4  UNK     1      21.459  -3.550  32.455  1.00  0.00    -0.287 OA
HETATM    3  C1  UNK     1      20.104  -2.432  34.035  1.00  0.00     0.051 A 
HETATM    4  C2  UNK     1      19.263  -1.339  34.243  1.00  0.00     0.090 A 
HETATM    5  C3  UNK     1      19.557  -0.586  32.015  1.00  0.00     0.113 A 
HETATM    6  C4  UNK     1      20.359  -3.334  35.069  1.00  0.00     0.055 A 
HETATM    7  C5  UNK     1      20.714  -2.614  32.709  1.00  0.00     0.187 A 
HETATM    8  C6  UNK     1      19.765  -3.137  36.316  1.00  0.00     0.080 A 
HETATM    9  C7  UNK     1      18.670  -1.145  35.491  1.00  0.00     0.041 A 
HETATM   10  C8  UNK     1      20.377  -1.599  31.690  1.00  0.00     0.095 A 
HETATM   11  C9  UNK     1      18.923  -2.045  36.527  1.00  0.00     0.040 A 
ENDROOT
BRANCH   8  12
HETATM   12  O2  UNK     1      20.007  -4.013  37.331  1.00  0.00    -0.275 OA
BRANCH  12  13
HETATM   13  C13 UNK     1      19.449  -5.279  37.140  1.00  0.00     0.305 C 
HETATM   14  O5  UNK     1      18.452  -5.526  36.478  1.00  0.00    -0.258 OA
BRANCH  13  15
HETATM   15  C15 UNK     1      20.236  -6.323  37.845  1.00  0.00     0.080 A 
HETATM   16  S1  UNK     1      21.209  -7.328  36.904  1.00  0.00    -0.096 SA
HETATM   17  C18 UNK     1      21.720  -8.156  38.313  1.00  0.00     0.050 A 
HETATM   18  C17 UNK     1      21.138  -7.646  39.452  1.00  0.00     0.009 A 
HETATM   19  C16 UNK     1      20.260  -6.560  39.165  1.00  0.00     0.025 A 
ENDBRANCH  13  15
ENDBRANCH  12  13
ENDBRANCH   8  12
BRANCH   5  20
HETATM   20  C10 UNK     1      19.177   0.451  31.036  1.00  0.00     0.108 A 
HETATM   21  O3  UNK     1      18.462   1.563  31.380  1.00  0.00    -0.320 OA
HETATM   22  C14 UNK     1      18.293   2.296  30.248  1.00  0.00     0.142 A 
HETATM   23  C12 UNK     1      18.889   1.673  29.177  1.00  0.00     0.027 A 
HETATM   24  C11 UNK     1      19.461   0.481  29.682  1.00  0.00     0.042 A 
ENDBRANCH   5  20
TORSDOF 4
ENDMDL
MODEL 7
REMARK VINA RESULT:      -8.4      1.816      2.338
REMARK  4 active torsions:
REMARK  status: ('A' for Active; 'I' for Inactive)
REMARK    1  A    between atoms: C13_19  and  O2_3 
REMARK    2  A    between atoms: C6_12  and  O2_3 
REMARK    3  A    between atoms: C10_16  and  C3_9 
REMARK    4  A    between atoms: C13_19  and  C15_21 
ROOT
HETATM    1  O1  UNK     1      18.638   3.642  30.567  1.00  0.00    -0.307 OA
HETATM    2  O4  UNK     1      18.095   2.748  34.503  1.00  0.00    -0.287 OA
HETATM    3  C1  UNK     1      18.188   4.410  32.826  1.00  0.00     0.051 A 
HETATM    4  C2  UNK     1      18.383   4.646  31.466  1.00  0.00     0.090 A 
HETATM    5  C3  UNK     1      18.713   2.339  31.032  1.00  0.00     0.113 A 
HETATM    6  C4  UNK     1      17.930   5.470  33.697  1.00  0.00     0.055 A 
HETATM    7  C5  UNK     1      18.258   3.027  33.324  1.00  0.00     0.187 A 
HETATM    8  C6  UNK     1      17.868   6.771  33.197  1.00  0.00     0.080 A 
HETATM    9  C7  UNK     1      18.319   5.947  30.969  1.00  0.00     0.041 A 
HETATM   10  C8  UNK     1      18.538   1.984  32.316  1.00  0.00     0.095 A 
HETATM   11  C9  UNK     1      18.062   7.009  31.836  1.00  0.00     0.040 A 
ENDROOT
BRANCH   8  12
HETATM   12  O2  UNK     1      17.616   7.812  34.038  1.00  0.00    -0.275 OA
BRANCH  12  13
HETATM   13  C13 UNK     1      18.660   8.734  34.141  1.00  0.00     0.305 C 
HETATM   14  O5  UNK     1      19.846   8.458  34.250  1.00  0.00    -0.258 OA
BRANCH  13  15
HETATM   15  C15 UNK     1      18.152  10.129  34.088  1.00  0.00     0.080 A 
HETATM   16  S1  UNK     1      16.488  10.353  34.229  1.00  0.00    -0.096 SA
HETATM   17  C18 UNK     1      16.702  12.045  34.088  1.00  0.00     0.050 A 
HETATM   18  C17 UNK     1      18.028  12.388  33.938  1.00  0.00     0.009 A 
HETATM   19  C16 UNK     1      18.880  11.246  33.940  1.00  0.00     0.025 A 
ENDBRANCH  13  15
ENDBRANCH  12  13
ENDBRANCH   8  12
BRANCH   5  20
HETATM   20  C10 UNK     1      18.985   1.339  29.980  1.00  0.00     0.108 A 
HETATM   21  O3  UNK     1      19.998   0.428  30.074  1.00  0.00    -0.320 OA
HETATM   22  C14 UNK     1      19.960  -0.329  28.946  1.00  0.00     0.142 A 
HETATM   23  C12 UNK     1      18.936   0.080  28.124  1.00  0.00     0.027 A 
HETATM   24  C11 UNK     1      18.304   1.158  28.789  1.00  0.00     0.042 A 
ENDBRANCH   5  20
TORSDOF 4
ENDMDL
MODEL 8
REMARK VINA RESULT:      -8.3      6.854     11.237
REMARK  4 active torsions:
REMARK  status: ('A' for Active; 'I' for Inactive)
REMARK    1  A    between atoms: C13_19  and  O2_3 
REMARK    2  A    between atoms: C6_12  and  O2_3 
REMARK    3  A    between atoms: C10_16  and  C3_9 
REMARK    4  A    between atoms: C13_19  and  C15_21 
ROOT
HETATM    1  O1  UNK     1      19.039   0.047  34.111  1.00  0.00    -0.307 OA
HETATM    2  O4  UNK     1      17.375  -0.070  37.827  1.00  0.00    -0.287 OA
HETATM    3  C1  UNK     1      18.661  -1.170  36.178  1.00  0.00     0.051 A 
HETATM    4  C2  UNK     1      19.204  -1.064  34.898  1.00  0.00     0.090 A 
HETATM    5  C3  UNK     1      18.296   1.106  34.607  1.00  0.00     0.113 A 
HETATM    6  C4  UNK     1      18.861  -2.326  36.935  1.00  0.00     0.055 A 
HETATM    7  C5  UNK     1      17.877  -0.046  36.712  1.00  0.00     0.187 A 
HETATM    8  C6  UNK     1      19.609  -3.377  36.403  1.00  0.00     0.080 A 
HETATM    9  C7  UNK     1      19.952  -2.115  34.369  1.00  0.00     0.041 A 
HETATM   10  C8  UNK     1      17.729   1.126  35.824  1.00  0.00     0.095 A 
HETATM   11  C9  UNK     1      20.154  -3.271  35.123  1.00  0.00     0.040 A 
ENDROOT
BRANCH   8  12
HETATM   12  O2  UNK     1      19.810  -4.507  37.135  1.00  0.00    -0.275 OA
BRANCH  12  13
HETATM   13  C13 UNK     1      19.101  -5.621  36.678  1.00  0.00     0.305 C 
HETATM   14  O5  UNK     1      17.884  -5.714  36.615  1.00  0.00    -0.258 OA
BRANCH  13  15
HETATM   15  C15 UNK     1      20.022  -6.706  36.254  1.00  0.00     0.080 A 
HETATM   16  S1  UNK     1      21.116  -7.286  37.398  1.00  0.00    -0.096 SA
HETATM   17  C18 UNK     1      21.737  -8.391  36.247  1.00  0.00     0.050 A 
HETATM   18  C17 UNK     1      21.098  -8.286  35.031  1.00  0.00     0.009 A 
HETATM   19  C16 UNK     1      20.083  -7.285  35.045  1.00  0.00     0.025 A 
ENDBRANCH  13  15
ENDBRANCH  12  13
ENDBRANCH   8  12
BRANCH   5  20
HETATM   20  C10 UNK     1      18.189   2.252  33.682  1.00  0.00     0.108 A 
HETATM   21  O3  UNK     1      17.959   2.099  32.344  1.00  0.00    -0.320 OA
HETATM   22  C14 UNK     1      17.918   3.345  31.801  1.00  0.00     0.142 A 
HETATM   23  C12 UNK     1      18.118   4.300  32.770  1.00  0.00     0.027 A 
HETATM   24  C11 UNK     1      18.294   3.598  33.986  1.00  0.00     0.042 A 
ENDBRANCH   5  20
TORSDOF 4
ENDMDL
MODEL 9
REMARK VINA RESULT:      -8.1      9.702     12.602
REMARK  4 active torsions:
REMARK  status: ('A' for Active; 'I' for Inactive)
REMARK    1  A    between atoms: C13_19  and  O2_3 
REMARK    2  A    between atoms: C6_12  and  O2_3 
REMARK    3  A    between atoms: C10_16  and  C3_9 
REMARK    4  A    between atoms: C13_19  and  C15_21 
ROOT
HETATM    1  O1  UNK     1      22.602  -8.366  37.039  1.00  0.00    -0.307 OA
HETATM    2  O4  UNK     1      19.762  -7.698  34.196  1.00  0.00    -0.287 OA
HETATM    3  C1  UNK     1      20.821  -6.959  36.174  1.00  0.00     0.051 A 
HETATM    4  C2  UNK     1      21.811  -7.247  37.113  1.00  0.00     0.090 A 
HETATM    5  C3  UNK     1      22.403  -9.249  35.990  1.00  0.00     0.113 A 
HETATM    6  C4  UNK     1      20.045  -5.804  36.299  1.00  0.00     0.055 A 
HETATM    7  C5  UNK     1      20.611  -7.890  35.055  1.00  0.00     0.187 A 
HETATM    8  C6  UNK     1      20.267  -4.939  37.371  1.00  0.00     0.080 A 
HETATM    9  C7  UNK     1      22.032  -6.380  38.182  1.00  0.00     0.041 A 
HETATM   10  C8  UNK     1      21.487  -9.079  35.023  1.00  0.00     0.095 A 
HETATM   11  C9  UNK     1      21.259  -5.226  38.310  1.00  0.00     0.040 A 
ENDROOT
BRANCH   8  12
HETATM   12  O2  UNK     1      19.517  -3.810  37.500  1.00  0.00    -0.275 OA
BRANCH  12  13
HETATM   13  C13 UNK     1      19.886  -2.774  36.639  1.00  0.00     0.305 C 
HETATM   14  O5  UNK     1      20.904  -2.736  35.965  1.00  0.00    -0.258 OA
BRANCH  13  15
HETATM   15  C15 UNK     1      18.864  -1.696  36.627  1.00  0.00     0.080 A 
HETATM   16  S1  UNK     1      18.639  -0.856  35.183  1.00  0.00    -0.096 SA
HETATM   17  C18 UNK     1      17.430   0.102  35.926  1.00  0.00     0.050 A 
HETATM   18  C17 UNK     1      17.234  -0.244  37.245  1.00  0.00     0.009 A 
HETATM   19  C16 UNK     1      18.088  -1.310  37.651  1.00  0.00     0.025 A 
ENDBRANCH  13  15
ENDBRANCH  12  13
ENDBRANCH   8  12
BRANCH   5  20
HETATM   20  C10 UNK     1      23.312 -10.413  36.003  1.00  0.00     0.108 A 
HETATM   21  O3  UNK     1      24.621 -10.320  36.381  1.00  0.00    -0.320 OA
HETATM   22  C14 UNK     1      25.156 -11.565  36.277  1.00  0.00     0.142 A 
HETATM   23  C12 UNK     1      24.209 -12.462  35.838  1.00  0.00     0.027 A 
HETATM   24  C11 UNK     1      23.018 -11.720  35.660  1.00  0.00     0.042 A 
ENDBRANCH   5  20
TORSDOF 4
ENDMDL
MODEL 10
REMARK VINA RESULT:      -8.0     22.245     24.044
REMARK  4 active torsions:
REMARK  status: ('A' for Active; 'I' for Inactive)
REMARK    1  A    between atoms: C13_19  and  O2_3 
REMARK    2  A    between atoms: C6_12  and  O2_3 
REMARK    3  A    between atoms: C10_16  and  C3_9 
REMARK    4  A    between atoms: C13_19  and  C15_21 
ROOT
HETATM    1  O1  UNK     1      15.477   9.900   9.693  1.00  0.00    -0.307 OA
HETATM    2  O4  UNK     1      16.688   6.029  10.066  1.00  0.00    -0.287 OA
HETATM    3  C1  UNK     1      14.894   7.545   9.814  1.00  0.00     0.051 A 
HETATM    4  C2  UNK     1      14.548   8.890   9.690  1.00  0.00     0.090 A 
HETATM    5  C3  UNK     1      16.815   9.568   9.832  1.00  0.00     0.113 A 
HETATM    6  C4  UNK     1      13.906   6.559   9.805  1.00  0.00     0.055 A 
HETATM    7  C5  UNK     1      16.314   7.188   9.955  1.00  0.00     0.187 A 
HETATM    8  C6  UNK     1      12.567   6.927   9.669  1.00  0.00     0.080 A 
HETATM    9  C7  UNK     1      13.209   9.256   9.554  1.00  0.00     0.041 A 
HETATM   10  C8  UNK     1      17.273   8.311   9.954  1.00  0.00     0.095 A 
HETATM   11  C9  UNK     1      12.219   8.273   9.544  1.00  0.00     0.040 A 
ENDROOT
BRANCH   8  12
HETATM   12  O2  UNK     1      11.597   5.972   9.657  1.00  0.00    -0.275 OA
BRANCH  12  13
HETATM   13  C13 UNK     1      11.552   5.213   8.485  1.00  0.00     0.305 C 
HETATM   14  O5  UNK     1      12.216   4.212   8.259  1.00  0.00    -0.258 OA
BRANCH  13  15
HETATM   15  C15 UNK     1      10.569   5.772   7.522  1.00  0.00     0.080 A 
HETATM   16  S1  UNK     1       9.022   6.109   8.100  1.00  0.00    -0.096 SA
HETATM   17  C18 UNK     1       8.559   6.657   6.546  1.00  0.00     0.050 A 
HETATM   18  C17 UNK     1       9.590   6.568   5.637  1.00  0.00     0.009 A 
HETATM   19  C16 UNK     1      10.777   6.043   6.224  1.00  0.00     0.025 A 
ENDBRANCH  13  15
ENDBRANCH  12  13
ENDBRANCH   8  12
BRANCH   5  20
HETATM   20  C10 UNK     1      17.727  10.729   9.814  1.00  0.00     0.108 A 
HETATM   21  O3  UNK     1      18.772  10.831   8.941  1.00  0.00    -0.320 OA
HETATM   22  C14 UNK     1      19.393  12.012   9.197  1.00  0.00     0.142 A 
HETATM   23  C12 UNK     1      18.764  12.675  10.225  1.00  0.00     0.027 A 
HETATM   24  C11 UNK     1      17.688  11.849  10.626  1.00  0.00     0.042 A 
ENDBRANCH   5  20
TORSDOF 4
ENDMDL
