MODEL 1
REMARK VINA RESULT:      -8.3      0.000      0.000
REMARK  3 active torsions:
REMARK  status: ('A' for Active; 'I' for Inactive)
REMARK    1  A    between atoms: C10_15  and  O2_3 
REMARK    2  A    between atoms: C7_12  and  N1_5 
REMARK    3  A    between atoms: C7_12  and  C8_13 
ROOT
HETATM    1 Cl1  UNK     1      20.938  -0.907  28.878  1.00  0.00    -0.081 Cl
HETATM    2  O1  UNK     1      17.808   1.391  33.319  1.00  0.00    -0.274 OA
HETATM    3  O3  UNK     1      17.041   1.288  35.471  1.00  0.00    -0.260 OA
HETATM    4  C8  UNK     1      18.610   1.496  31.073  1.00  0.00     0.040 A 
HETATM    5  C9  UNK     1      18.567   0.809  32.284  1.00  0.00     0.101 A 
HETATM    6  C10 UNK     1      19.340   0.977  30.014  1.00  0.00     0.098 A 
HETATM    7  C11 UNK     1      19.239  -0.399  32.474  1.00  0.00     0.006 A 
HETATM    8  C12 UNK     1      20.020  -0.229  30.174  1.00  0.00     0.068 A 
HETATM    9  C13 UNK     1      19.971  -0.912  31.395  1.00  0.00     0.041 A 
HETATM   10  C14 UNK     1      19.143  -1.060  33.782  1.00  0.00    -0.043 A 
HETATM   11  C15 UNK     1      18.414  -0.484  34.748  1.00  0.00     0.090 A 
HETATM   12  C16 UNK     1      17.699   0.790  34.564  1.00  0.00     0.288 A 
HETATM   13  C17 UNK     1      19.854  -2.361  34.019  1.00  0.00     0.049 C 
ENDROOT
BRANCH   4  14
HETATM   14  C7  UNK     1      17.871   2.793  30.912  1.00  0.00     0.316 C 
BRANCH  14  15
HETATM   15  N1  UNK     1      18.660   3.935  31.380  1.00  0.00     0.092 N 
HETATM   16  C1  UNK     1      19.178   4.687  30.232  1.00  0.00     0.272 C 
HETATM   17  C3  UNK     1      19.800   6.058  30.513  1.00  0.00     0.030 C 
HETATM   18  C5  UNK     1      20.630   6.132  31.791  1.00  0.00     0.002 C 
HETATM   19  C6  UNK     1      19.769   6.416  33.018  1.00  0.00     0.002 C 
HETATM   20  C4  UNK     1      18.836   5.282  33.434  1.00  0.00     0.030 C 
HETATM   21  C2  UNK     1      17.908   4.744  32.340  1.00  0.00     0.272 C 
ENDBRANCH  14  15
ENDBRANCH   4  14
BRANCH   6  22
HETATM   22  O2  UNK     1      19.384   1.645  28.825  1.00  0.00    -0.358 OA
HETATM   23  H20 UNK     1      20.220   1.424  28.380  1.00  0.00     0.217 HD
ENDBRANCH   6  22
TORSDOF 3
ENDMDL
MODEL 2
REMARK VINA RESULT:      -7.5     23.333     24.926
REMARK  3 active torsions:
REMARK  status: ('A' for Active; 'I' for Inactive)
REMARK    1  A    between atoms: C10_15  and  O2_3 
REMARK    2  A    between atoms: C7_12  and  N1_5 
REMARK    3  A    between atoms: C7_12  and  C8_13 
ROOT
HETATM    1 Cl1  UNK     1      12.550  11.531  10.583  1.00  0.00    -0.081 Cl
HETATM    2  O1  UNK     1      14.888   6.197   9.645  1.00  0.00    -0.274 OA
HETATM    3  O3  UNK     1      16.714   4.847   9.384  1.00  0.00    -0.260 OA
HETATM    4  C8  UNK     1      12.983   7.610   9.917  1.00  0.00     0.040 A 
HETATM    5  C9  UNK     1      14.369   7.488   9.872  1.00  0.00     0.101 A 
HETATM    6  C10 UNK     1      12.408   8.853  10.137  1.00  0.00     0.098 A 
HETATM    7  C11 UNK     1      15.214   8.586  10.041  1.00  0.00     0.006 A 
HETATM    8  C12 UNK     1      13.227   9.967  10.309  1.00  0.00     0.068 A 
HETATM    9  C13 UNK     1      14.620   9.835  10.261  1.00  0.00     0.041 A 
HETATM   10  C14 UNK     1      16.666   8.372   9.979  1.00  0.00    -0.043 A 
HETATM   11  C15 UNK     1      17.131   7.134   9.762  1.00  0.00     0.090 A 
HETATM   12  C16 UNK     1      16.253   5.966   9.581  1.00  0.00     0.288 A 
HETATM   13  C17 UNK     1      17.603   9.531  10.157  1.00  0.00     0.049 C 
ENDROOT
BRANCH   4  14
HETATM   14  C7  UNK     1      12.110   6.402   9.730  1.00  0.00     0.316 C 
BRANCH  14  15
HETATM   15  N1  UNK     1      11.326   6.478   8.495  1.00  0.00     0.092 N 
HETATM   16  C1  UNK     1      12.163   6.102   7.350  1.00  0.00     0.272 C 
HETATM   17  C3  UNK     1      11.457   5.864   6.012  1.00  0.00     0.030 C 
HETATM   18  C5  UNK     1      10.311   6.826   5.716  1.00  0.00     0.002 C 
HETATM   19  C6  UNK     1       8.998   6.365   6.342  1.00  0.00     0.002 C 
HETATM   20  C4  UNK     1       8.946   6.432   7.866  1.00  0.00     0.030 C 
HETATM   21  C2  UNK     1      10.080   5.718   8.606  1.00  0.00     0.272 C 
ENDBRANCH  14  15
ENDBRANCH   4  14
BRANCH   6  22
HETATM   22  O2  UNK     1      11.050   8.977  10.181  1.00  0.00    -0.358 OA
HETATM   23  H20 UNK     1      10.665   8.094  10.317  1.00  0.00     0.217 HD
ENDBRANCH   6  22
TORSDOF 3
ENDMDL
MODEL 3
REMARK VINA RESULT:      -7.4     23.155     24.433
REMARK  3 active torsions:
REMARK  status: ('A' for Active; 'I' for Inactive)
REMARK    1  A    between atoms: C10_15  and  O2_3 
REMARK    2  A    between atoms: C7_12  and  N1_5 
REMARK    3  A    between atoms: C7_12  and  C8_13 
ROOT
HETATM    1 Cl1  UNK     1      17.910   6.549   9.464  1.00  0.00    -0.081 Cl
HETATM    2  O1  UNK     1      12.396   8.275  10.653  1.00  0.00    -0.274 OA
HETATM    3  O3  UNK     1      10.919   9.893  11.309  1.00  0.00    -0.260 OA
HETATM    4  C8  UNK     1      13.941   6.589   9.968  1.00  0.00     0.040 A 
HETATM    5  C9  UNK     1      13.727   7.903  10.378  1.00  0.00     0.101 A 
HETATM    6  C10 UNK     1      15.228   6.158   9.682  1.00  0.00     0.098 A 
HETATM    7  C11 UNK     1      14.775   8.815  10.514  1.00  0.00     0.006 A 
HETATM    8  C12 UNK     1      16.293   7.047   9.810  1.00  0.00     0.068 A 
HETATM    9  C13 UNK     1      16.069   8.366  10.223  1.00  0.00     0.041 A 
HETATM   10  C14 UNK     1      14.464  10.182  10.952  1.00  0.00    -0.043 A 
HETATM   11  C15 UNK     1      13.189  10.509  11.206  1.00  0.00     0.090 A 
HETATM   12  C16 UNK     1      12.073   9.558  11.068  1.00  0.00     0.288 A 
HETATM   13  C17 UNK     1      15.568  11.188  11.109  1.00  0.00     0.049 C 
ENDROOT
BRANCH   4  14
HETATM   14  C7  UNK     1      12.784   5.640   9.835  1.00  0.00     0.316 C 
BRANCH  14  15
HETATM   15  N1  UNK     1      11.871   6.036   8.761  1.00  0.00     0.092 N 
HETATM   16  C1  UNK     1      12.490   5.772   7.457  1.00  0.00     0.272 C 
HETATM   17  C3  UNK     1      11.592   5.871   6.220  1.00  0.00     0.030 C 
HETATM   18  C5  UNK     1      10.574   7.007   6.260  1.00  0.00     0.002 C 
HETATM   19  C6  UNK     1       9.297   6.607   6.995  1.00  0.00     0.002 C 
HETATM   20  C4  UNK     1       9.450   6.403   8.499  1.00  0.00     0.030 C 
HETATM   21  C2  UNK     1      10.550   5.430   8.934  1.00  0.00     0.272 C 
ENDBRANCH  14  15
ENDBRANCH   4  14
BRANCH   6  22
HETATM   22  O2  UNK     1      15.442   4.872   9.281  1.00  0.00    -0.358 OA
HETATM   23  H20 UNK     1      16.111   4.879   8.575  1.00  0.00     0.217 HD
ENDBRANCH   6  22
TORSDOF 3
ENDMDL
MODEL 4
REMARK VINA RESULT:      -7.1     14.448     15.735
REMARK  3 active torsions:
REMARK  status: ('A' for Active; 'I' for Inactive)
REMARK    1  A    between atoms: C10_15  and  O2_3 
REMARK    2  A    between atoms: C7_12  and  N1_5 
REMARK    3  A    between atoms: C7_12  and  C8_13 
ROOT
HETATM    1 Cl1  UNK     1      29.499  -3.584  39.827  1.00  0.00    -0.081 Cl
HETATM    2  O1  UNK     1      29.387  -7.936  35.845  1.00  0.00    -0.274 OA
HETATM    3  O3  UNK     1      28.749 -10.041  35.221  1.00  0.00    -0.260 OA
HETATM    4  C8  UNK     1      30.051  -5.738  36.500  1.00  0.00     0.040 A 
HETATM    5  C9  UNK     1      29.390  -6.921  36.823  1.00  0.00     0.101 A 
HETATM    6  C10 UNK     1      30.092  -4.700  37.419  1.00  0.00     0.098 A 
HETATM    7  C11 UNK     1      28.758  -7.102  38.054  1.00  0.00     0.006 A 
HETATM    8  C12 UNK     1      29.470  -4.853  38.657  1.00  0.00     0.068 A 
HETATM    9  C13 UNK     1      28.808  -6.045  38.973  1.00  0.00     0.041 A 
HETATM   10  C14 UNK     1      28.083  -8.381  38.316  1.00  0.00    -0.043 A 
HETATM   11  C15 UNK     1      28.095  -9.328  37.368  1.00  0.00     0.090 A 
HETATM   12  C16 UNK     1      28.758  -9.152  36.065  1.00  0.00     0.288 A 
HETATM   13  C17 UNK     1      27.394  -8.608  39.631  1.00  0.00     0.049 C 
ENDROOT
BRANCH   4  14
HETATM   14  C7  UNK     1      30.718  -5.584  35.163  1.00  0.00     0.316 C 
BRANCH  14  15
HETATM   15  N1  UNK     1      32.153  -5.868  35.231  1.00  0.00     0.092 N 
HETATM   16  C1  UNK     1      32.437  -7.157  34.590  1.00  0.00     0.272 C 
HETATM   17  C3  UNK     1      33.906  -7.502  34.325  1.00  0.00     0.030 C 
HETATM   18  C5  UNK     1      34.870  -7.076  35.429  1.00  0.00     0.002 C 
HETATM   19  C6  UNK     1      35.317  -5.626  35.272  1.00  0.00     0.002 C 
HETATM   20  C4  UNK     1      34.233  -4.581  35.520  1.00  0.00     0.030 C 
HETATM   21  C2  UNK     1      32.943  -4.751  34.712  1.00  0.00     0.272 C 
ENDBRANCH  14  15
ENDBRANCH   4  14
BRANCH   6  22
HETATM   22  O2  UNK     1      30.739  -3.540  37.108  1.00  0.00    -0.358 OA
HETATM   23  H20 UNK     1      30.073  -2.841  36.983  1.00  0.00     0.217 HD
ENDBRANCH   6  22
TORSDOF 3
ENDMDL
MODEL 5
REMARK VINA RESULT:      -7.0     23.261     25.005
REMARK  3 active torsions:
REMARK  status: ('A' for Active; 'I' for Inactive)
REMARK    1  A    between atoms: C10_15  and  O2_3 
REMARK    2  A    between atoms: C7_12  and  N1_5 
REMARK    3  A    between atoms: C7_12  and  C8_13 
ROOT
HETATM    1 Cl1  UNK     1      15.325   4.283   9.854  1.00  0.00    -0.081 Cl
HETATM    2  O1  UNK     1      13.340   9.837   9.822  1.00  0.00    -0.274 OA
HETATM    3  O3  UNK     1      13.737  12.089   9.808  1.00  0.00    -0.260 OA
HETATM    4  C8  UNK     1      12.928   7.486   9.837  1.00  0.00     0.040 A 
HETATM    5  C9  UNK     1      13.854   8.526   9.828  1.00  0.00     0.101 A 
HETATM    6  C10 UNK     1      13.369   6.171   9.844  1.00  0.00     0.098 A 
HETATM    7  C11 UNK     1      15.230   8.290   9.828  1.00  0.00     0.006 A 
HETATM    8  C12 UNK     1      14.737   5.906   9.844  1.00  0.00     0.068 A 
HETATM    9  C13 UNK     1      15.661   6.957   9.836  1.00  0.00     0.041 A 
HETATM   10  C14 UNK     1      16.141   9.443   9.819  1.00  0.00    -0.043 A 
HETATM   11  C15 UNK     1      15.624  10.679   9.812  1.00  0.00     0.090 A 
HETATM   12  C16 UNK     1      14.175  10.944   9.814  1.00  0.00     0.288 A 
HETATM   13  C17 UNK     1      17.626   9.224   9.818  1.00  0.00     0.049 C 
ENDROOT
BRANCH   4  14
HETATM   14  C7  UNK     1      11.456   7.784   9.838  1.00  0.00     0.316 C 
BRANCH  14  15
HETATM   15  N1  UNK     1      10.778   7.201   8.679  1.00  0.00     0.092 N 
HETATM   16  C1  UNK     1       9.323   7.296   8.852  1.00  0.00     0.272 C 
HETATM   17  C3  UNK     1       8.449   6.984   7.634  1.00  0.00     0.030 C 
HETATM   18  C5  UNK     1       8.946   5.827   6.772  1.00  0.00     0.002 C 
HETATM   19  C6  UNK     1       9.983   6.280   5.748  1.00  0.00     0.002 C 
HETATM   20  C4  UNK     1      11.328   6.707   6.330  1.00  0.00     0.030 C 
HETATM   21  C2  UNK     1      11.273   7.774   7.427  1.00  0.00     0.272 C 
ENDBRANCH  14  15
ENDBRANCH   4  14
BRANCH   6  22
HETATM   22  O2  UNK     1      12.465   5.150   9.854  1.00  0.00    -0.358 OA
HETATM   23  H20 UNK     1      12.189   4.976   8.937  1.00  0.00     0.217 HD
ENDBRANCH   6  22
TORSDOF 3
ENDMDL
MODEL 6
REMARK VINA RESULT:      -6.9     13.156     14.592
REMARK  3 active torsions:
REMARK  status: ('A' for Active; 'I' for Inactive)
REMARK    1  A    between atoms: C10_15  and  O2_3 
REMARK    2  A    between atoms: C7_12  and  N1_5 
REMARK    3  A    between atoms: C7_12  and  C8_13 
ROOT
HETATM    1 Cl1  UNK     1      26.494  -8.306  37.983  1.00  0.00    -0.081 Cl
HETATM    2  O1  UNK     1      31.168  -5.645  35.561  1.00  0.00    -0.274 OA
HETATM    3  O3  UNK     1      32.736  -3.980  35.577  1.00  0.00    -0.260 OA
HETATM    4  C8  UNK     1      29.530  -7.381  35.547  1.00  0.00     0.040 A 
HETATM    5  C9  UNK     1      30.053  -6.251  36.172  1.00  0.00     0.101 A 
HETATM    6  C10 UNK     1      28.432  -8.026  36.096  1.00  0.00     0.098 A 
HETATM    7  C11 UNK     1      29.503  -5.736  37.347  1.00  0.00     0.006 A 
HETATM    8  C12 UNK     1      27.862  -7.532  37.269  1.00  0.00     0.068 A 
HETATM    9  C13 UNK     1      28.394  -6.396  37.890  1.00  0.00     0.041 A 
HETATM   10  C14 UNK     1      30.114  -4.540  37.942  1.00  0.00    -0.043 A 
HETATM   11  C15 UNK     1      31.175  -3.984  37.341  1.00  0.00     0.090 A 
HETATM   12  C16 UNK     1      31.765  -4.516  36.100  1.00  0.00     0.288 A 
HETATM   13  C17 UNK     1      29.548  -3.960  39.206  1.00  0.00     0.049 C 
ENDROOT
BRANCH   4  14
HETATM   14  C7  UNK     1      30.152  -7.903  34.283  1.00  0.00     0.316 C 
BRANCH  14  15
HETATM   15  N1  UNK     1      29.674  -7.185  33.100  1.00  0.00     0.092 N 
HETATM   16  C1  UNK     1      30.815  -6.744  32.289  1.00  0.00     0.272 C 
HETATM   17  C3  UNK     1      30.516  -6.212  30.885  1.00  0.00     0.030 C 
HETATM   18  C5  UNK     1      29.254  -5.361  30.781  1.00  0.00     0.002 C 
HETATM   19  C6  UNK     1      28.003  -6.212  30.584  1.00  0.00     0.002 C 
HETATM   20  C4  UNK     1      27.593  -7.056  31.788  1.00  0.00     0.030 C 
HETATM   21  C2  UNK     1      28.680  -7.968  32.365  1.00  0.00     0.272 C 
ENDBRANCH  14  15
ENDBRANCH   4  14
BRANCH   6  22
HETATM   22  O2  UNK     1      27.916  -9.132  35.487  1.00  0.00    -0.358 OA
HETATM   23  H20 UNK     1      28.322  -9.920  35.888  1.00  0.00     0.217 HD
ENDBRANCH   6  22
TORSDOF 3
ENDMDL
MODEL 7
REMARK VINA RESULT:      -6.9     12.894     14.553
REMARK  3 active torsions:
REMARK  status: ('A' for Active; 'I' for Inactive)
REMARK    1  A    between atoms: C10_15  and  O2_3 
REMARK    2  A    between atoms: C7_12  and  N1_5 
REMARK    3  A    between atoms: C7_12  and  C8_13 
ROOT
HETATM    1 Cl1  UNK     1      33.490  -3.523  35.689  1.00  0.00    -0.081 Cl
HETATM    2  O1  UNK     1      28.857  -7.064  36.579  1.00  0.00    -0.274 OA
HETATM    3  O3  UNK     1      27.011  -7.653  37.793  1.00  0.00    -0.260 OA
HETATM    4  C8  UNK     1      30.785  -6.447  35.314  1.00  0.00     0.040 A 
HETATM    5  C9  UNK     1      29.951  -6.195  36.401  1.00  0.00     0.101 A 
HETATM    6  C10 UNK     1      31.880  -5.629  35.082  1.00  0.00     0.098 A 
HETATM    7  C11 UNK     1      30.182  -5.135  37.279  1.00  0.00     0.006 A 
HETATM    8  C12 UNK     1      32.136  -4.563  35.943  1.00  0.00     0.068 A 
HETATM    9  C13 UNK     1      31.293  -4.317  37.034  1.00  0.00     0.041 A 
HETATM   10  C14 UNK     1      29.255  -4.937  38.402  1.00  0.00    -0.043 A 
HETATM   11  C15 UNK     1      28.222  -5.779  38.547  1.00  0.00     0.090 A 
HETATM   12  C16 UNK     1      27.966  -6.902  37.630  1.00  0.00     0.288 A 
HETATM   13  C17 UNK     1      29.474  -3.806  39.365  1.00  0.00     0.049 C 
ENDROOT
BRANCH   4  14
HETATM   14  C7  UNK     1      30.501  -7.599  34.394  1.00  0.00     0.316 C 
BRANCH  14  15
HETATM   15  N1  UNK     1      29.856  -7.164  33.153  1.00  0.00     0.092 N 
HETATM   16  C1  UNK     1      30.550  -7.748  31.999  1.00  0.00     0.272 C 
HETATM   17  C3  UNK     1      29.868  -7.626  30.634  1.00  0.00     0.030 C 
HETATM   18  C5  UNK     1      29.166  -6.294  30.388  1.00  0.00     0.002 C 
HETATM   19  C6  UNK     1      27.748  -6.281  30.952  1.00  0.00     0.002 C 
HETATM   20  C4  UNK     1      27.654  -6.294  32.475  1.00  0.00     0.030 C 
HETATM   21  C2  UNK     1      28.416  -7.420  33.182  1.00  0.00     0.272 C 
ENDBRANCH  14  15
ENDBRANCH   4  14
BRANCH   6  22
HETATM   22  O2  UNK     1      32.700  -5.872  34.020  1.00  0.00    -0.358 OA
HETATM   23  H20 UNK     1      33.621  -5.744  34.307  1.00  0.00     0.217 HD
ENDBRANCH   6  22
TORSDOF 3
ENDMDL
MODEL 8
REMARK VINA RESULT:      -6.9     14.679     16.699
REMARK  3 active torsions:
REMARK  status: ('A' for Active; 'I' for Inactive)
REMARK    1  A    between atoms: C10_15  and  O2_3 
REMARK    2  A    between atoms: C7_12  and  N1_5 
REMARK    3  A    between atoms: C7_12  and  C8_13 
ROOT
HETATM    1 Cl1  UNK     1      34.230  -5.644  37.105  1.00  0.00    -0.081 Cl
HETATM    2  O1  UNK     1      29.027  -8.180  38.242  1.00  0.00    -0.274 OA
HETATM    3  O3  UNK     1      26.903  -8.067  39.082  1.00  0.00    -0.260 OA
HETATM    4  C8  UNK     1      31.245  -8.295  37.367  1.00  0.00     0.040 A 
HETATM    5  C9  UNK     1      30.255  -7.537  37.987  1.00  0.00     0.101 A 
HETATM    6  C10 UNK     1      32.477  -7.722  37.088  1.00  0.00     0.098 A 
HETATM    7  C11 UNK     1      30.460  -6.204  38.344  1.00  0.00     0.006 A 
HETATM    8  C12 UNK     1      32.710  -6.392  37.434  1.00  0.00     0.068 A 
HETATM    9  C13 UNK     1      31.709  -5.638  38.057  1.00  0.00     0.041 A 
HETATM   10  C14 UNK     1      29.363  -5.474  38.995  1.00  0.00    -0.043 A 
HETATM   11  C15 UNK     1      28.206  -6.110  39.225  1.00  0.00     0.090 A 
HETATM   12  C16 UNK     1      27.976  -7.517  38.855  1.00  0.00     0.288 A 
HETATM   13  C17 UNK     1      29.550  -4.038  39.392  1.00  0.00     0.049 C 
ENDROOT
BRANCH   4  14
HETATM   14  C7  UNK     1      30.984  -9.728  37.000  1.00  0.00     0.316 C 
BRANCH  14  15
HETATM   15  N1  UNK     1      30.647  -9.878  35.583  1.00  0.00     0.092 N 
HETATM   16  C1  UNK     1      31.393 -11.004  35.010  1.00  0.00     0.272 C 
HETATM   17  C3  UNK     1      30.979 -11.485  33.616  1.00  0.00     0.030 C 
HETATM   18  C5  UNK     1      30.599 -10.371  32.645  1.00  0.00     0.002 C 
HETATM   19  C6  UNK     1      29.137  -9.956  32.793  1.00  0.00     0.002 C 
HETATM   20  C4  UNK     1      28.796  -9.233  34.093  1.00  0.00     0.030 C 
HETATM   21  C2  UNK     1      29.199  -9.952  35.384  1.00  0.00     0.272 C 
ENDBRANCH  14  15
ENDBRANCH   4  14
BRANCH   6  22
HETATM   22  O2  UNK     1      33.451  -8.461  36.482  1.00  0.00    -0.358 OA
HETATM   23  H20 UNK     1      34.316  -8.121  36.768  1.00  0.00     0.217 HD
ENDBRANCH   6  22
TORSDOF 3
ENDMDL
MODEL 9
REMARK VINA RESULT:      -6.8     14.534     15.471
REMARK  3 active torsions:
REMARK  status: ('A' for Active; 'I' for Inactive)
REMARK    1  A    between atoms: C10_15  and  O2_3 
REMARK    2  A    between atoms: C7_12  and  N1_5 
REMARK    3  A    between atoms: C7_12  and  C8_13 
ROOT
HETATM    1 Cl1  UNK     1      28.683 -10.091  34.363  1.00  0.00    -0.081 Cl
HETATM    2  O1  UNK     1      29.749  -5.366  37.730  1.00  0.00    -0.274 OA
HETATM    3  O3  UNK     1      29.467  -4.216  39.687  1.00  0.00    -0.260 OA
HETATM    4  C8  UNK     1      30.041  -6.568  35.689  1.00  0.00     0.040 A 
HETATM    5  C9  UNK     1      29.471  -6.511  36.958  1.00  0.00     0.101 A 
HETATM    6  C10 UNK     1      29.807  -7.669  34.878  1.00  0.00     0.098 A 
HETATM    7  C11 UNK     1      28.660  -7.535  37.451  1.00  0.00     0.006 A 
HETATM    8  C12 UNK     1      29.000  -8.705  35.343  1.00  0.00     0.068 A 
HETATM    9  C13 UNK     1      28.430  -8.640  36.620  1.00  0.00     0.041 A 
HETATM   10  C14 UNK     1      28.096  -7.397  38.801  1.00  0.00    -0.043 A 
HETATM   11  C15 UNK     1      28.378  -6.297  39.513  1.00  0.00     0.090 A 
HETATM   12  C16 UNK     1      29.231  -5.209  39.007  1.00  0.00     0.288 A 
HETATM   13  C17 UNK     1      27.220  -8.479  39.361  1.00  0.00     0.049 C 
ENDROOT
BRANCH   4  14
HETATM   14  C7  UNK     1      30.908  -5.445  35.197  1.00  0.00     0.316 C 
BRANCH  14  15
HETATM   15  N1  UNK     1      32.330  -5.710  35.423  1.00  0.00     0.092 N 
HETATM   16  C1  UNK     1      33.069  -5.574  34.162  1.00  0.00     0.272 C 
HETATM   17  C3  UNK     1      34.598  -5.552  34.243  1.00  0.00     0.030 C 
HETATM   18  C5  UNK     1      35.197  -6.509  35.269  1.00  0.00     0.002 C 
HETATM   19  C6  UNK     1      35.244  -5.896  36.666  1.00  0.00     0.002 C 
HETATM   20  C4  UNK     1      33.886  -5.690  37.332  1.00  0.00     0.030 C 
HETATM   21  C2  UNK     1      32.857  -4.897  36.520  1.00  0.00     0.272 C 
ENDBRANCH  14  15
ENDBRANCH   4  14
BRANCH   6  22
HETATM   22  O2  UNK     1      30.362  -7.728  33.633  1.00  0.00    -0.358 OA
HETATM   23  H20 UNK     1      31.330  -7.734  33.729  1.00  0.00     0.217 HD
ENDBRANCH   6  22
TORSDOF 3
ENDMDL
MODEL 10
REMARK VINA RESULT:      -6.8      4.584      7.787
REMARK  3 active torsions:
REMARK  status: ('A' for Active; 'I' for Inactive)
REMARK    1  A    between atoms: C10_15  and  O2_3 
REMARK    2  A    between atoms: C7_12  and  N1_5 
REMARK    3  A    between atoms: C7_12  and  C8_13 
ROOT
HETATM    1 Cl1  UNK     1      20.481   9.739  34.624  1.00  0.00    -0.081 Cl
HETATM    2  O1  UNK     1      15.515   6.903  33.177  1.00  0.00    -0.274 OA
HETATM    3  O3  UNK     1      13.292   6.936  32.641  1.00  0.00    -0.260 OA
HETATM    4  C8  UNK     1      17.835   6.871  33.737  1.00  0.00     0.040 A 
HETATM    5  C9  UNK     1      16.680   7.618  33.519  1.00  0.00     0.101 A 
HETATM    6  C10 UNK     1      19.016   7.514  34.077  1.00  0.00     0.098 A 
HETATM    7  C11 UNK     1      16.666   9.009  33.635  1.00  0.00     0.006 A 
HETATM    8  C12 UNK     1      19.032   8.902  34.200  1.00  0.00     0.068 A 
HETATM    9  C13 UNK     1      17.866   9.645  33.980  1.00  0.00     0.041 A 
HETATM   10  C14 UNK     1      15.405   9.722  33.389  1.00  0.00    -0.043 A 
HETATM   11  C15 UNK     1      14.313   9.016  33.064  1.00  0.00     0.090 A 
HETATM   12  C16 UNK     1      14.312   7.549  32.940  1.00  0.00     0.288 A 
HETATM   13  C17 UNK     1      15.356  11.218  33.504  1.00  0.00     0.049 C 
ENDROOT
BRANCH   4  14
HETATM   14  C7  UNK     1      17.807   5.375  33.603  1.00  0.00     0.316 C 
BRANCH  14  15
HETATM   15  N1  UNK     1      18.105   4.942  32.236  1.00  0.00     0.092 N 
HETATM   16  C1  UNK     1      19.071   5.859  31.621  1.00  0.00     0.272 C 
HETATM   17  C3  UNK     1      19.705   5.427  30.296  1.00  0.00     0.030 C 
HETATM   18  C5  UNK     1      18.757   4.713  29.338  1.00  0.00     0.002 C 
HETATM   19  C6  UNK     1      18.663   3.218  29.631  1.00  0.00     0.002 C 
HETATM   20  C4  UNK     1      17.961   2.855  30.937  1.00  0.00     0.030 C 
HETATM   21  C2  UNK     1      18.503   3.534  32.198  1.00  0.00     0.272 C 
ENDBRANCH  14  15
ENDBRANCH   4  14
BRANCH   6  22
HETATM   22  O2  UNK     1      20.150   6.787  34.292  1.00  0.00    -0.358 OA
HETATM   23  H20 UNK     1      20.885   7.404  34.454  1.00  0.00     0.217 HD
ENDBRANCH   6  22
TORSDOF 3
ENDMDL
