MODEL 1
REMARK VINA RESULT:      -8.3      0.000      0.000
REMARK  4 active torsions:
REMARK  status: ('A' for Active; 'I' for Inactive)
REMARK    1  A    between atoms: C13_18  and  O3_3 
REMARK    2  A    between atoms: C9_14  and  O4_4 
REMARK    3  A    between atoms: C10_15  and  O5_5 
REMARK    4  A    between atoms: C5_10  and  C6_11 
ROOT
HETATM    1  O1  UNK     1      14.357   5.150   8.876  1.00  0.00    -0.306 OA
HETATM    2  O2  UNK     1      12.297   7.982   8.350  1.00  0.00    -0.284 OA
HETATM    3  C1  UNK     1      14.483   7.437   9.175  1.00  0.00     0.051 A 
HETATM    4  C2  UNK     1      15.127   6.208   9.303  1.00  0.00     0.093 A 
HETATM    5  C3  UNK     1      13.156   5.705   8.450  1.00  0.00     0.128 A 
HETATM    6  C4  UNK     1      13.163   7.179   8.613  1.00  0.00     0.218 A 
HETATM    7  C6  UNK     1      12.132   5.006   7.959  1.00  0.00     0.055 C 
HETATM    8  C7  UNK     1      15.076   8.626   9.544  1.00  0.00     0.021 A 
HETATM    9  C8  UNK     1      16.405   6.120   9.811  1.00  0.00     0.074 A 
HETATM   10  C10 UNK     1      17.029   7.312  10.193  1.00  0.00     0.068 A 
HETATM   11  C11 UNK     1      16.372   8.552  10.060  1.00  0.00     0.037 A 
ENDROOT
BRANCH   7  12
HETATM   12  C5  UNK     1      10.891   5.578   7.518  1.00  0.00     0.003 A 
HETATM   13  C12 UNK     1      10.760   6.014   6.188  1.00  0.00     0.014 A 
HETATM   14  C14 UNK     1       9.565   6.574   5.735  1.00  0.00     0.004 A 
HETATM   15  C15 UNK     1       8.482   6.705   6.605  1.00  0.00     0.039 A 
HETATM   16  C13 UNK     1       8.595   6.277   7.927  1.00  0.00     0.102 A 
HETATM   17  C9  UNK     1       9.790   5.718   8.381  1.00  0.00     0.109 A 
BRANCH  16  18
HETATM   18  O3  UNK     1       7.529   6.412   8.766  1.00  0.00    -0.353 OA
HETATM   19  C16 UNK     1       7.373   7.670   9.418  1.00  0.00     0.210 C 
ENDBRANCH  16  18
BRANCH  17  20
HETATM   20  O4  UNK     1       9.886   5.304   9.678  1.00  0.00    -0.357 OA
HETATM   21  H8  UNK     1      10.456   5.925  10.162  1.00  0.00     0.217 HD
ENDBRANCH  17  20
ENDBRANCH   7  12
BRANCH  10  22
HETATM   22  O5  UNK     1      18.294   7.276  10.700  1.00  0.00    -0.361 OA
HETATM   23  H9  UNK     1      18.273   7.587  11.622  1.00  0.00     0.217 HD
ENDBRANCH  10  22
TORSDOF 4
ENDMDL
MODEL 2
REMARK VINA RESULT:      -7.6     22.661     25.279
REMARK  4 active torsions:
REMARK  status: ('A' for Active; 'I' for Inactive)
REMARK    1  A    between atoms: C13_18  and  O3_3 
REMARK    2  A    between atoms: C9_14  and  O4_4 
REMARK    3  A    between atoms: C10_15  and  O5_5 
REMARK    4  A    between atoms: C5_10  and  C6_11 
ROOT
HETATM    1  O1  UNK     1      18.052   4.023  33.280  1.00  0.00    -0.306 OA
HETATM    2  O2  UNK     1      18.996   6.905  31.452  1.00  0.00    -0.284 OA
HETATM    3  C1  UNK     1      18.649   4.555  31.113  1.00  0.00     0.051 A 
HETATM    4  C2  UNK     1      18.262   3.555  32.003  1.00  0.00     0.093 A 
HETATM    5  C3  UNK     1      18.309   5.388  33.229  1.00  0.00     0.128 A 
HETATM    6  C4  UNK     1      18.702   5.805  31.861  1.00  0.00     0.218 A 
HETATM    7  C6  UNK     1      18.218   6.215  34.271  1.00  0.00     0.055 C 
HETATM    8  C7  UNK     1      18.911   4.302  29.783  1.00  0.00     0.021 A 
HETATM    9  C8  UNK     1      18.122   2.247  31.592  1.00  0.00     0.074 A 
HETATM   10  C10 UNK     1      18.382   1.964  30.247  1.00  0.00     0.068 A 
HETATM   11  C11 UNK     1      18.772   2.981  29.351  1.00  0.00     0.037 A 
ENDROOT
BRANCH   7  12
HETATM   12  C5  UNK     1      18.484   7.624  34.220  1.00  0.00     0.003 A 
HETATM   13  C12 UNK     1      19.788   8.094  34.455  1.00  0.00     0.014 A 
HETATM   14  C14 UNK     1      20.073   9.459  34.412  1.00  0.00     0.004 A 
HETATM   15  C15 UNK     1      19.058  10.376  34.134  1.00  0.00     0.039 A 
HETATM   16  C13 UNK     1      17.759   9.926  33.899  1.00  0.00     0.102 A 
HETATM   17  C9  UNK     1      17.474   8.562  33.942  1.00  0.00     0.109 A 
BRANCH  16  18
HETATM   18  O3  UNK     1      16.777  10.833  33.629  1.00  0.00    -0.353 OA
HETATM   19  C16 UNK     1      16.419  11.731  34.677  1.00  0.00     0.210 C 
ENDBRANCH  16  18
BRANCH  17  20
HETATM   20  O4  UNK     1      16.197   8.136  33.710  1.00  0.00    -0.357 OA
HETATM   21  H8  UNK     1      15.751   8.009  34.564  1.00  0.00     0.217 HD
ENDBRANCH  17  20
ENDBRANCH   7  12
BRANCH  10  22
HETATM   22  O5  UNK     1      18.255   0.685  29.792  1.00  0.00    -0.361 OA
HETATM   23  H9  UNK     1      18.865   0.553  29.046  1.00  0.00     0.217 HD
ENDBRANCH  10  22
TORSDOF 4
ENDMDL
MODEL 3
REMARK VINA RESULT:      -7.5      1.262      2.004
REMARK  4 active torsions:
REMARK  status: ('A' for Active; 'I' for Inactive)
REMARK    1  A    between atoms: C13_18  and  O3_3 
REMARK    2  A    between atoms: C9_14  and  O4_4 
REMARK    3  A    between atoms: C10_15  and  O5_5 
REMARK    4  A    between atoms: C5_10  and  C6_11 
ROOT
HETATM    1  O1  UNK     1      13.795   8.616   9.067  1.00  0.00    -0.306 OA
HETATM    2  O2  UNK     1      12.507   5.427   8.225  1.00  0.00    -0.284 OA
HETATM    3  C1  UNK     1      14.514   6.422   9.084  1.00  0.00     0.051 A 
HETATM    4  C2  UNK     1      14.827   7.753   9.352  1.00  0.00     0.093 A 
HETATM    5  C3  UNK     1      12.758   7.821   8.592  1.00  0.00     0.128 A 
HETATM    6  C4  UNK     1      13.149   6.391   8.574  1.00  0.00     0.218 A 
HETATM    7  C6  UNK     1      11.569   8.282   8.202  1.00  0.00     0.055 C 
HETATM    8  C7  UNK     1      15.407   5.393   9.299  1.00  0.00     0.021 A 
HETATM    9  C8  UNK     1      16.061   8.110   9.850  1.00  0.00     0.074 A 
HETATM   10  C10 UNK     1      16.985   7.085  10.078  1.00  0.00     0.068 A 
HETATM   11  C11 UNK     1      16.662   5.741   9.805  1.00  0.00     0.037 A 
ENDROOT
BRANCH   7  12
HETATM   12  C5  UNK     1      10.497   7.462   7.711  1.00  0.00     0.003 A 
HETATM   13  C12 UNK     1      10.523   7.008   6.381  1.00  0.00     0.014 A 
HETATM   14  C14 UNK     1       9.494   6.211   5.879  1.00  0.00     0.004 A 
HETATM   15  C15 UNK     1       8.423   5.856   6.700  1.00  0.00     0.039 A 
HETATM   16  C13 UNK     1       8.382   6.298   8.022  1.00  0.00     0.102 A 
HETATM   17  C9  UNK     1       9.411   7.095   8.524  1.00  0.00     0.109 A 
BRANCH  16  18
HETATM   18  O3  UNK     1       7.329   5.944   8.812  1.00  0.00    -0.353 OA
HETATM   19  C16 UNK     1       7.327   4.617   9.334  1.00  0.00     0.210 C 
ENDBRANCH  16  18
BRANCH  17  20
HETATM   20  O4  UNK     1       9.357   7.521   9.820  1.00  0.00    -0.357 OA
HETATM   21  H8  UNK     1       9.753   6.839  10.389  1.00  0.00     0.217 HD
ENDBRANCH  17  20
ENDBRANCH   7  12
BRANCH  10  22
HETATM   22  O5  UNK     1      18.219   7.390  10.571  1.00  0.00    -0.361 OA
HETATM   23  H9  UNK     1      18.292   8.356  10.664  1.00  0.00     0.217 HD
ENDBRANCH  10  22
TORSDOF 4
ENDMDL
MODEL 4
REMARK VINA RESULT:      -7.5     23.593     26.021
REMARK  4 active torsions:
REMARK  status: ('A' for Active; 'I' for Inactive)
REMARK    1  A    between atoms: C13_18  and  O3_3 
REMARK    2  A    between atoms: C9_14  and  O4_4 
REMARK    3  A    between atoms: C10_15  and  O5_5 
REMARK    4  A    between atoms: C5_10  and  C6_11 
ROOT
HETATM    1  O1  UNK     1      18.525   2.650  34.239  1.00  0.00    -0.306 OA
HETATM    2  O2  UNK     1      18.213  -0.408  32.483  1.00  0.00    -0.284 OA
HETATM    3  C1  UNK     1      18.091   0.435  34.726  1.00  0.00     0.051 A 
HETATM    4  C2  UNK     1      18.253   1.727  35.222  1.00  0.00     0.093 A 
HETATM    5  C3  UNK     1      18.544   1.938  33.046  1.00  0.00     0.128 A 
HETATM    6  C4  UNK     1      18.272   0.499  33.281  1.00  0.00     0.218 A 
HETATM    7  C6  UNK     1      18.776   2.474  31.848  1.00  0.00     0.055 C 
HETATM    8  C7  UNK     1      17.812  -0.642  35.541  1.00  0.00     0.021 A 
HETATM    9  C8  UNK     1      18.140   1.994  36.569  1.00  0.00     0.074 A 
HETATM   10  C10 UNK     1      17.857   0.919  37.418  1.00  0.00     0.068 A 
HETATM   11  C11 UNK     1      17.695  -0.386  36.909  1.00  0.00     0.037 A 
ENDROOT
BRANCH   7  12
HETATM   12  C5  UNK     1      18.796   1.740  30.615  1.00  0.00     0.003 A 
HETATM   13  C12 UNK     1      17.800   1.973  29.650  1.00  0.00     0.014 A 
HETATM   14  C14 UNK     1      17.797   1.272  28.444  1.00  0.00     0.004 A 
HETATM   15  C15 UNK     1      18.790   0.327  28.183  1.00  0.00     0.039 A 
HETATM   16  C13 UNK     1      19.786   0.084  29.129  1.00  0.00     0.102 A 
HETATM   17  C9  UNK     1      19.789   0.784  30.335  1.00  0.00     0.109 A 
BRANCH  16  18
HETATM   18  O3  UNK     1      20.748  -0.843  28.861  1.00  0.00    -0.353 OA
HETATM   19  C16 UNK     1      20.622  -2.112  29.498  1.00  0.00     0.210 C 
ENDBRANCH  16  18
BRANCH  17  20
HETATM   20  O4  UNK     1      20.769   0.535  31.252  1.00  0.00    -0.357 OA
HETATM   21  H8  UNK     1      21.284  -0.236  30.956  1.00  0.00     0.217 HD
ENDBRANCH  17  20
ENDBRANCH   7  12
BRANCH  10  22
HETATM   22  O5  UNK     1      17.735   1.134  38.758  1.00  0.00    -0.361 OA
HETATM   23  H9  UNK     1      18.330   1.859  39.017  1.00  0.00     0.217 HD
ENDBRANCH  10  22
TORSDOF 4
ENDMDL
MODEL 5
REMARK VINA RESULT:      -7.4     23.086     25.279
REMARK  4 active torsions:
REMARK  status: ('A' for Active; 'I' for Inactive)
REMARK    1  A    between atoms: C13_18  and  O3_3 
REMARK    2  A    between atoms: C9_14  and  O4_4 
REMARK    3  A    between atoms: C10_15  and  O5_5 
REMARK    4  A    between atoms: C5_10  and  C6_11 
ROOT
HETATM    1  O1  UNK     1      18.074   9.290  33.902  1.00  0.00    -0.306 OA
HETATM    2  O2  UNK     1      16.142   7.068  31.934  1.00  0.00    -0.284 OA
HETATM    3  C1  UNK     1      15.912   9.153  33.100  1.00  0.00     0.051 A 
HETATM    4  C2  UNK     1      16.835   9.885  33.845  1.00  0.00     0.093 A 
HETATM    5  C3  UNK     1      17.963   8.117  33.165  1.00  0.00     0.128 A 
HETATM    6  C4  UNK     1      16.595   7.960  32.616  1.00  0.00     0.218 A 
HETATM    7  C6  UNK     1      18.955   7.246  32.976  1.00  0.00     0.055 C 
HETATM    8  C7  UNK     1      14.611   9.570  32.916  1.00  0.00     0.021 A 
HETATM    9  C8  UNK     1      16.486  11.078  34.441  1.00  0.00     0.074 A 
HETATM   10  C10 UNK     1      15.171  11.524  34.268  1.00  0.00     0.068 A 
HETATM   11  C11 UNK     1      14.243  10.778  33.513  1.00  0.00     0.037 A 
ENDROOT
BRANCH   7  12
HETATM   12  C5  UNK     1      18.843   6.034  32.215  1.00  0.00     0.003 A 
HETATM   13  C12 UNK     1      19.212   6.028  30.859  1.00  0.00     0.014 A 
HETATM   14  C14 UNK     1      19.112   4.863  30.097  1.00  0.00     0.004 A 
HETATM   15  C15 UNK     1      18.642   3.686  30.681  1.00  0.00     0.039 A 
HETATM   16  C13 UNK     1      18.272   3.674  32.025  1.00  0.00     0.102 A 
HETATM   17  C9  UNK     1      18.372   4.839  32.787  1.00  0.00     0.109 A 
BRANCH  16  18
HETATM   18  O3  UNK     1      17.814   2.518  32.582  1.00  0.00    -0.353 OA
HETATM   19  C16 UNK     1      18.561   1.332  32.321  1.00  0.00     0.210 C 
ENDBRANCH  16  18
BRANCH  17  20
HETATM   20  O4  UNK     1      18.006   4.813  34.102  1.00  0.00    -0.357 OA
HETATM   21  H8  UNK     1      17.654   3.931  34.310  1.00  0.00     0.217 HD
ENDBRANCH  17  20
ENDBRANCH   7  12
BRANCH  10  22
HETATM   22  O5  UNK     1      14.780  12.699  34.838  1.00  0.00    -0.361 OA
HETATM   23  H9  UNK     1      14.108  12.512  35.517  1.00  0.00     0.217 HD
ENDBRANCH  10  22
TORSDOF 4
ENDMDL
MODEL 6
REMARK VINA RESULT:      -7.3     22.673     24.703
REMARK  4 active torsions:
REMARK  status: ('A' for Active; 'I' for Inactive)
REMARK    1  A    between atoms: C13_18  and  O3_3 
REMARK    2  A    between atoms: C9_14  and  O4_4 
REMARK    3  A    between atoms: C10_15  and  O5_5 
REMARK    4  A    between atoms: C5_10  and  C6_11 
ROOT
HETATM    1  O1  UNK     1      18.779   4.136  29.981  1.00  0.00    -0.306 OA
HETATM    2  O2  UNK     1      18.005   3.974  33.432  1.00  0.00    -0.284 OA
HETATM    3  C1  UNK     1      18.605   2.520  31.621  1.00  0.00     0.051 A 
HETATM    4  C2  UNK     1      18.878   2.798  30.283  1.00  0.00     0.093 A 
HETATM    5  C3  UNK     1      18.427   4.766  31.169  1.00  0.00     0.128 A 
HETATM    6  C4  UNK     1      18.296   3.786  32.273  1.00  0.00     0.218 A 
HETATM    7  C6  UNK     1      18.231   6.079  31.300  1.00  0.00     0.055 C 
HETATM    8  C7  UNK     1      18.648   1.241  32.135  1.00  0.00     0.021 A 
HETATM    9  C8  UNK     1      19.208   1.795  29.397  1.00  0.00     0.074 A 
HETATM   10  C10 UNK     1      19.259   0.488  29.894  1.00  0.00     0.068 A 
HETATM   11  C11 UNK     1      18.982   0.214  31.249  1.00  0.00     0.037 A 
ENDROOT
BRANCH   7  12
HETATM   12  C5  UNK     1      17.867   6.731  32.525  1.00  0.00     0.003 A 
HETATM   13  C12 UNK     1      18.871   7.126  33.428  1.00  0.00     0.014 A 
HETATM   14  C14 UNK     1      18.543   7.761  34.626  1.00  0.00     0.004 A 
HETATM   15  C15 UNK     1      17.207   8.012  34.940  1.00  0.00     0.039 A 
HETATM   16  C13 UNK     1      16.199   7.627  34.057  1.00  0.00     0.102 A 
HETATM   17  C9  UNK     1      16.526   6.992  32.858  1.00  0.00     0.109 A 
BRANCH  16  18
HETATM   18  O3  UNK     1      14.899   7.878  34.377  1.00  0.00    -0.353 OA
HETATM   19  C16 UNK     1      14.438   9.218  34.219  1.00  0.00     0.210 C 
ENDBRANCH  16  18
BRANCH  17  20
HETATM   20  O4  UNK     1      15.529   6.620  32.003  1.00  0.00    -0.357 OA
HETATM   21  H8  UNK     1      14.715   7.089  32.252  1.00  0.00     0.217 HD
ENDBRANCH  17  20
ENDBRANCH   7  12
BRANCH  10  22
HETATM   22  O5  UNK     1      19.581  -0.538  29.056  1.00  0.00    -0.361 OA
HETATM   23  H9  UNK     1      18.920  -1.245  29.154  1.00  0.00     0.217 HD
ENDBRANCH  10  22
TORSDOF 4
ENDMDL
MODEL 7
REMARK VINA RESULT:      -7.3     29.255     31.530
REMARK  4 active torsions:
REMARK  status: ('A' for Active; 'I' for Inactive)
REMARK    1  A    between atoms: C13_18  and  O3_3 
REMARK    2  A    between atoms: C9_14  and  O4_4 
REMARK    3  A    between atoms: C10_15  and  O5_5 
REMARK    4  A    between atoms: C5_10  and  C6_11 
ROOT
HETATM    1  O1  UNK     1      21.663  -6.160  37.594  1.00  0.00    -0.306 OA
HETATM    2  O2  UNK     1      18.419  -5.265  36.492  1.00  0.00    -0.284 OA
HETATM    3  C1  UNK     1      19.705  -7.228  36.993  1.00  0.00     0.051 A 
HETATM    4  C2  UNK     1      21.021  -7.366  37.430  1.00  0.00     0.093 A 
HETATM    5  C3  UNK     1      20.731  -5.187  37.250  1.00  0.00     0.128 A 
HETATM    6  C4  UNK     1      19.442  -5.801  36.850  1.00  0.00     0.218 A 
HETATM    7  C6  UNK     1      20.965  -3.874  37.274  1.00  0.00     0.055 C 
HETATM    8  C7  UNK     1      18.882  -8.311  36.765  1.00  0.00     0.021 A 
HETATM    9  C8  UNK     1      21.571  -8.608  37.659  1.00  0.00     0.074 A 
HETATM   10  C10 UNK     1      20.757  -9.724  37.437  1.00  0.00     0.068 A 
HETATM   11  C11 UNK     1      19.426  -9.577  36.995  1.00  0.00     0.037 A 
ENDROOT
BRANCH   7  12
HETATM   12  C5  UNK     1      20.005  -2.868  36.919  1.00  0.00     0.003 A 
HETATM   13  C12 UNK     1      19.083  -2.417  37.880  1.00  0.00     0.014 A 
HETATM   14  C14 UNK     1      18.139  -1.440  37.561  1.00  0.00     0.004 A 
HETATM   15  C15 UNK     1      18.103  -0.900  36.275  1.00  0.00     0.039 A 
HETATM   16  C13 UNK     1      19.010  -1.335  35.309  1.00  0.00     0.102 A 
HETATM   17  C9  UNK     1      19.953  -2.312  35.629  1.00  0.00     0.109 A 
BRANCH  16  18
HETATM   18  O3  UNK     1      18.962  -0.800  34.057  1.00  0.00    -0.353 OA
HETATM   19  C16 UNK     1      18.267   0.436  33.907  1.00  0.00     0.210 C 
ENDBRANCH  16  18
BRANCH  17  20
HETATM   20  O4  UNK     1      20.835  -2.730  34.674  1.00  0.00    -0.357 OA
HETATM   21  H8  UNK     1      20.715  -2.183  33.879  1.00  0.00     0.217 HD
ENDBRANCH  17  20
ENDBRANCH   7  12
BRANCH  10  22
HETATM   22  O5  UNK     1      21.256 -10.974  37.651  1.00  0.00    -0.361 OA
HETATM   23  H9  UNK     1      21.991 -10.916  38.286  1.00  0.00     0.217 HD
ENDBRANCH  10  22
TORSDOF 4
ENDMDL
MODEL 8
REMARK VINA RESULT:      -7.3     29.578     31.711
REMARK  4 active torsions:
REMARK  status: ('A' for Active; 'I' for Inactive)
REMARK    1  A    between atoms: C13_18  and  O3_3 
REMARK    2  A    between atoms: C9_14  and  O4_4 
REMARK    3  A    between atoms: C10_15  and  O5_5 
REMARK    4  A    between atoms: C5_10  and  C6_11 
ROOT
HETATM    1  O1  UNK     1      21.395  -5.381  38.323  1.00  0.00    -0.306 OA
HETATM    2  O2  UNK     1      18.416  -5.000  36.447  1.00  0.00    -0.284 OA
HETATM    3  C1  UNK     1      19.558  -6.659  37.750  1.00  0.00     0.051 A 
HETATM    4  C2  UNK     1      20.772  -6.603  38.433  1.00  0.00     0.093 A 
HETATM    5  C3  UNK     1      20.556  -4.599  37.537  1.00  0.00     0.128 A 
HETATM    6  C4  UNK     1      19.350  -5.358  37.128  1.00  0.00     0.218 A 
HETATM    7  C6  UNK     1      20.803  -3.335  37.193  1.00  0.00     0.055 C 
HETATM    8  C7  UNK     1      18.772  -7.792  37.729  1.00  0.00     0.021 A 
HETATM    9  C8  UNK     1      21.251  -7.691  39.129  1.00  0.00     0.074 A 
HETATM   10  C10 UNK     1      20.472  -8.853  39.124  1.00  0.00     0.068 A 
HETATM   11  C11 UNK     1      19.245  -8.903  38.432  1.00  0.00     0.037 A 
ENDROOT
BRANCH   7  12
HETATM   12  C5  UNK     1      19.940  -2.526  36.381  1.00  0.00     0.003 A 
HETATM   13  C12 UNK     1      20.154  -2.457  34.993  1.00  0.00     0.014 A 
HETATM   14  C14 UNK     1      19.329  -1.678  34.182  1.00  0.00     0.004 A 
HETATM   15  C15 UNK     1      18.277  -0.956  34.745  1.00  0.00     0.039 A 
HETATM   16  C13 UNK     1      18.049  -1.013  36.120  1.00  0.00     0.102 A 
HETATM   17  C9  UNK     1      18.874  -1.792  36.932  1.00  0.00     0.109 A 
BRANCH  16  18
HETATM   18  O3  UNK     1      17.019  -0.302  36.657  1.00  0.00    -0.353 OA
HETATM   19  C16 UNK     1      16.019   0.171  35.758  1.00  0.00     0.210 C 
ENDBRANCH  16  18
BRANCH  17  20
HETATM   20  O4  UNK     1      18.641  -1.838  38.276  1.00  0.00    -0.357 OA
HETATM   21  H8  UNK     1      17.701  -2.036  38.423  1.00  0.00     0.217 HD
ENDBRANCH  17  20
ENDBRANCH   7  12
BRANCH  10  22
HETATM   22  O5  UNK     1      20.904  -9.955  39.800  1.00  0.00    -0.361 OA
HETATM   23  H9  UNK     1      21.694  -9.719  40.316  1.00  0.00     0.217 HD
ENDBRANCH  10  22
TORSDOF 4
ENDMDL
MODEL 9
REMARK VINA RESULT:      -7.3     22.723     24.891
REMARK  4 active torsions:
REMARK  status: ('A' for Active; 'I' for Inactive)
REMARK    1  A    between atoms: C13_18  and  O3_3 
REMARK    2  A    between atoms: C9_14  and  O4_4 
REMARK    3  A    between atoms: C10_15  and  O5_5 
REMARK    4  A    between atoms: C5_10  and  C6_11 
ROOT
HETATM    1  O1  UNK     1      18.896   3.516  29.732  1.00  0.00    -0.306 OA
HETATM    2  O2  UNK     1      18.145   3.566  33.192  1.00  0.00    -0.284 OA
HETATM    3  C1  UNK     1      18.759   2.007  31.475  1.00  0.00     0.051 A 
HETATM    4  C2  UNK     1      19.019   2.202  30.120  1.00  0.00     0.093 A 
HETATM    5  C3  UNK     1      18.541   4.216  30.879  1.00  0.00     0.128 A 
HETATM    6  C4  UNK     1      18.433   3.308  32.046  1.00  0.00     0.218 A 
HETATM    7  C6  UNK     1      18.325   5.531  30.926  1.00  0.00     0.055 C 
HETATM    8  C7  UNK     1      18.825   0.765  32.071  1.00  0.00     0.021 A 
HETATM    9  C8  UNK     1      19.359   1.148  29.299  1.00  0.00     0.074 A 
HETATM   10  C10 UNK     1      19.434  -0.122  29.880  1.00  0.00     0.068 A 
HETATM   11  C11 UNK     1      19.170  -0.312  31.251  1.00  0.00     0.037 A 
ENDROOT
BRANCH   7  12
HETATM   12  C5  UNK     1      17.958   6.256  32.109  1.00  0.00     0.003 A 
HETATM   13  C12 UNK     1      16.599   6.418  32.433  1.00  0.00     0.014 A 
HETATM   14  C14 UNK     1      16.216   7.118  33.576  1.00  0.00     0.004 A 
HETATM   15  C15 UNK     1      17.186   7.669  34.415  1.00  0.00     0.039 A 
HETATM   16  C13 UNK     1      18.538   7.518  34.110  1.00  0.00     0.102 A 
HETATM   17  C9  UNK     1      18.921   6.818  32.966  1.00  0.00     0.109 A 
BRANCH  16  18
HETATM   18  O3  UNK     1      19.475   8.062  34.937  1.00  0.00    -0.353 OA
HETATM   19  C16 UNK     1      20.030   9.317  34.552  1.00  0.00     0.210 C 
ENDBRANCH  16  18
BRANCH  17  20
HETATM   20  O4  UNK     1      20.249   6.679  32.679  1.00  0.00    -0.357 OA
HETATM   21  H8  UNK     1      20.338   6.326  31.777  1.00  0.00     0.217 HD
ENDBRANCH  17  20
ENDBRANCH   7  12
BRANCH  10  22
HETATM   22  O5  UNK     1      19.768  -1.195  29.108  1.00  0.00    -0.361 OA
HETATM   23  H9  UNK     1      19.771  -0.923  28.174  1.00  0.00     0.217 HD
ENDBRANCH  10  22
TORSDOF 4
ENDMDL
MODEL 10
REMARK VINA RESULT:      -7.3     22.687     24.699
REMARK  4 active torsions:
REMARK  status: ('A' for Active; 'I' for Inactive)
REMARK    1  A    between atoms: C13_18  and  O3_3 
REMARK    2  A    between atoms: C9_14  and  O4_4 
REMARK    3  A    between atoms: C10_15  and  O5_5 
REMARK    4  A    between atoms: C5_10  and  C6_11 
ROOT
HETATM    1  O1  UNK     1      17.083   5.367  33.343  1.00  0.00    -0.306 OA
HETATM    2  O2  UNK     1      17.125   8.483  31.661  1.00  0.00    -0.284 OA
HETATM    3  C1  UNK     1      17.895   6.230  31.361  1.00  0.00     0.051 A 
HETATM    4  C2  UNK     1      17.768   5.109  32.178  1.00  0.00     0.093 A 
HETATM    5  C3  UNK     1      16.744   6.714  33.291  1.00  0.00     0.128 A 
HETATM    6  C4  UNK     1      17.235   7.339  32.039  1.00  0.00     0.218 A 
HETATM    7  C6  UNK     1      16.067   7.361  34.241  1.00  0.00     0.055 C 
HETATM    8  C7  UNK     1      18.546   6.191  30.146  1.00  0.00     0.021 A 
HETATM    9  C8  UNK     1      18.295   3.891  31.807  1.00  0.00     0.074 A 
HETATM   10  C10 UNK     1      18.961   3.825  30.578  1.00  0.00     0.068 A 
HETATM   11  C11 UNK     1      19.085   4.963  29.756  1.00  0.00     0.037 A 
ENDROOT
BRANCH   7  12
HETATM   12  C5  UNK     1      15.716   8.752  34.189  1.00  0.00     0.003 A 
HETATM   13  C12 UNK     1      16.643   9.719  34.616  1.00  0.00     0.014 A 
HETATM   14  C14 UNK     1      16.327  11.077  34.577  1.00  0.00     0.004 A 
HETATM   15  C15 UNK     1      15.078  11.489  34.109  1.00  0.00     0.039 A 
HETATM   16  C13 UNK     1      14.147  10.543  33.681  1.00  0.00     0.102 A 
HETATM   17  C9  UNK     1      14.463   9.185  33.721  1.00  0.00     0.109 A 
BRANCH  16  18
HETATM   18  O3  UNK     1      12.931  10.960  33.228  1.00  0.00    -0.353 OA
HETATM   19  C16 UNK     1      12.912  12.114  32.392  1.00  0.00     0.210 C 
ENDBRANCH  16  18
BRANCH  17  20
HETATM   20  O4  UNK     1      13.542   8.270  33.300  1.00  0.00    -0.357 OA
HETATM   21  H8  UNK     1      13.356   7.656  34.030  1.00  0.00     0.217 HD
ENDBRANCH  17  20
ENDBRANCH   7  12
BRANCH  10  22
HETATM   22  O5  UNK     1      19.499   2.641  30.168  1.00  0.00    -0.361 OA
HETATM   23  H9  UNK     1      20.412   2.578  30.497  1.00  0.00     0.217 HD
ENDBRANCH  10  22
TORSDOF 4
ENDMDL
