MODEL 1
REMARK VINA RESULT:     -11.0      0.000      0.000
REMARK  3 active torsions:
REMARK  status: ('A' for Active; 'I' for Inactive)
REMARK    1  A    between atoms: C9_17  and  N1_5 
REMARK       I    between atoms: C12_20  and  N2_6 
REMARK    2  A    between atoms: C3_11  and  N2_6 
REMARK    3  A    between atoms: C12_20  and  C8_16 
ROOT
HETATM    1  N1  UNK     1      18.337   1.690  34.343  1.00  0.00    -0.150 N 
HETATM    2  N3  UNK     1      18.759   0.545  33.802  1.00  0.00    -0.147 NA
HETATM    3  N4  UNK     1      17.960   1.710  35.624  1.00  0.00    -0.147 NA
HETATM    4  C1  UNK     1      18.657  -0.311  34.832  1.00  0.00     0.111 A 
HETATM    5  C2  UNK     1      18.147   0.432  35.994  1.00  0.00     0.109 A 
HETATM    6  C3  UNK     1      18.723  -2.259  36.148  1.00  0.00     0.037 A 
HETATM    7  C4  UNK     1      18.956  -1.685  34.892  1.00  0.00     0.065 A 
HETATM    8  C5  UNK     1      17.926  -0.184  37.240  1.00  0.00     0.038 A 
HETATM    9  C7  UNK     1      18.234  -1.557  37.272  1.00  0.00     0.032 A 
ENDROOT
BRANCH   6  10
HETATM   10  N2  UNK     1      18.997  -3.639  36.300  1.00  0.00    -0.323 N 
HETATM   11  C12 UNK     1      20.175  -4.227  36.731  1.00  0.00     0.262 C 
HETATM   12  O2  UNK     1      21.233  -3.701  37.073  1.00  0.00    -0.267 OA
HETATM   13  H4  UNK     1      18.213  -4.246  36.076  1.00  0.00     0.169 HD
BRANCH  11  14
HETATM   14  C8  UNK     1      20.109  -5.692  36.767  1.00  0.00     0.108 A 
HETATM   15  C10 UNK     1      19.999  -6.249  37.979  1.00  0.00     0.037 A 
HETATM   16  C6  UNK     1      19.927  -7.696  38.117  1.00  0.00    -0.001 A 
HETATM   17  C11 UNK     1      19.973  -8.484  36.972  1.00  0.00     0.089 A 
HETATM   18  C14 UNK     1      19.812  -8.321  39.361  1.00  0.00     0.014 A 
HETATM   19  O1  UNK     1      20.089  -7.892  35.699  1.00  0.00    -0.274 OA
HETATM   20  C15 UNK     1      19.909  -9.875  37.036  1.00  0.00     0.038 A 
HETATM   21  C13 UNK     1      20.160  -6.512  35.536  1.00  0.00     0.304 A 
HETATM   22  O3  UNK     1      20.262  -6.005  34.423  1.00  0.00    -0.259 OA
HETATM   23  C19 UNK     1      19.794 -10.490  38.280  1.00  0.00     0.003 A 
HETATM   24  C18 UNK     1      19.746  -9.714  39.441  1.00  0.00     0.001 A 
ENDBRANCH  11  14
ENDBRANCH   6  10
BRANCH   1  25
HETATM   25  C9  UNK     1      18.291   2.854  33.579  1.00  0.00     0.079 A 
HETATM   26  C16 UNK     1      18.232   2.765  32.193  1.00  0.00     0.036 A 
HETATM   27  C20 UNK     1      18.187   3.930  31.428  1.00  0.00     0.044 A 
HETATM   28  C22 UNK     1      18.201   5.176  32.054  1.00  0.00     0.116 A 
HETATM   29  C21 UNK     1      18.260   5.257  33.445  1.00  0.00     0.044 A 
HETATM   30  F1  UNK     1      18.156   6.296  31.319  1.00  0.00    -0.206 F 
HETATM   31  C17 UNK     1      18.305   4.092  34.211  1.00  0.00     0.036 A 
ENDBRANCH   1  25
TORSDOF 3
ENDMDL
MODEL 2
REMARK VINA RESULT:     -10.9      1.187      1.332
REMARK  3 active torsions:
REMARK  status: ('A' for Active; 'I' for Inactive)
REMARK    1  A    between atoms: C9_17  and  N1_5 
REMARK       I    between atoms: C12_20  and  N2_6 
REMARK    2  A    between atoms: C3_11  and  N2_6 
REMARK    3  A    between atoms: C12_20  and  C8_16 
ROOT
HETATM    1  N1  UNK     1      18.245   1.961  34.273  1.00  0.00    -0.150 N 
HETATM    2  N3  UNK     1      18.639   0.737  33.912  1.00  0.00    -0.147 NA
HETATM    3  N4  UNK     1      17.824   2.172  35.522  1.00  0.00    -0.147 NA
HETATM    4  C1  UNK     1      18.466   0.038  35.046  1.00  0.00     0.111 A 
HETATM    5  C2  UNK     1      17.946   0.953  36.073  1.00  0.00     0.109 A 
HETATM    6  C3  UNK     1      18.407  -1.708  36.620  1.00  0.00     0.037 A 
HETATM    7  C4  UNK     1      18.708  -1.324  35.308  1.00  0.00     0.065 A 
HETATM    8  C5  UNK     1      17.657   0.526  37.382  1.00  0.00     0.038 A 
HETATM    9  C7  UNK     1      17.908  -0.840  37.616  1.00  0.00     0.032 A 
ENDROOT
BRANCH   6  10
HETATM   10  N2  UNK     1      18.620  -3.062  36.973  1.00  0.00    -0.323 N 
HETATM   11  C12 UNK     1      19.627  -3.905  36.533  1.00  0.00     0.262 C 
HETATM   12  O2  UNK     1      20.550  -3.681  35.752  1.00  0.00    -0.267 OA
HETATM   13  H4  UNK     1      17.948  -3.428  37.643  1.00  0.00     0.169 HD
BRANCH  11  14
HETATM   14  C8  UNK     1      19.543  -5.254  37.105  1.00  0.00     0.108 A 
HETATM   15  C10 UNK     1      20.612  -5.673  37.792  1.00  0.00     0.037 A 
HETATM   16  C6  UNK     1      20.623  -6.997  38.396  1.00  0.00    -0.001 A 
HETATM   17  C11 UNK     1      19.506  -7.813  38.248  1.00  0.00     0.089 A 
HETATM   18  C14 UNK     1      21.717  -7.476  39.120  1.00  0.00     0.014 A 
HETATM   19  O1  UNK     1      18.383  -7.366  37.525  1.00  0.00    -0.274 OA
HETATM   20  C15 UNK     1      19.453  -9.091  38.802  1.00  0.00     0.038 A 
HETATM   21  C13 UNK     1      18.344  -6.105  36.936  1.00  0.00     0.304 A 
HETATM   22  O3  UNK     1      17.362  -5.724  36.307  1.00  0.00    -0.259 OA
HETATM   23  C19 UNK     1      20.548  -9.560  39.523  1.00  0.00     0.003 A 
HETATM   24  C18 UNK     1      21.678  -8.755  39.681  1.00  0.00     0.001 A 
ENDBRANCH  11  14
ENDBRANCH   6  10
BRANCH   1  25
HETATM   25  C9  UNK     1      18.273   3.007  33.353  1.00  0.00     0.079 A 
HETATM   26  C16 UNK     1      18.287   2.727  31.992  1.00  0.00     0.036 A 
HETATM   27  C20 UNK     1      18.316   3.774  31.072  1.00  0.00     0.044 A 
HETATM   28  C22 UNK     1      18.330   5.096  31.520  1.00  0.00     0.116 A 
HETATM   29  C21 UNK     1      18.316   5.368  32.887  1.00  0.00     0.044 A 
HETATM   30  F1  UNK     1      18.356   6.102  30.636  1.00  0.00    -0.206 F 
HETATM   31  C17 UNK     1      18.287   4.321  33.808  1.00  0.00     0.036 A 
ENDBRANCH   1  25
TORSDOF 3
ENDMDL
MODEL 3
REMARK VINA RESULT:     -10.7      7.785     13.631
REMARK  3 active torsions:
REMARK  status: ('A' for Active; 'I' for Inactive)
REMARK    1  A    between atoms: C9_17  and  N1_5 
REMARK       I    between atoms: C12_20  and  N2_6 
REMARK    2  A    between atoms: C3_11  and  N2_6 
REMARK    3  A    between atoms: C12_20  and  C8_16 
ROOT
HETATM    1  N1  UNK     1      19.098   2.134  30.771  1.00  0.00    -0.150 N 
HETATM    2  N3  UNK     1      18.347   2.477  31.820  1.00  0.00    -0.147 NA
HETATM    3  N4  UNK     1      19.485   3.076  29.906  1.00  0.00    -0.147 NA
HETATM    4  C1  UNK     1      18.208   3.802  31.649  1.00  0.00     0.111 A 
HETATM    5  C2  UNK     1      18.934   4.184  30.429  1.00  0.00     0.109 A 
HETATM    6  C3  UNK     1      17.589   6.051  31.945  1.00  0.00     0.037 A 
HETATM    7  C4  UNK     1      17.516   4.742  32.436  1.00  0.00     0.065 A 
HETATM    8  C5  UNK     1      18.982   5.513  29.970  1.00  0.00     0.038 A 
HETATM    9  C7  UNK     1      18.282   6.431  30.775  1.00  0.00     0.032 A 
ENDROOT
BRANCH   6  10
HETATM   10  N2  UNK     1      16.921   7.064  32.674  1.00  0.00    -0.323 N 
HETATM   11  C12 UNK     1      16.252   8.168  32.173  1.00  0.00     0.262 C 
HETATM   12  O2  UNK     1      16.085   8.520  31.006  1.00  0.00    -0.267 OA
HETATM   13  H4  UNK     1      16.935   6.930  33.682  1.00  0.00     0.169 HD
BRANCH  11  14
HETATM   14  C8  UNK     1      15.673   9.017  33.221  1.00  0.00     0.108 A 
HETATM   15  C10 UNK     1      14.639   9.785  32.857  1.00  0.00     0.037 A 
HETATM   16  C6  UNK     1      14.000  10.661  33.827  1.00  0.00    -0.001 A 
HETATM   17  C11 UNK     1      14.480  10.685  35.131  1.00  0.00     0.089 A 
HETATM   18  C14 UNK     1      12.918  11.479  33.491  1.00  0.00     0.014 A 
HETATM   19  O1  UNK     1      15.569   9.875  35.509  1.00  0.00    -0.274 OA
HETATM   20  C15 UNK     1      13.912  11.503  36.107  1.00  0.00     0.038 A 
HETATM   21  C13 UNK     1      16.201   9.027  34.604  1.00  0.00     0.304 A 
HETATM   22  O3  UNK     1      17.149   8.325  34.941  1.00  0.00    -0.259 OA
HETATM   23  C19 UNK     1      12.834  12.314  35.764  1.00  0.00     0.003 A 
HETATM   24  C18 UNK     1      12.338  12.304  34.459  1.00  0.00     0.001 A 
ENDBRANCH  11  14
ENDBRANCH   6  10
BRANCH   1  25
HETATM   25  C9  UNK     1      19.475   0.806  30.579  1.00  0.00     0.079 A 
HETATM   26  C16 UNK     1      19.375  -0.095  31.632  1.00  0.00     0.036 A 
HETATM   27  C20 UNK     1      19.753  -1.424  31.441  1.00  0.00     0.044 A 
HETATM   28  C22 UNK     1      20.226  -1.842  30.198  1.00  0.00     0.116 A 
HETATM   29  C21 UNK     1      20.323  -0.931  29.146  1.00  0.00     0.044 A 
HETATM   30  F1  UNK     1      20.588  -3.119  30.013  1.00  0.00    -0.206 F 
HETATM   31  C17 UNK     1      19.945   0.398  29.337  1.00  0.00     0.036 A 
ENDBRANCH   1  25
TORSDOF 3
ENDMDL
MODEL 4
REMARK VINA RESULT:     -10.6      1.012      1.737
REMARK  3 active torsions:
REMARK  status: ('A' for Active; 'I' for Inactive)
REMARK    1  A    between atoms: C9_17  and  N1_5 
REMARK       I    between atoms: C12_20  and  N2_6 
REMARK    2  A    between atoms: C3_11  and  N2_6 
REMARK    3  A    between atoms: C12_20  and  C8_16 
ROOT
HETATM    1  N1  UNK     1      18.310   1.523  34.529  1.00  0.00    -0.150 N 
HETATM    2  N3  UNK     1      18.940   0.399  34.178  1.00  0.00    -0.147 NA
HETATM    3  N4  UNK     1      17.731   1.602  35.729  1.00  0.00    -0.147 NA
HETATM    4  C1  UNK     1      18.769  -0.373  35.264  1.00  0.00     0.111 A 
HETATM    5  C2  UNK     1      17.998   0.394  36.253  1.00  0.00     0.109 A 
HETATM    6  C3  UNK     1      18.840  -2.178  36.769  1.00  0.00     0.037 A 
HETATM    7  C4  UNK     1      19.207  -1.688  35.510  1.00  0.00     0.065 A 
HETATM    8  C5  UNK     1      17.650  -0.137  37.509  1.00  0.00     0.038 A 
HETATM    9  C7  UNK     1      18.100  -1.452  37.728  1.00  0.00     0.032 A 
ENDROOT
BRANCH   6  10
HETATM   10  N2  UNK     1      19.239  -3.494  37.102  1.00  0.00    -0.323 N 
HETATM   11  C12 UNK     1      19.901  -4.409  36.300  1.00  0.00     0.262 C 
HETATM   12  O2  UNK     1      20.288  -4.295  35.138  1.00  0.00    -0.267 OA
HETATM   13  H4  UNK     1      19.016  -3.768  38.056  1.00  0.00     0.169 HD
BRANCH  11  14
HETATM   14  C8  UNK     1      20.158  -5.688  36.972  1.00  0.00     0.108 A 
HETATM   15  C10 UNK     1      19.345  -6.700  36.648  1.00  0.00     0.037 A 
HETATM   16  C6  UNK     1      19.519  -8.007  37.263  1.00  0.00    -0.001 A 
HETATM   17  C11 UNK     1      20.543  -8.184  38.187  1.00  0.00     0.089 A 
HETATM   18  C14 UNK     1      18.694  -9.091  36.956  1.00  0.00     0.014 A 
HETATM   19  O1  UNK     1      21.397  -7.115  38.524  1.00  0.00    -0.274 OA
HETATM   20  C15 UNK     1      20.765  -9.410  38.812  1.00  0.00     0.038 A 
HETATM   21  C13 UNK     1      21.254  -5.854  37.953  1.00  0.00     0.304 A 
HETATM   22  O3  UNK     1      22.002  -4.929  38.252  1.00  0.00    -0.259 OA
HETATM   23  C19 UNK     1      19.937 -10.486  38.499  1.00  0.00     0.003 A 
HETATM   24  C18 UNK     1      18.903 -10.327  37.574  1.00  0.00     0.001 A 
ENDBRANCH  11  14
ENDBRANCH   6  10
BRANCH   1  25
HETATM   25  C9  UNK     1      18.258   2.603  33.650  1.00  0.00     0.079 A 
HETATM   26  C16 UNK     1      18.226   3.898  34.153  1.00  0.00     0.036 A 
HETATM   27  C20 UNK     1      18.173   4.979  33.273  1.00  0.00     0.044 A 
HETATM   28  C22 UNK     1      18.153   4.757  31.896  1.00  0.00     0.116 A 
HETATM   29  C21 UNK     1      18.185   3.454  31.399  1.00  0.00     0.044 A 
HETATM   30  F1  UNK     1      18.104   5.795  31.051  1.00  0.00    -0.206 F 
HETATM   31  C17 UNK     1      18.238   2.373  32.279  1.00  0.00     0.036 A 
ENDBRANCH   1  25
TORSDOF 3
ENDMDL
MODEL 5
REMARK VINA RESULT:     -10.5      7.222      9.722
REMARK  3 active torsions:
REMARK  status: ('A' for Active; 'I' for Inactive)
REMARK    1  A    between atoms: C9_17  and  N1_5 
REMARK       I    between atoms: C12_20  and  N2_6 
REMARK    2  A    between atoms: C3_11  and  N2_6 
REMARK    3  A    between atoms: C12_20  and  C8_16 
ROOT
HETATM    1  N1  UNK     1      16.378   9.490  33.455  1.00  0.00    -0.150 N 
HETATM    2  N3  UNK     1      15.922   8.472  32.720  1.00  0.00    -0.147 NA
HETATM    3  N4  UNK     1      17.645   9.477  33.878  1.00  0.00    -0.147 NA
HETATM    4  C1  UNK     1      17.003   7.678  32.634  1.00  0.00     0.111 A 
HETATM    5  C2  UNK     1      18.101   8.319  33.372  1.00  0.00     0.109 A 
HETATM    6  C3  UNK     1      18.442   5.895  32.108  1.00  0.00     0.037 A 
HETATM    7  C4  UNK     1      17.159   6.440  31.982  1.00  0.00     0.065 A 
HETATM    8  C5  UNK     1      19.377   7.736  33.474  1.00  0.00     0.038 A 
HETATM    9  C7  UNK     1      19.505   6.499  32.813  1.00  0.00     0.032 A 
ENDROOT
BRANCH   6  10
HETATM   10  N2  UNK     1      18.689   4.649  31.482  1.00  0.00    -0.323 N 
HETATM   11  C12 UNK     1      18.285   3.393  31.904  1.00  0.00     0.262 C 
HETATM   12  O2  UNK     1      17.633   3.073  32.896  1.00  0.00    -0.267 OA
HETATM   13  H4  UNK     1      19.214   4.717  30.613  1.00  0.00     0.169 HD
BRANCH  11  14
HETATM   14  C8  UNK     1      18.722   2.315  31.009  1.00  0.00     0.108 A 
HETATM   15  C10 UNK     1      19.160   1.198  31.598  1.00  0.00     0.037 A 
HETATM   16  C6  UNK     1      19.616   0.074  30.794  1.00  0.00    -0.001 A 
HETATM   17  C11 UNK     1      19.584   0.182  29.408  1.00  0.00     0.089 A 
HETATM   18  C14 UNK     1      20.082  -1.112  31.367  1.00  0.00     0.014 A 
HETATM   19  O1  UNK     1      19.120   1.361  28.792  1.00  0.00    -0.274 OA
HETATM   20  C15 UNK     1      20.005  -0.857  28.580  1.00  0.00     0.038 A 
HETATM   21  C13 UNK     1      18.679   2.452  29.535  1.00  0.00     0.304 A 
HETATM   22  O3  UNK     1      18.278   3.476  28.991  1.00  0.00    -0.259 OA
HETATM   23  C19 UNK     1      20.469  -2.036  29.160  1.00  0.00     0.003 A 
HETATM   24  C18 UNK     1      20.508  -2.163  30.550  1.00  0.00     0.001 A 
ENDBRANCH  11  14
ENDBRANCH   6  10
BRANCH   1  25
HETATM   25  C9  UNK     1      15.540  10.555  33.777  1.00  0.00     0.079 A 
HETATM   26  C16 UNK     1      14.162  10.388  33.714  1.00  0.00     0.036 A 
HETATM   27  C20 UNK     1      13.322  11.455  34.036  1.00  0.00     0.044 A 
HETATM   28  C22 UNK     1      13.868  12.681  34.419  1.00  0.00     0.116 A 
HETATM   29  C21 UNK     1      15.252  12.839  34.479  1.00  0.00     0.044 A 
HETATM   30  F1  UNK     1      13.062  13.705  34.729  1.00  0.00    -0.206 F 
HETATM   31  C17 UNK     1      16.092  11.773  34.157  1.00  0.00     0.036 A 
ENDBRANCH   1  25
TORSDOF 3
ENDMDL
MODEL 6
REMARK VINA RESULT:     -10.2      5.846      8.325
REMARK  3 active torsions:
REMARK  status: ('A' for Active; 'I' for Inactive)
REMARK    1  A    between atoms: C9_17  and  N1_5 
REMARK       I    between atoms: C12_20  and  N2_6 
REMARK    2  A    between atoms: C3_11  and  N2_6 
REMARK    3  A    between atoms: C12_20  and  C8_16 
ROOT
HETATM    1  N1  UNK     1      16.910   7.653  32.775  1.00  0.00    -0.150 N 
HETATM    2  N3  UNK     1      16.927   6.399  33.233  1.00  0.00    -0.147 NA
HETATM    3  N4  UNK     1      17.495   7.932  31.608  1.00  0.00    -0.147 NA
HETATM    4  C1  UNK     1      17.599   5.752  32.266  1.00  0.00     0.111 A 
HETATM    5  C2  UNK     1      17.961   6.730  31.230  1.00  0.00     0.109 A 
HETATM    6  C3  UNK     1      18.657   4.073  31.005  1.00  0.00     0.037 A 
HETATM    7  C4  UNK     1      17.946   4.392  32.168  1.00  0.00     0.065 A 
HETATM    8  C5  UNK     1      18.677   6.367  30.074  1.00  0.00     0.038 A 
HETATM    9  C7  UNK     1      19.011   5.002  30.002  1.00  0.00     0.032 A 
ENDROOT
BRANCH   6  10
HETATM   10  N2  UNK     1      19.047   2.725  30.823  1.00  0.00    -0.323 N 
HETATM   11  C12 UNK     1      18.420   1.757  30.055  1.00  0.00     0.262 C 
HETATM   12  O2  UNK     1      17.404   1.840  29.368  1.00  0.00    -0.267 OA
HETATM   13  H4  UNK     1      19.901   2.469  31.312  1.00  0.00     0.169 HD
BRANCH  11  14
HETATM   14  C8  UNK     1      19.101   0.457  30.096  1.00  0.00     0.108 A 
HETATM   15  C10 UNK     1      19.390  -0.021  31.311  1.00  0.00     0.037 A 
HETATM   16  C6  UNK     1      20.065  -1.302  31.454  1.00  0.00    -0.001 A 
HETATM   17  C11 UNK     1      20.401  -2.016  30.309  1.00  0.00     0.089 A 
HETATM   18  C14 UNK     1      20.386  -1.840  32.703  1.00  0.00     0.014 A 
HETATM   19  O1  UNK     1      20.094  -1.508  29.032  1.00  0.00    -0.274 OA
HETATM   20  C15 UNK     1      21.048  -3.249  30.377  1.00  0.00     0.038 A 
HETATM   21  C13 UNK     1      19.450  -0.286  28.864  1.00  0.00     0.304 A 
HETATM   22  O3  UNK     1      19.187   0.150  27.748  1.00  0.00    -0.259 OA
HETATM   23  C19 UNK     1      21.364  -3.778  31.626  1.00  0.00     0.003 A 
HETATM   24  C18 UNK     1      21.035  -3.075  32.786  1.00  0.00     0.001 A 
ENDBRANCH  11  14
ENDBRANCH   6  10
BRANCH   1  25
HETATM   25  C9  UNK     1      16.289   8.661  33.509  1.00  0.00     0.079 A 
HETATM   26  C16 UNK     1      17.011   9.789  33.877  1.00  0.00     0.036 A 
HETATM   27  C20 UNK     1      16.389  10.798  34.612  1.00  0.00     0.044 A 
HETATM   28  C22 UNK     1      15.048  10.671  34.974  1.00  0.00     0.116 A 
HETATM   29  C21 UNK     1      14.330   9.535  34.601  1.00  0.00     0.044 A 
HETATM   30  F1  UNK     1      14.449  11.641  35.679  1.00  0.00    -0.206 F 
HETATM   31  C17 UNK     1      14.952   8.526  33.865  1.00  0.00     0.036 A 
ENDBRANCH   1  25
TORSDOF 3
ENDMDL
MODEL 7
REMARK VINA RESULT:     -10.1      6.644      9.773
REMARK  3 active torsions:
REMARK  status: ('A' for Active; 'I' for Inactive)
REMARK    1  A    between atoms: C9_17  and  N1_5 
REMARK       I    between atoms: C12_20  and  N2_6 
REMARK    2  A    between atoms: C3_11  and  N2_6 
REMARK    3  A    between atoms: C12_20  and  C8_16 
ROOT
HETATM    1  N1  UNK     1      15.762   9.751  33.404  1.00  0.00    -0.150 N 
HETATM    2  N3  UNK     1      15.337   8.561  32.971  1.00  0.00    -0.147 NA
HETATM    3  N4  UNK     1      17.034   9.892  33.787  1.00  0.00    -0.147 NA
HETATM    4  C1  UNK     1      16.446   7.810  33.070  1.00  0.00     0.111 A 
HETATM    5  C2  UNK     1      17.528   8.658  33.590  1.00  0.00     0.109 A 
HETATM    6  C3  UNK     1      17.946   6.001  32.994  1.00  0.00     0.037 A 
HETATM    7  C4  UNK     1      16.641   6.451  32.760  1.00  0.00     0.065 A 
HETATM    8  C5  UNK     1      18.827   8.166  33.811  1.00  0.00     0.038 A 
HETATM    9  C7  UNK     1      18.995   6.805  33.492  1.00  0.00     0.032 A 
ENDROOT
BRANCH   6  10
HETATM   10  N2  UNK     1      18.234   4.645  32.709  1.00  0.00    -0.323 N 
HETATM   11  C12 UNK     1      18.325   4.040  31.466  1.00  0.00     0.262 C 
HETATM   12  O2  UNK     1      18.181   4.526  30.346  1.00  0.00    -0.267 OA
HETATM   13  H4  UNK     1      18.406   4.074  33.533  1.00  0.00     0.169 HD
BRANCH  11  14
HETATM   14  C8  UNK     1      18.639   2.608  31.542  1.00  0.00     0.108 A 
HETATM   15  C10 UNK     1      19.176   2.061  30.446  1.00  0.00     0.037 A 
HETATM   16  C6  UNK     1      19.520   0.647  30.425  1.00  0.00    -0.001 A 
HETATM   17  C11 UNK     1      19.284  -0.119  31.560  1.00  0.00     0.089 A 
HETATM   18  C14 UNK     1      20.082   0.035  29.302  1.00  0.00     0.014 A 
HETATM   19  O1  UNK     1      18.719   0.462  32.713  1.00  0.00    -0.274 OA
HETATM   20  C15 UNK     1      19.592  -1.478  31.606  1.00  0.00     0.038 A 
HETATM   21  C13 UNK     1      18.379   1.811  32.762  1.00  0.00     0.304 A 
HETATM   22  O3  UNK     1      17.887   2.309  33.770  1.00  0.00    -0.259 OA
HETATM   23  C19 UNK     1      20.152  -2.081  30.482  1.00  0.00     0.003 A 
HETATM   24  C18 UNK     1      20.396  -1.327  29.332  1.00  0.00     0.001 A 
ENDBRANCH  11  14
ENDBRANCH   6  10
BRANCH   1  25
HETATM   25  C9  UNK     1      14.887  10.834  33.456  1.00  0.00     0.079 A 
HETATM   26  C16 UNK     1      15.370  12.092  33.795  1.00  0.00     0.036 A 
HETATM   27  C20 UNK     1      14.494  13.176  33.849  1.00  0.00     0.044 A 
HETATM   28  C22 UNK     1      13.141  12.993  33.561  1.00  0.00     0.116 A 
HETATM   29  C21 UNK     1      12.665  11.727  33.222  1.00  0.00     0.044 A 
HETATM   30  F1  UNK     1      12.299  14.035  33.611  1.00  0.00    -0.206 F 
HETATM   31  C17 UNK     1      13.541  10.643  33.169  1.00  0.00     0.036 A 
ENDBRANCH   1  25
TORSDOF 3
ENDMDL
MODEL 8
REMARK VINA RESULT:     -10.0      4.316     10.954
REMARK  3 active torsions:
REMARK  status: ('A' for Active; 'I' for Inactive)
REMARK    1  A    between atoms: C9_17  and  N1_5 
REMARK       I    between atoms: C12_20  and  N2_6 
REMARK    2  A    between atoms: C3_11  and  N2_6 
REMARK    3  A    between atoms: C12_20  and  C8_16 
ROOT
HETATM    1  N1  UNK     1      20.033  -4.911  36.572  1.00  0.00    -0.150 N 
HETATM    2  N3  UNK     1      20.291  -4.396  35.366  1.00  0.00    -0.147 NA
HETATM    3  N4  UNK     1      19.412  -4.161  37.485  1.00  0.00    -0.147 NA
HETATM    4  C1  UNK     1      19.787  -3.155  35.474  1.00  0.00     0.111 A 
HETATM    5  C2  UNK     1      19.227  -3.005  36.825  1.00  0.00     0.109 A 
HETATM    6  C3  UNK     1      19.142  -0.946  34.996  1.00  0.00     0.037 A 
HETATM    7  C4  UNK     1      19.753  -2.114  34.527  1.00  0.00     0.065 A 
HETATM    8  C5  UNK     1      18.620  -1.811  37.256  1.00  0.00     0.038 A 
HETATM    9  C7  UNK     1      18.599  -0.788  36.290  1.00  0.00     0.032 A 
ENDROOT
BRANCH   6  10
HETATM   10  N2  UNK     1      19.062   0.155  34.109  1.00  0.00    -0.323 N 
HETATM   11  C12 UNK     1      17.943   0.905  33.787  1.00  0.00     0.262 C 
HETATM   12  O2  UNK     1      16.785   0.795  34.185  1.00  0.00    -0.267 OA
HETATM   13  H4  UNK     1      19.950   0.413  33.686  1.00  0.00     0.169 HD
BRANCH  11  14
HETATM   14  C8  UNK     1      18.225   1.977  32.825  1.00  0.00     0.108 A 
HETATM   15  C10 UNK     1      18.064   3.229  33.270  1.00  0.00     0.037 A 
HETATM   16  C6  UNK     1      18.318   4.359  32.390  1.00  0.00    -0.001 A 
HETATM   17  C11 UNK     1      18.730   4.115  31.084  1.00  0.00     0.089 A 
HETATM   18  C14 UNK     1      18.163   5.681  32.812  1.00  0.00     0.014 A 
HETATM   19  O1  UNK     1      18.898   2.795  30.621  1.00  0.00    -0.274 OA
HETATM   20  C15 UNK     1      18.990   5.153  30.191  1.00  0.00     0.038 A 
HETATM   21  C13 UNK     1      18.662   1.695  31.439  1.00  0.00     0.304 A 
HETATM   22  O3  UNK     1      18.810   0.549  31.028  1.00  0.00    -0.259 OA
HETATM   23  C19 UNK     1      18.833   6.468  30.620  1.00  0.00     0.003 A 
HETATM   24  C18 UNK     1      18.420   6.732  31.928  1.00  0.00     0.001 A 
ENDBRANCH  11  14
ENDBRANCH   6  10
BRANCH   1  25
HETATM   25  C9  UNK     1      20.408  -6.218  36.872  1.00  0.00     0.079 A 
HETATM   26  C16 UNK     1      20.719  -7.098  35.843  1.00  0.00     0.036 A 
HETATM   27  C20 UNK     1      21.094  -8.408  36.144  1.00  0.00     0.044 A 
HETATM   28  C22 UNK     1      21.157  -8.827  37.474  1.00  0.00     0.116 A 
HETATM   29  C21 UNK     1      20.843  -7.937  38.501  1.00  0.00     0.044 A 
HETATM   30  F1  UNK     1      21.518 -10.084  37.763  1.00  0.00    -0.206 F 
HETATM   31  C17 UNK     1      20.468  -6.627  38.199  1.00  0.00     0.036 A 
ENDBRANCH   1  25
TORSDOF 3
ENDMDL
MODEL 9
REMARK VINA RESULT:      -9.6      4.314     10.929
REMARK  3 active torsions:
REMARK  status: ('A' for Active; 'I' for Inactive)
REMARK    1  A    between atoms: C9_17  and  N1_5 
REMARK       I    between atoms: C12_20  and  N2_6 
REMARK    2  A    between atoms: C3_11  and  N2_6 
REMARK    3  A    between atoms: C12_20  and  C8_16 
ROOT
HETATM    1  N1  UNK     1      20.354  -5.790  36.448  1.00  0.00    -0.150 N 
HETATM    2  N3  UNK     1      20.376  -5.094  35.308  1.00  0.00    -0.147 NA
HETATM    3  N4  UNK     1      19.987  -5.183  37.579  1.00  0.00    -0.147 NA
HETATM    4  C1  UNK     1      19.978  -3.876  35.712  1.00  0.00     0.111 A 
HETATM    5  C2  UNK     1      19.730  -3.933  37.160  1.00  0.00     0.109 A 
HETATM    6  C3  UNK     1      19.371  -1.605  35.730  1.00  0.00     0.037 A 
HETATM    7  C4  UNK     1      19.800  -2.696  34.966  1.00  0.00     0.065 A 
HETATM    8  C5  UNK     1      19.298  -2.811  37.891  1.00  0.00     0.038 A 
HETATM    9  C7  UNK     1      19.128  -1.645  37.121  1.00  0.00     0.032 A 
ENDROOT
BRANCH   6  10
HETATM   10  N2  UNK     1      19.165  -0.375  35.061  1.00  0.00    -0.323 N 
HETATM   11  C12 UNK     1      18.203  -0.077  34.110  1.00  0.00     0.262 C 
HETATM   12  O2  UNK     1      17.323  -0.794  33.635  1.00  0.00    -0.267 OA
HETATM   13  H4  UNK     1      19.803   0.365  35.344  1.00  0.00     0.169 HD
BRANCH  11  14
HETATM   14  C8  UNK     1      18.280   1.305  33.622  1.00  0.00     0.108 A 
HETATM   15  C10 UNK     1      18.451   1.459  32.304  1.00  0.00     0.037 A 
HETATM   16  C6  UNK     1      18.541   2.791  31.727  1.00  0.00    -0.001 A 
HETATM   17  C11 UNK     1      18.444   3.896  32.566  1.00  0.00     0.089 A 
HETATM   18  C14 UNK     1      18.719   2.999  30.357  1.00  0.00     0.014 A 
HETATM   19  O1  UNK     1      18.265   3.728  33.953  1.00  0.00    -0.274 OA
HETATM   20  C15 UNK     1      18.522   5.199  32.076  1.00  0.00     0.038 A 
HETATM   21  C13 UNK     1      18.175   2.467  34.534  1.00  0.00     0.304 A 
HETATM   22  O3  UNK     1      18.019   2.329  35.743  1.00  0.00    -0.259 OA
HETATM   23  C19 UNK     1      18.700   5.396  30.709  1.00  0.00     0.003 A 
HETATM   24  C18 UNK     1      18.799   4.299  29.851  1.00  0.00     0.001 A 
ENDBRANCH  11  14
ENDBRANCH   6  10
BRANCH   1  25
HETATM   25  C9  UNK     1      20.711  -7.137  36.456  1.00  0.00     0.079 A 
HETATM   26  C16 UNK     1      20.949  -7.778  37.665  1.00  0.00     0.036 A 
HETATM   27  C20 UNK     1      21.307  -9.126  37.674  1.00  0.00     0.044 A 
HETATM   28  C22 UNK     1      21.424  -9.823  36.471  1.00  0.00     0.116 A 
HETATM   29  C21 UNK     1      21.183  -9.172  35.261  1.00  0.00     0.044 A 
HETATM   30  F1  UNK     1      21.766 -11.119  36.478  1.00  0.00    -0.206 F 
HETATM   31  C17 UNK     1      20.825  -7.824  35.253  1.00  0.00     0.036 A 
ENDBRANCH   1  25
TORSDOF 3
ENDMDL
MODEL 10
REMARK VINA RESULT:      -9.4      8.970     14.699
REMARK  3 active torsions:
REMARK  status: ('A' for Active; 'I' for Inactive)
REMARK    1  A    between atoms: C9_17  and  N1_5 
REMARK       I    between atoms: C12_20  and  N2_6 
REMARK    2  A    between atoms: C3_11  and  N2_6 
REMARK    3  A    between atoms: C12_20  and  C8_16 
ROOT
HETATM    1  N1  UNK     1      18.364   3.551  31.107  1.00  0.00    -0.150 N 
HETATM    2  N3  UNK     1      18.311   4.784  30.596  1.00  0.00    -0.147 NA
HETATM    3  N4  UNK     1      18.197   3.378  32.420  1.00  0.00    -0.147 NA
HETATM    4  C1  UNK     1      18.083   5.534  31.688  1.00  0.00     0.111 A 
HETATM    5  C2  UNK     1      18.010   4.637  32.851  1.00  0.00     0.109 A 
HETATM    6  C3  UNK     1      17.700   7.362  33.116  1.00  0.00     0.037 A 
HETATM    7  C4  UNK     1      17.927   6.928  31.805  1.00  0.00     0.065 A 
HETATM    8  C5  UNK     1      17.780   5.115  34.154  1.00  0.00     0.038 A 
HETATM    9  C7  UNK     1      17.627   6.512  34.241  1.00  0.00     0.032 A 
ENDROOT
BRANCH   6  10
HETATM   10  N2  UNK     1      17.531   8.751  33.327  1.00  0.00    -0.323 N 
HETATM   11  C12 UNK     1      18.417   9.632  33.927  1.00  0.00     0.262 C 
HETATM   12  O2  UNK     1      19.530   9.419  34.404  1.00  0.00    -0.267 OA
HETATM   13  H4  UNK     1      16.653   9.122  32.972  1.00  0.00     0.169 HD
BRANCH  11  14
HETATM   14  C8  UNK     1      17.913  11.009  33.981  1.00  0.00     0.108 A 
HETATM   15  C10 UNK     1      18.697  11.947  33.439  1.00  0.00     0.037 A 
HETATM   16  C6  UNK     1      18.284  13.343  33.445  1.00  0.00    -0.001 A 
HETATM   17  C11 UNK     1      17.064  13.680  34.021  1.00  0.00     0.089 A 
HETATM   18  C14 UNK     1      19.071  14.355  32.891  1.00  0.00     0.014 A 
HETATM   19  O1  UNK     1      16.242  12.688  34.591  1.00  0.00    -0.274 OA
HETATM   20  C15 UNK     1      16.610  14.997  34.060  1.00  0.00     0.038 A 
HETATM   21  C13 UNK     1      16.611  11.346  34.600  1.00  0.00     0.304 A 
HETATM   22  O3  UNK     1      15.889  10.488  35.098  1.00  0.00    -0.259 OA
HETATM   23  C19 UNK     1      17.401  16.000  33.505  1.00  0.00     0.003 A 
HETATM   24  C18 UNK     1      18.629  15.680  32.922  1.00  0.00     0.001 A 
ENDBRANCH  11  14
ENDBRANCH   6  10
BRANCH   1  25
HETATM   25  C9  UNK     1      18.590   2.456  30.275  1.00  0.00     0.079 A 
HETATM   26  C16 UNK     1      19.465   1.456  30.679  1.00  0.00     0.036 A 
HETATM   27  C20 UNK     1      19.693   0.360  29.847  1.00  0.00     0.044 A 
HETATM   28  C22 UNK     1      19.041   0.272  28.617  1.00  0.00     0.116 A 
HETATM   29  C21 UNK     1      18.163   1.280  28.219  1.00  0.00     0.044 A 
HETATM   30  F1  UNK     1      19.258  -0.781  27.817  1.00  0.00    -0.206 F 
HETATM   31  C17 UNK     1      17.936   2.376  29.051  1.00  0.00     0.036 A 
ENDBRANCH   1  25
TORSDOF 3
ENDMDL
