MODEL 1
REMARK VINA RESULT:     -10.2      0.000      0.000
REMARK  6 active torsions:
REMARK  status: ('A' for Active; 'I' for Inactive)
REMARK    1  A    between atoms: C16_22  and  O2_2 
REMARK    2  A    between atoms: C24_30  and  O2_2 
REMARK    3  A    between atoms: C19_25  and  O4_4 
REMARK    4  A    between atoms: C12_18  and  N1_6 
REMARK    5  A    between atoms: C21_27  and  C25_31 
REMARK    6  A    between atoms: C24_30  and  C25_31 
ROOT
HETATM    1  O1  UNK     1      19.210  -1.081  32.780  1.00  0.00    -0.271 OA
HETATM    2  O3  UNK     1      19.769  -1.603  30.637  1.00  0.00    -0.259 OA
HETATM    3  C5  UNK     1      18.350   2.977  31.514  1.00  0.00     0.040 C 
HETATM    4  C6  UNK     1      18.850   3.341  30.115  1.00  0.00     0.005 C 
HETATM    5  C7  UNK     1      18.631   1.547  31.922  1.00  0.00    -0.033 A 
HETATM    6  C8  UNK     1      18.547   2.229  29.124  1.00  0.00     0.005 C 
HETATM    7  C9  UNK     1      19.214   0.927  29.560  1.00  0.00     0.045 C 
HETATM    8  C10 UNK     1      19.049   0.626  31.032  1.00  0.00     0.025 A 
HETATM    9  C11 UNK     1      18.438   1.163  33.330  1.00  0.00     0.008 A 
HETATM   10  C13 UNK     1      18.739  -0.142  33.714  1.00  0.00     0.126 A 
HETATM   11  C14 UNK     1      19.371  -0.766  31.440  1.00  0.00     0.295 A 
HETATM   12  C15 UNK     1      17.956   2.030  34.321  1.00  0.00     0.018 A 
HETATM   13  C16 UNK     1      18.588  -0.591  35.027  1.00  0.00     0.137 A 
HETATM   14  C19 UNK     1      18.114   0.286  35.995  1.00  0.00     0.104 A 
HETATM   15  C20 UNK     1      17.796   1.595  35.642  1.00  0.00     0.040 A 
ENDROOT
BRANCH  13  16
HETATM   16  O2  UNK     1      18.902  -1.874  35.361  1.00  0.00    -0.338 OA
BRANCH  16  17
HETATM   17  C24 UNK     1      20.206  -2.106  35.890  1.00  0.00     0.259 C 
BRANCH  17  18
HETATM   18  C25 UNK     1      20.122  -3.024  37.093  1.00  0.00     0.183 C 
HETATM   19  O5  UNK     1      19.825  -2.601  38.209  1.00  0.00    -0.290 OA
BRANCH  18  20
HETATM   20  C21 UNK     1      20.414  -4.475  36.910  1.00  0.00     0.012 A 
HETATM   21  C22 UNK     1      19.838  -5.136  35.849  1.00  0.00     0.017 A 
HETATM   22  C17 UNK     1      20.110  -6.492  35.677  1.00  0.00     0.030 A 
HETATM   23  C12 UNK     1      20.953  -7.154  36.572  1.00  0.00     0.030 A 
HETATM   24  C18 UNK     1      21.522  -6.457  37.638  1.00  0.00     0.030 A 
HETATM   25  C23 UNK     1      21.249  -5.100  37.810  1.00  0.00     0.017 A 
BRANCH  23  26
HETATM   26  N1  UNK     1      21.224  -8.494  36.401  1.00  0.00    -0.381 N 
HETATM   27  C3  UNK     1      21.428  -9.132  35.104  1.00  0.00     0.123 C 
HETATM   28  C1  UNK     1      21.987 -10.509  35.456  1.00  0.00     0.021 C 
HETATM   29  C2  UNK     1      21.340 -10.809  36.798  1.00  0.00     0.021 C 
HETATM   30  C4  UNK     1      21.345  -9.452  37.498  1.00  0.00     0.123 C 
ENDBRANCH  23  26
ENDBRANCH  18  20
ENDBRANCH  17  18
ENDBRANCH  16  17
ENDBRANCH  13  16
BRANCH  14  31
HETATM   31  O4  UNK     1      17.960  -0.117  37.287  1.00  0.00    -0.353 OA
HETATM   32  C26 UNK     1      17.628   0.886  38.244  1.00  0.00     0.210 C 
ENDBRANCH  14  31
TORSDOF 6
ENDMDL
MODEL 2
REMARK VINA RESULT:     -10.1      4.462     10.648
REMARK  6 active torsions:
REMARK  status: ('A' for Active; 'I' for Inactive)
REMARK    1  A    between atoms: C16_22  and  O2_2 
REMARK    2  A    between atoms: C24_30  and  O2_2 
REMARK    3  A    between atoms: C19_25  and  O4_4 
REMARK    4  A    between atoms: C12_18  and  N1_6 
REMARK    5  A    between atoms: C21_27  and  C25_31 
REMARK    6  A    between atoms: C24_30  and  C25_31 
ROOT
HETATM    1  O1  UNK     1      18.236   0.282  33.226  1.00  0.00    -0.271 OA
HETATM    2  O3  UNK     1      17.251   1.139  35.089  1.00  0.00    -0.259 OA
HETATM    3  C5  UNK     1      20.059  -2.804  35.667  1.00  0.00     0.040 C 
HETATM    4  C6  UNK     1      19.988  -2.564  37.177  1.00  0.00     0.005 C 
HETATM    5  C7  UNK     1      19.387  -1.732  34.837  1.00  0.00    -0.033 A 
HETATM    6  C8  UNK     1      18.604  -2.086  37.586  1.00  0.00     0.005 C 
HETATM    7  C9  UNK     1      18.252  -0.787  36.866  1.00  0.00     0.045 C 
HETATM    8  C10 UNK     1      18.587  -0.802  35.393  1.00  0.00     0.025 A 
HETATM    9  C11 UNK     1      19.621  -1.715  33.383  1.00  0.00     0.008 A 
HETATM   10  C13 UNK     1      19.039  -0.702  32.624  1.00  0.00     0.126 A 
HETATM   11  C14 UNK     1      17.965   0.279  34.585  1.00  0.00     0.295 A 
HETATM   12  C15 UNK     1      20.391  -2.668  32.701  1.00  0.00     0.018 A 
HETATM   13  C16 UNK     1      19.208  -0.609  31.241  1.00  0.00     0.137 A 
HETATM   14  C19 UNK     1      19.980  -1.561  30.585  1.00  0.00     0.104 A 
HETATM   15  C20 UNK     1      20.570  -2.590  31.314  1.00  0.00     0.040 A 
ENDROOT
BRANCH  13  16
HETATM   16  O2  UNK     1      18.626   0.403  30.539  1.00  0.00    -0.338 OA
BRANCH  16  17
HETATM   17  C24 UNK     1      19.473   1.474  30.123  1.00  0.00     0.259 C 
BRANCH  17  18
HETATM   18  C25 UNK     1      18.634   2.661  29.694  1.00  0.00     0.183 C 
HETATM   19  O5  UNK     1      17.962   2.640  28.665  1.00  0.00    -0.290 OA
BRANCH  18  20
HETATM   20  C21 UNK     1      18.634   3.885  30.547  1.00  0.00     0.012 A 
HETATM   21  C22 UNK     1      18.100   3.808  31.813  1.00  0.00     0.017 A 
HETATM   22  C17 UNK     1      18.099   4.952  32.610  1.00  0.00     0.030 A 
HETATM   23  C12 UNK     1      18.635   6.144  32.121  1.00  0.00     0.030 A 
HETATM   24  C18 UNK     1      19.170   6.190  30.834  1.00  0.00     0.030 A 
HETATM   25  C23 UNK     1      19.170   5.047  30.036  1.00  0.00     0.017 A 
BRANCH  23  26
HETATM   26  N1  UNK     1      18.637   7.274  32.910  1.00  0.00    -0.381 N 
HETATM   27  C3  UNK     1      19.687   7.604  33.869  1.00  0.00     0.123 C 
HETATM   28  C1  UNK     1      19.395   9.055  34.246  1.00  0.00     0.021 C 
HETATM   29  C2  UNK     1      17.884   9.146  34.117  1.00  0.00     0.021 C 
HETATM   30  C4  UNK     1      17.588   8.291  32.887  1.00  0.00     0.123 C 
ENDBRANCH  23  26
ENDBRANCH  18  20
ENDBRANCH  17  18
ENDBRANCH  16  17
ENDBRANCH  13  16
BRANCH  14  31
HETATM   31  O4  UNK     1      20.172  -1.495  29.239  1.00  0.00    -0.353 OA
HETATM   32  C26 UNK     1      21.332  -0.803  28.782  1.00  0.00     0.210 C 
ENDBRANCH  14  31
TORSDOF 6
ENDMDL
MODEL 3
REMARK VINA RESULT:      -9.5      2.053      3.121
REMARK  6 active torsions:
REMARK  status: ('A' for Active; 'I' for Inactive)
REMARK    1  A    between atoms: C16_22  and  O2_2 
REMARK    2  A    between atoms: C24_30  and  O2_2 
REMARK    3  A    between atoms: C19_25  and  O4_4 
REMARK    4  A    between atoms: C12_18  and  N1_6 
REMARK    5  A    between atoms: C21_27  and  C25_31 
REMARK    6  A    between atoms: C24_30  and  C25_31 
ROOT
HETATM    1  O1  UNK     1      20.878  -3.505  33.229  1.00  0.00    -0.271 OA
HETATM    2  O3  UNK     1      21.743  -4.252  31.262  1.00  0.00    -0.259 OA
HETATM    3  C5  UNK     1      19.269  -0.053  31.155  1.00  0.00     0.040 C 
HETATM    4  C6  UNK     1      19.810   0.165  29.740  1.00  0.00     0.005 C 
HETATM    5  C7  UNK     1      19.818  -1.281  31.847  1.00  0.00    -0.033 A 
HETATM    6  C8  UNK     1      19.857  -1.144  28.969  1.00  0.00     0.005 C 
HETATM    7  C9  UNK     1      20.750  -2.154  29.686  1.00  0.00     0.045 C 
HETATM    8  C10 UNK     1      20.514  -2.220  31.176  1.00  0.00     0.025 A 
HETATM    9  C11 UNK     1      19.581  -1.444  33.291  1.00  0.00     0.008 A 
HETATM   10  C13 UNK     1      20.124  -2.553  33.936  1.00  0.00     0.126 A 
HETATM   11  C14 UNK     1      21.094  -3.403  31.864  1.00  0.00     0.295 A 
HETATM   12  C15 UNK     1      18.825  -0.554  34.067  1.00  0.00     0.018 A 
HETATM   13  C16 UNK     1      19.950  -2.785  35.302  1.00  0.00     0.137 A 
HETATM   14  C19 UNK     1      19.202  -1.887  36.055  1.00  0.00     0.104 A 
HETATM   15  C20 UNK     1      18.639  -0.773  35.437  1.00  0.00     0.040 A 
ENDROOT
BRANCH  13  16
HETATM   16  O2  UNK     1      20.506  -3.879  35.895  1.00  0.00    -0.338 OA
BRANCH  16  17
HETATM   17  C24 UNK     1      19.752  -5.089  35.857  1.00  0.00     0.259 C 
BRANCH  17  18
HETATM   18  C25 UNK     1      20.108  -5.959  37.047  1.00  0.00     0.183 C 
HETATM   19  O5  UNK     1      19.680  -5.718  38.175  1.00  0.00    -0.290 OA
BRANCH  18  20
HETATM   20  C21 UNK     1      21.004  -7.132  36.836  1.00  0.00     0.012 A 
HETATM   21  C22 UNK     1      21.984  -7.391  37.767  1.00  0.00     0.017 A 
HETATM   22  C17 UNK     1      22.823  -8.487  37.569  1.00  0.00     0.030 A 
HETATM   23  C12 UNK     1      22.659  -9.298  36.445  1.00  0.00     0.030 A 
HETATM   24  C18 UNK     1      21.656  -9.010  35.519  1.00  0.00     0.030 A 
HETATM   25  C23 UNK     1      20.818  -7.912  35.716  1.00  0.00     0.017 A 
BRANCH  23  26
HETATM   26  N1  UNK     1      23.486 -10.383  36.251  1.00  0.00    -0.381 N 
HETATM   27  C3  UNK     1      24.928 -10.366  36.479  1.00  0.00     0.123 C 
HETATM   28  C1  UNK     1      25.324 -11.840  36.426  1.00  0.00     0.021 C 
HETATM   29  C2  UNK     1      24.319 -12.431  35.452  1.00  0.00     0.021 C 
HETATM   30  C4  UNK     1      23.027 -11.692  35.793  1.00  0.00     0.123 C 
ENDBRANCH  23  26
ENDBRANCH  18  20
ENDBRANCH  17  18
ENDBRANCH  16  17
ENDBRANCH  13  16
BRANCH  14  31
HETATM   31  O4  UNK     1      19.018  -2.080  37.390  1.00  0.00    -0.353 OA
HETATM   32  C26 UNK     1      18.048  -1.259  38.036  1.00  0.00     0.210 C 
ENDBRANCH  14  31
TORSDOF 6
ENDMDL
MODEL 4
REMARK VINA RESULT:      -9.4      5.868     11.292
REMARK  6 active torsions:
REMARK  status: ('A' for Active; 'I' for Inactive)
REMARK    1  A    between atoms: C16_22  and  O2_2 
REMARK    2  A    between atoms: C24_30  and  O2_2 
REMARK    3  A    between atoms: C19_25  and  O4_4 
REMARK    4  A    between atoms: C12_18  and  N1_6 
REMARK    5  A    between atoms: C21_27  and  C25_31 
REMARK    6  A    between atoms: C24_30  and  C25_31 
ROOT
HETATM    1  O1  UNK     1      18.455   2.209  31.638  1.00  0.00    -0.271 OA
HETATM    2  O3  UNK     1      18.954   2.494  29.437  1.00  0.00    -0.259 OA
HETATM    3  C5  UNK     1      19.954  -1.853  31.403  1.00  0.00     0.040 C 
HETATM    4  C6  UNK     1      20.186  -2.379  29.985  1.00  0.00     0.005 C 
HETATM    5  C7  UNK     1      19.463  -0.424  31.462  1.00  0.00    -0.033 A 
HETATM    6  C8  UNK     1      20.881  -1.335  29.126  1.00  0.00     0.005 C 
HETATM    7  C9  UNK     1      20.041  -0.063  29.047  1.00  0.00     0.045 C 
HETATM    8  C10 UNK     1      19.482   0.377  30.379  1.00  0.00     0.025 A 
HETATM    9  C11 UNK     1      18.955   0.096  32.743  1.00  0.00     0.008 A 
HETATM   10  C13 UNK     1      18.462   1.399  32.787  1.00  0.00     0.126 A 
HETATM   11  C14 UNK     1      18.956   1.767  30.425  1.00  0.00     0.295 A 
HETATM   12  C15 UNK     1      18.944  -0.637  33.938  1.00  0.00     0.018 A 
HETATM   13  C16 UNK     1      17.960   1.972  33.957  1.00  0.00     0.137 A 
HETATM   14  C19 UNK     1      17.953   1.226  35.130  1.00  0.00     0.104 A 
HETATM   15  C20 UNK     1      18.445  -0.077  35.121  1.00  0.00     0.040 A 
ENDROOT
BRANCH  13  16
HETATM   16  O2  UNK     1      17.481   3.247  33.953  1.00  0.00    -0.338 OA
BRANCH  16  17
HETATM   17  C24 UNK     1      18.421   4.293  34.190  1.00  0.00     0.259 C 
BRANCH  17  18
HETATM   18  C25 UNK     1      18.289   5.361  33.122  1.00  0.00     0.183 C 
HETATM   19  O5  UNK     1      18.908   5.295  32.062  1.00  0.00    -0.290 OA
BRANCH  18  20
HETATM   20  C21 UNK     1      17.385   6.520  33.375  1.00  0.00     0.012 A 
HETATM   21  C22 UNK     1      17.632   7.326  34.463  1.00  0.00     0.017 A 
HETATM   22  C17 UNK     1      16.788   8.409  34.700  1.00  0.00     0.030 A 
HETATM   23  C12 UNK     1      15.717   8.660  33.841  1.00  0.00     0.030 A 
HETATM   24  C18 UNK     1      15.492   7.826  32.746  1.00  0.00     0.030 A 
HETATM   25  C23 UNK     1      16.336   6.741  32.510  1.00  0.00     0.017 A 
BRANCH  23  26
HETATM   26  N1  UNK     1      14.882   9.732  34.074  1.00  0.00    -0.381 N 
HETATM   27  C3  UNK     1      14.173  10.463  33.027  1.00  0.00     0.123 C 
HETATM   28  C1  UNK     1      13.174  11.325  33.797  1.00  0.00     0.021 C 
HETATM   29  C2  UNK     1      13.893  11.599  35.107  1.00  0.00     0.021 C 
HETATM   30  C4  UNK     1      14.598  10.276  35.400  1.00  0.00     0.123 C 
ENDBRANCH  23  26
ENDBRANCH  18  20
ENDBRANCH  17  18
ENDBRANCH  16  17
ENDBRANCH  13  16
BRANCH  14  31
HETATM   31  O4  UNK     1      17.464   1.751  36.287  1.00  0.00    -0.353 OA
HETATM   32  C26 UNK     1      17.834   1.102  37.501  1.00  0.00     0.210 C 
ENDBRANCH  14  31
TORSDOF 6
ENDMDL
MODEL 5
REMARK VINA RESULT:      -9.2      5.827     12.140
REMARK  6 active torsions:
REMARK  status: ('A' for Active; 'I' for Inactive)
REMARK    1  A    between atoms: C16_22  and  O2_2 
REMARK    2  A    between atoms: C24_30  and  O2_2 
REMARK    3  A    between atoms: C19_25  and  O4_4 
REMARK    4  A    between atoms: C12_18  and  N1_6 
REMARK    5  A    between atoms: C21_27  and  C25_31 
REMARK    6  A    between atoms: C24_30  and  C25_31 
ROOT
HETATM    1  O1  UNK     1      17.892   2.376  34.357  1.00  0.00    -0.271 OA
HETATM    2  O3  UNK     1      17.432   2.278  36.582  1.00  0.00    -0.259 OA
HETATM    3  C5  UNK     1      19.249  -1.740  34.505  1.00  0.00     0.040 C 
HETATM    4  C6  UNK     1      19.463  -2.303  35.911  1.00  0.00     0.005 C 
HETATM    5  C7  UNK     1      18.744  -0.314  34.477  1.00  0.00    -0.033 A 
HETATM    6  C8  UNK     1      18.313  -1.922  36.829  1.00  0.00     0.005 C 
HETATM    7  C9  UNK     1      18.186  -0.403  36.923  1.00  0.00     0.045 C 
HETATM    8  C10 UNK     1      18.286   0.296  35.587  1.00  0.00     0.025 A 
HETATM    9  C11 UNK     1      18.757   0.416  33.198  1.00  0.00     0.008 A 
HETATM   10  C13 UNK     1      18.333   1.743  33.182  1.00  0.00     0.126 A 
HETATM   11  C14 UNK     1      17.833   1.712  35.571  1.00  0.00     0.295 A 
HETATM   12  C15 UNK     1      19.162  -0.146  31.979  1.00  0.00     0.018 A 
HETATM   13  C16 UNK     1      18.314   2.510  32.015  1.00  0.00     0.137 A 
HETATM   14  C19 UNK     1      18.726   1.936  30.818  1.00  0.00     0.104 A 
HETATM   15  C20 UNK     1      19.148   0.609  30.800  1.00  0.00     0.040 A 
ENDROOT
BRANCH  13  16
HETATM   16  O2  UNK     1      17.899   3.807  32.046  1.00  0.00    -0.338 OA
BRANCH  16  17
HETATM   17  C24 UNK     1      18.912   4.811  32.061  1.00  0.00     0.259 C 
BRANCH  17  18
HETATM   18  C25 UNK     1      18.433   6.041  31.316  1.00  0.00     0.183 C 
HETATM   19  O5  UNK     1      18.607   6.172  30.106  1.00  0.00    -0.290 OA
BRANCH  18  20
HETATM   20  C21 UNK     1      17.739   7.118  32.080  1.00  0.00     0.012 A 
HETATM   21  C22 UNK     1      18.389   7.695  33.148  1.00  0.00     0.017 A 
HETATM   22  C17 UNK     1      17.741   8.700  33.863  1.00  0.00     0.030 A 
HETATM   23  C12 UNK     1      16.458   9.105  33.491  1.00  0.00     0.030 A 
HETATM   24  C18 UNK     1      15.825   8.502  32.405  1.00  0.00     0.030 A 
HETATM   25  C23 UNK     1      16.473   7.495  31.690  1.00  0.00     0.017 A 
BRANCH  23  26
HETATM   26  N1  UNK     1      15.817  10.101  34.197  1.00  0.00    -0.381 N 
HETATM   27  C3  UNK     1      16.408  11.401  34.501  1.00  0.00     0.123 C 
HETATM   28  C1  UNK     1      15.228  12.229  35.007  1.00  0.00     0.021 C 
HETATM   29  C2  UNK     1      14.334  11.189  35.661  1.00  0.00     0.021 C 
HETATM   30  C4  UNK     1      14.462   9.985  34.731  1.00  0.00     0.123 C 
ENDBRANCH  23  26
ENDBRANCH  18  20
ENDBRANCH  17  18
ENDBRANCH  16  17
ENDBRANCH  13  16
BRANCH  14  31
HETATM   31  O4  UNK     1      18.726   2.657  29.663  1.00  0.00    -0.353 OA
HETATM   32  C26 UNK     1      17.941   2.154  28.584  1.00  0.00     0.210 C 
ENDBRANCH  14  31
TORSDOF 6
ENDMDL
MODEL 6
REMARK VINA RESULT:      -9.1     10.181     12.882
REMARK  6 active torsions:
REMARK  status: ('A' for Active; 'I' for Inactive)
REMARK    1  A    between atoms: C16_22  and  O2_2 
REMARK    2  A    between atoms: C24_30  and  O2_2 
REMARK    3  A    between atoms: C19_25  and  O4_4 
REMARK    4  A    between atoms: C12_18  and  N1_6 
REMARK    5  A    between atoms: C21_27  and  C25_31 
REMARK    6  A    between atoms: C24_30  and  C25_31 
ROOT
HETATM    1  O1  UNK     1      28.851  -6.513  35.601  1.00  0.00    -0.271 OA
HETATM    2  O3  UNK     1      30.292  -5.642  34.072  1.00  0.00    -0.259 OA
HETATM    3  C5  UNK     1      28.899 -10.270  33.435  1.00  0.00     0.040 C 
HETATM    4  C6  UNK     1      29.521 -10.206  32.038  1.00  0.00     0.005 C 
HETATM    5  C7  UNK     1      28.923  -8.956  34.185  1.00  0.00    -0.033 A 
HETATM    6  C8  UNK     1      30.810  -9.401  32.055  1.00  0.00     0.005 C 
HETATM    7  C9  UNK     1      30.546  -7.978  32.540  1.00  0.00     0.045 C 
HETATM    8  C10 UNK     1      29.655  -7.909  33.757  1.00  0.00     0.025 A 
HETATM    9  C11 UNK     1      28.122  -8.830  35.415  1.00  0.00     0.008 A 
HETATM   10  C13 UNK     1      28.110  -7.607  36.082  1.00  0.00     0.126 A 
HETATM   11  C14 UNK     1      29.642  -6.604  34.468  1.00  0.00     0.295 A 
HETATM   12  C15 UNK     1      27.372  -9.875  35.973  1.00  0.00     0.018 A 
HETATM   13  C16 UNK     1      27.379  -7.399  37.253  1.00  0.00     0.137 A 
HETATM   14  C19 UNK     1      26.636  -8.446  37.786  1.00  0.00     0.104 A 
HETATM   15  C20 UNK     1      26.634  -9.683  37.147  1.00  0.00     0.040 A 
ENDROOT
BRANCH  13  16
HETATM   16  O2  UNK     1      27.389  -6.183  37.869  1.00  0.00    -0.338 OA
BRANCH  16  17
HETATM   17  C24 UNK     1      28.081  -6.093  39.112  1.00  0.00     0.259 C 
BRANCH  17  18
HETATM   18  C25 UNK     1      29.120  -4.991  39.048  1.00  0.00     0.183 C 
HETATM   19  O5  UNK     1      28.973  -3.928  39.648  1.00  0.00    -0.290 OA
BRANCH  18  20
HETATM   20  C21 UNK     1      30.348  -5.209  38.229  1.00  0.00     0.012 A 
HETATM   21  C22 UNK     1      30.963  -6.440  38.276  1.00  0.00     0.017 A 
HETATM   22  C17 UNK     1      32.110  -6.644  37.511  1.00  0.00     0.030 A 
HETATM   23  C12 UNK     1      32.613  -5.612  36.717  1.00  0.00     0.030 A 
HETATM   24  C18 UNK     1      31.968  -4.376  36.691  1.00  0.00     0.030 A 
HETATM   25  C23 UNK     1      30.820  -4.171  37.457  1.00  0.00     0.017 A 
BRANCH  23  26
HETATM   26  N1  UNK     1      33.747  -5.815  35.960  1.00  0.00    -0.381 N 
HETATM   27  C3  UNK     1      33.742  -6.022  34.514  1.00  0.00     0.123 C 
HETATM   28  C1  UNK     1      35.211  -5.889  34.121  1.00  0.00     0.021 C 
HETATM   29  C2  UNK     1      35.944  -6.390  35.353  1.00  0.00     0.021 C 
HETATM   30  C4  UNK     1      35.102  -5.846  36.505  1.00  0.00     0.123 C 
ENDBRANCH  23  26
ENDBRANCH  18  20
ENDBRANCH  17  18
ENDBRANCH  16  17
ENDBRANCH  13  16
BRANCH  14  31
HETATM   31  O4  UNK     1      25.907  -8.275  38.923  1.00  0.00    -0.353 OA
HETATM   32  C26 UNK     1      24.515  -8.006  38.766  1.00  0.00     0.210 C 
ENDBRANCH  14  31
TORSDOF 6
ENDMDL
MODEL 7
REMARK VINA RESULT:      -8.9     10.761     13.811
REMARK  6 active torsions:
REMARK  status: ('A' for Active; 'I' for Inactive)
REMARK    1  A    between atoms: C16_22  and  O2_2 
REMARK    2  A    between atoms: C24_30  and  O2_2 
REMARK    3  A    between atoms: C19_25  and  O4_4 
REMARK    4  A    between atoms: C12_18  and  N1_6 
REMARK    5  A    between atoms: C21_27  and  C25_31 
REMARK    6  A    between atoms: C24_30  and  C25_31 
ROOT
HETATM    1  O1  UNK     1      31.397  -8.532  38.126  1.00  0.00    -0.271 OA
HETATM    2  O3  UNK     1      30.869 -10.690  38.616  1.00  0.00    -0.259 OA
HETATM    3  C5  UNK     1      27.295  -7.392  38.954  1.00  0.00     0.040 C 
HETATM    4  C6  UNK     1      26.309  -8.556  39.068  1.00  0.00     0.005 C 
HETATM    5  C7  UNK     1      28.726  -7.814  38.698  1.00  0.00    -0.033 A 
HETATM    6  C8  UNK     1      26.894  -9.684  39.901  1.00  0.00     0.005 C 
HETATM    7  C9  UNK     1      28.187 -10.197  39.273  1.00  0.00     0.045 C 
HETATM    8  C10 UNK     1      29.118  -9.097  38.820  1.00  0.00     0.025 A 
HETATM    9  C11 UNK     1      29.706  -6.787  38.307  1.00  0.00     0.008 A 
HETATM   10  C13 UNK     1      31.013  -7.183  38.029  1.00  0.00     0.126 A 
HETATM   11  C14 UNK     1      30.512  -9.521  38.524  1.00  0.00     0.295 A 
HETATM   12  C15 UNK     1      29.412  -5.420  38.205  1.00  0.00     0.018 A 
HETATM   13  C16 UNK     1      32.006  -6.278  37.650  1.00  0.00     0.137 A 
HETATM   14  C19 UNK     1      31.692  -4.927  37.549  1.00  0.00     0.104 A 
HETATM   15  C20 UNK     1      30.397  -4.499  37.828  1.00  0.00     0.040 A 
ENDROOT
BRANCH  13  16
HETATM   16  O2  UNK     1      33.270  -6.709  37.380  1.00  0.00    -0.338 OA
BRANCH  16  17
HETATM   17  C24 UNK     1      33.453  -7.472  36.188  1.00  0.00     0.259 C 
BRANCH  17  18
HETATM   18  C25 UNK     1      33.281  -6.584  34.972  1.00  0.00     0.183 C 
HETATM   19  O5  UNK     1      34.090  -5.700  34.697  1.00  0.00    -0.290 OA
BRANCH  18  20
HETATM   20  C21 UNK     1      32.092  -6.792  34.095  1.00  0.00     0.012 A 
HETATM   21  C22 UNK     1      31.068  -5.873  34.141  1.00  0.00     0.017 A 
HETATM   22  C17 UNK     1      29.957  -6.067  33.322  1.00  0.00     0.030 A 
HETATM   23  C12 UNK     1      29.899  -7.176  32.475  1.00  0.00     0.030 A 
HETATM   24  C18 UNK     1      30.953  -8.089  32.451  1.00  0.00     0.030 A 
HETATM   25  C23 UNK     1      32.064  -7.896  33.271  1.00  0.00     0.017 A 
BRANCH  23  26
HETATM   26  N1  UNK     1      28.801  -7.367  31.664  1.00  0.00    -0.381 N 
HETATM   27  C3  UNK     1      27.578  -6.572  31.738  1.00  0.00     0.123 C 
HETATM   28  C1  UNK     1      26.817  -6.955  30.470  1.00  0.00     0.021 C 
HETATM   29  C2  UNK     1      27.243  -8.394  30.234  1.00  0.00     0.021 C 
HETATM   30  C4  UNK     1      28.720  -8.388  30.622  1.00  0.00     0.123 C 
ENDBRANCH  23  26
ENDBRANCH  18  20
ENDBRANCH  17  18
ENDBRANCH  16  17
ENDBRANCH  13  16
BRANCH  14  31
HETATM   31  O4  UNK     1      32.635  -4.019  37.176  1.00  0.00    -0.353 OA
HETATM   32  C26 UNK     1      32.205  -2.942  36.345  1.00  0.00     0.210 C 
ENDBRANCH  14  31
TORSDOF 6
ENDMDL
MODEL 8
REMARK VINA RESULT:      -8.8      8.972     12.679
REMARK  6 active torsions:
REMARK  status: ('A' for Active; 'I' for Inactive)
REMARK    1  A    between atoms: C16_22  and  O2_2 
REMARK    2  A    between atoms: C24_30  and  O2_2 
REMARK    3  A    between atoms: C19_25  and  O4_4 
REMARK    4  A    between atoms: C12_18  and  N1_6 
REMARK    5  A    between atoms: C21_27  and  C25_31 
REMARK    6  A    between atoms: C24_30  and  C25_31 
ROOT
HETATM    1  O1  UNK     1      25.210  -7.252  38.811  1.00  0.00    -0.271 OA
HETATM    2  O3  UNK     1      23.070  -6.662  39.306  1.00  0.00    -0.259 OA
HETATM    3  C5  UNK     1      23.697 -10.385  36.223  1.00  0.00     0.040 C 
HETATM    4  C6  UNK     1      22.206 -10.691  36.378  1.00  0.00     0.005 C 
HETATM    5  C7  UNK     1      24.196  -9.266  37.111  1.00  0.00    -0.033 A 
HETATM    6  C8  UNK     1      21.394  -9.409  36.458  1.00  0.00     0.005 C 
HETATM    7  C9  UNK     1      21.847  -8.563  37.645  1.00  0.00     0.045 C 
HETATM    8  C10 UNK     1      23.348  -8.458  37.776  1.00  0.00     0.025 A 
HETATM    9  C11 UNK     1      25.649  -9.065  37.245  1.00  0.00     0.008 A 
HETATM   10  C13 UNK     1      26.109  -8.063  38.097  1.00  0.00     0.126 A 
HETATM   11  C14 UNK     1      23.837  -7.389  38.685  1.00  0.00     0.295 A 
HETATM   12  C15 UNK     1      26.611  -9.815  36.555  1.00  0.00     0.018 A 
HETATM   13  C16 UNK     1      27.468  -7.804  38.285  1.00  0.00     0.137 A 
HETATM   14  C19 UNK     1      28.406  -8.564  37.596  1.00  0.00     0.104 A 
HETATM   15  C20 UNK     1      27.978  -9.567  36.731  1.00  0.00     0.040 A 
ENDROOT
BRANCH  13  16
HETATM   16  O2  UNK     1      27.874  -6.819  39.134  1.00  0.00    -0.338 OA
BRANCH  16  17
HETATM   17  C24 UNK     1      27.904  -5.490  38.618  1.00  0.00     0.259 C 
BRANCH  17  18
HETATM   18  C25 UNK     1      29.213  -4.820  38.986  1.00  0.00     0.183 C 
HETATM   19  O5  UNK     1      29.304  -4.066  39.953  1.00  0.00    -0.290 OA
BRANCH  18  20
HETATM   20  C21 UNK     1      30.416  -5.086  38.145  1.00  0.00     0.012 A 
HETATM   21  C22 UNK     1      31.609  -5.371  38.769  1.00  0.00     0.017 A 
HETATM   22  C17 UNK     1      32.734  -5.618  37.983  1.00  0.00     0.030 A 
HETATM   23  C12 UNK     1      32.636  -5.576  36.591  1.00  0.00     0.030 A 
HETATM   24  C18 UNK     1      31.413  -5.284  35.988  1.00  0.00     0.030 A 
HETATM   25  C23 UNK     1      30.288  -5.035  36.774  1.00  0.00     0.017 A 
BRANCH  23  26
HETATM   26  N1  UNK     1      33.747  -5.822  35.814  1.00  0.00    -0.381 N 
HETATM   27  C3  UNK     1      35.107  -5.930  36.337  1.00  0.00     0.123 C 
HETATM   28  C1  UNK     1      35.904  -6.500  35.165  1.00  0.00     0.021 C 
HETATM   29  C2  UNK     1      35.177  -5.945  33.952  1.00  0.00     0.021 C 
HETATM   30  C4  UNK     1      33.709  -6.010  34.366  1.00  0.00     0.123 C 
ENDBRANCH  23  26
ENDBRANCH  18  20
ENDBRANCH  17  18
ENDBRANCH  16  17
ENDBRANCH  13  16
BRANCH  14  31
HETATM   31  O4  UNK     1      29.739  -8.342  37.761  1.00  0.00    -0.353 OA
HETATM   32  C26 UNK     1      30.606  -8.799  36.725  1.00  0.00     0.210 C 
ENDBRANCH  14  31
TORSDOF 6
ENDMDL
MODEL 9
REMARK VINA RESULT:      -8.7     26.896     29.227
REMARK  6 active torsions:
REMARK  status: ('A' for Active; 'I' for Inactive)
REMARK    1  A    between atoms: C16_22  and  O2_2 
REMARK    2  A    between atoms: C24_30  and  O2_2 
REMARK    3  A    between atoms: C19_25  and  O4_4 
REMARK    4  A    between atoms: C12_18  and  N1_6 
REMARK    5  A    between atoms: C21_27  and  C25_31 
REMARK    6  A    between atoms: C24_30  and  C25_31 
ROOT
HETATM    1  O1  UNK     1       8.689   7.876   9.694  1.00  0.00    -0.271 OA
HETATM    2  O3  UNK     1       9.504   9.989   9.912  1.00  0.00    -0.259 OA
HETATM    3  C5  UNK     1       5.599   8.822  12.587  1.00  0.00     0.040 C 
HETATM    4  C6  UNK     1       5.817  10.119  13.369  1.00  0.00     0.005 C 
HETATM    5  C7  UNK     1       6.672   8.529  11.560  1.00  0.00    -0.033 A 
HETATM    6  C8  UNK     1       6.267  11.240  12.447  1.00  0.00     0.005 C 
HETATM    7  C9  UNK     1       7.570  10.865  11.745  1.00  0.00     0.045 C 
HETATM    8  C10 UNK     1       7.581   9.456  11.202  1.00  0.00     0.025 A 
HETATM    9  C11 UNK     1       6.712   7.193  10.943  1.00  0.00     0.008 A 
HETATM   10  C13 UNK     1       7.726   6.909  10.030  1.00  0.00     0.126 A 
HETATM   11  C14 UNK     1       8.663   9.155  10.228  1.00  0.00     0.295 A 
HETATM   12  C15 UNK     1       5.781   6.178  11.206  1.00  0.00     0.018 A 
HETATM   13  C16 UNK     1       7.841   5.669   9.399  1.00  0.00     0.137 A 
HETATM   14  C19 UNK     1       6.911   4.675   9.679  1.00  0.00     0.104 A 
HETATM   15  C20 UNK     1       5.881   4.930  10.581  1.00  0.00     0.040 A 
ENDROOT
BRANCH  13  16
HETATM   16  O2  UNK     1       8.853   5.432   8.518  1.00  0.00    -0.338 OA
BRANCH  16  17
HETATM   17  C24 UNK     1       8.737   6.019   7.224  1.00  0.00     0.259 C 
BRANCH  17  18
HETATM   18  C25 UNK     1      10.093   6.054   6.547  1.00  0.00     0.183 C 
HETATM   19  O5  UNK     1      10.220   5.842   5.342  1.00  0.00    -0.290 OA
BRANCH  18  20
HETATM   20  C21 UNK     1      11.300   6.350   7.372  1.00  0.00     0.012 A 
HETATM   21  C22 UNK     1      11.501   7.639   7.811  1.00  0.00     0.017 A 
HETATM   22  C17 UNK     1      12.628   7.916   8.582  1.00  0.00     0.030 A 
HETATM   23  C12 UNK     1      13.527   6.895   8.896  1.00  0.00     0.030 A 
HETATM   24  C18 UNK     1      13.296   5.599   8.438  1.00  0.00     0.030 A 
HETATM   25  C23 UNK     1      12.168   5.322   7.665  1.00  0.00     0.017 A 
BRANCH  23  26
HETATM   26  N1  UNK     1      14.641   7.169   9.660  1.00  0.00    -0.381 N 
HETATM   27  C3  UNK     1      15.834   6.327   9.703  1.00  0.00     0.123 C 
HETATM   28  C1  UNK     1      16.866   7.192  10.424  1.00  0.00     0.021 C 
HETATM   29  C2  UNK     1      16.015   8.032  11.361  1.00  0.00     0.021 C 
HETATM   30  C4  UNK     1      14.775   8.338  10.526  1.00  0.00     0.123 C 
ENDBRANCH  23  26
ENDBRANCH  18  20
ENDBRANCH  17  18
ENDBRANCH  16  17
ENDBRANCH  13  16
BRANCH  14  31
HETATM   31  O4  UNK     1       6.998   3.452   9.086  1.00  0.00    -0.353 OA
HETATM   32  C26 UNK     1       6.075   2.455   9.519  1.00  0.00     0.210 C 
ENDBRANCH  14  31
TORSDOF 6
ENDMDL
MODEL 10
REMARK VINA RESULT:      -8.7     10.488     13.850
REMARK  6 active torsions:
REMARK  status: ('A' for Active; 'I' for Inactive)
REMARK    1  A    between atoms: C16_22  and  O2_2 
REMARK    2  A    between atoms: C24_30  and  O2_2 
REMARK    3  A    between atoms: C19_25  and  O4_4 
REMARK    4  A    between atoms: C12_18  and  N1_6 
REMARK    5  A    between atoms: C21_27  and  C25_31 
REMARK    6  A    between atoms: C24_30  and  C25_31 
ROOT
HETATM    1  O1  UNK     1      29.866  -5.292  38.224  1.00  0.00    -0.271 OA
HETATM    2  O3  UNK     1      27.745  -4.642  38.731  1.00  0.00    -0.259 OA
HETATM    3  C5  UNK     1      28.705  -9.420  38.872  1.00  0.00     0.040 C 
HETATM    4  C6  UNK     1      27.355  -9.613  39.567  1.00  0.00     0.005 C 
HETATM    5  C7  UNK     1      29.074  -7.973  38.626  1.00  0.00    -0.033 A 
HETATM    6  C8  UNK     1      26.305  -8.684  38.982  1.00  0.00     0.005 C 
HETATM    7  C9  UNK     1      26.733  -7.227  39.139  1.00  0.00     0.045 C 
HETATM    8  C10 UNK     1      28.178  -6.978  38.775  1.00  0.00     0.025 A 
HETATM    9  C11 UNK     1      30.452  -7.656  38.212  1.00  0.00     0.008 A 
HETATM   10  C13 UNK     1      30.803  -6.321  38.028  1.00  0.00     0.126 A 
HETATM   11  C14 UNK     1      28.552  -5.553  38.579  1.00  0.00     0.295 A 
HETATM   12  C15 UNK     1      31.442  -8.621  37.977  1.00  0.00     0.018 A 
HETATM   13  C16 UNK     1      32.086  -5.930  37.639  1.00  0.00     0.137 A 
HETATM   14  C19 UNK     1      33.054  -6.902  37.417  1.00  0.00     0.104 A 
HETATM   15  C20 UNK     1      32.732  -8.246  37.585  1.00  0.00     0.040 A 
ENDROOT
BRANCH  13  16
HETATM   16  O2  UNK     1      32.389  -4.611  37.478  1.00  0.00    -0.338 OA
BRANCH  16  17
HETATM   17  C24 UNK     1      31.800  -3.942  36.365  1.00  0.00     0.259 C 
BRANCH  17  18
HETATM   18  C25 UNK     1      32.452  -4.406  35.077  1.00  0.00     0.183 C 
HETATM   19  O5  UNK     1      33.625  -4.145  34.816  1.00  0.00    -0.290 OA
BRANCH  18  20
HETATM   20  C21 UNK     1      31.640  -5.194  34.105  1.00  0.00     0.012 A 
HETATM   21  C22 UNK     1      30.927  -4.519  33.140  1.00  0.00     0.017 A 
HETATM   22  C17 UNK     1      30.167  -5.255  32.232  1.00  0.00     0.030 A 
HETATM   23  C12 UNK     1      30.140  -6.648  32.312  1.00  0.00     0.030 A 
HETATM   24  C18 UNK     1      30.873  -7.303  33.301  1.00  0.00     0.030 A 
HETATM   25  C23 UNK     1      31.632  -6.567  34.210  1.00  0.00     0.017 A 
BRANCH  23  26
HETATM   26  N1  UNK     1      29.391  -7.376  31.413  1.00  0.00    -0.381 N 
HETATM   27  C3  UNK     1      29.610  -7.373  29.969  1.00  0.00     0.123 C 
HETATM   28  C1  UNK     1      28.757  -8.536  29.467  1.00  0.00     0.021 C 
HETATM   29  C2  UNK     1      27.605  -8.570  30.457  1.00  0.00     0.021 C 
HETATM   30  C4  UNK     1      28.280  -8.248  31.788  1.00  0.00     0.123 C 
ENDBRANCH  23  26
ENDBRANCH  18  20
ENDBRANCH  17  18
ENDBRANCH  16  17
ENDBRANCH  13  16
BRANCH  14  31
HETATM   31  O4  UNK     1      34.317  -6.555  37.043  1.00  0.00    -0.353 OA
HETATM   32  C26 UNK     1      34.842  -7.181  35.874  1.00  0.00     0.210 C 
ENDBRANCH  14  31
TORSDOF 6
ENDMDL
