MODEL 1
REMARK VINA RESULT:      -7.7      0.000      0.000
REMARK  1 active torsions:
REMARK  status: ('A' for Active; 'I' for Inactive)
REMARK       I    between atoms: C5_11  and  N1_5 
REMARK    1  A    between atoms: C2_8  and  C5_11 
ROOT
HETATM    1  O1  UNK     1      11.118   7.500   9.566  1.00  0.00    -0.274 OA
HETATM    2  O3  UNK     1      12.653   8.100  11.148  1.00  0.00    -0.259 OA
HETATM    3  C1  UNK     1      11.877   6.714   7.393  1.00  0.00    -0.001 A 
HETATM    4  C2  UNK     1      13.507   7.348   9.069  1.00  0.00     0.110 A 
HETATM    5  C3  UNK     1      10.841   7.022   8.270  1.00  0.00     0.089 A 
HETATM    6  C4  UNK     1      13.250   6.893   7.836  1.00  0.00     0.037 A 
HETATM    7  C6  UNK     1      12.421   7.682  10.018  1.00  0.00     0.304 A 
HETATM    8  C7  UNK     1      11.561   6.242   6.117  1.00  0.00     0.014 A 
HETATM    9  C8  UNK     1       9.504   6.873   7.907  1.00  0.00     0.038 A 
HETATM   10  C9  UNK     1      10.224   6.088   5.739  1.00  0.00     0.001 A 
HETATM   11  C10 UNK     1       9.198   6.402   6.632  1.00  0.00     0.003 A 
ENDROOT
BRANCH   4  12
HETATM   12  C5  UNK     1      14.926   7.496   9.423  1.00  0.00     0.284 C 
HETATM   13  O2  UNK     1      15.612   6.584   9.859  1.00  0.00    -0.265 OA
HETATM   14  N1  UNK     1      15.498   8.757   9.244  1.00  0.00    -0.207 N 
HETATM   15  C11 UNK     1      16.802   9.113   9.510  1.00  0.00     0.142 A 
HETATM   16  N2  UNK     1      14.778   9.799   8.764  1.00  0.00    -0.176 NA
HETATM   17  C12 UNK     1      16.925  10.441   9.189  1.00  0.00     0.047 A 
HETATM   18 Br1  UNK     1      18.417  11.547   9.308  1.00  0.00    -0.048 Br
HETATM   19  C13 UNK     1      15.650  10.810   8.736  1.00  0.00     0.160 A 
ENDBRANCH   4  12
TORSDOF 1
ENDMDL
MODEL 2
REMARK VINA RESULT:      -7.7     12.865     14.539
REMARK  1 active torsions:
REMARK  status: ('A' for Active; 'I' for Inactive)
REMARK       I    between atoms: C5_11  and  N1_5 
REMARK    1  A    between atoms: C2_8  and  C5_11 
ROOT
HETATM    1  O1  UNK     1      19.463   1.273  15.577  1.00  0.00    -0.274 OA
HETATM    2  O3  UNK     1      19.309  -0.308  13.934  1.00  0.00    -0.259 OA
HETATM    3  C1  UNK     1      18.943   0.671  17.874  1.00  0.00    -0.001 A 
HETATM    4  C2  UNK     1      18.779  -1.007  16.136  1.00  0.00     0.110 A 
HETATM    5  C3  UNK     1      19.339   1.619  16.936  1.00  0.00     0.089 A 
HETATM    6  C4  UNK     1      18.659  -0.684  17.429  1.00  0.00     0.037 A 
HETATM    7  C6  UNK     1      19.199  -0.015  15.120  1.00  0.00     0.304 A 
HETATM    8  C7  UNK     1      18.832   1.054  19.213  1.00  0.00     0.014 A 
HETATM    9  C8  UNK     1      19.625   2.935  17.297  1.00  0.00     0.038 A 
HETATM   10  C9  UNK     1      19.115   2.369  19.591  1.00  0.00     0.001 A 
HETATM   11  C10 UNK     1      19.511   3.307  18.635  1.00  0.00     0.003 A 
ENDROOT
BRANCH   4  12
HETATM   12  C5  UNK     1      18.469  -2.400  15.783  1.00  0.00     0.284 C 
HETATM   13  O2  UNK     1      17.332  -2.823  15.638  1.00  0.00    -0.265 OA
HETATM   14  N1  UNK     1      19.548  -3.268  15.611  1.00  0.00    -0.207 N 
HETATM   15  C11 UNK     1      19.484  -4.605  15.282  1.00  0.00     0.142 A 
HETATM   16  N2  UNK     1      20.827  -2.847  15.761  1.00  0.00    -0.176 NA
HETATM   17  C12 UNK     1      20.776  -5.061  15.219  1.00  0.00     0.047 A 
HETATM   18 Br1  UNK     1      21.401  -6.770  14.826  1.00  0.00    -0.048 Br
HETATM   19  C13 UNK     1      21.559  -3.938  15.524  1.00  0.00     0.160 A 
ENDBRANCH   4  12
TORSDOF 1
ENDMDL
MODEL 3
REMARK VINA RESULT:      -7.6     29.646     31.071
REMARK  1 active torsions:
REMARK  status: ('A' for Active; 'I' for Inactive)
REMARK       I    between atoms: C5_11  and  N1_5 
REMARK    1  A    between atoms: C2_8  and  C5_11 
ROOT
HETATM    1  O1  UNK     1      19.376  -1.490  34.683  1.00  0.00    -0.274 OA
HETATM    2  O3  UNK     1      20.676  -3.309  34.211  1.00  0.00    -0.259 OA
HETATM    3  C1  UNK     1      18.519  -1.179  36.937  1.00  0.00    -0.001 A 
HETATM    4  C2  UNK     1      19.898  -3.107  36.441  1.00  0.00     0.110 A 
HETATM    5  C3  UNK     1      18.629  -0.748  35.619  1.00  0.00     0.089 A 
HETATM    6  C4  UNK     1      19.190  -2.407  37.334  1.00  0.00     0.037 A 
HETATM    7  C6  UNK     1      20.028  -2.669  35.033  1.00  0.00     0.304 A 
HETATM    8  C7  UNK     1      17.770  -0.415  37.835  1.00  0.00     0.014 A 
HETATM    9  C8  UNK     1      18.010   0.419  35.173  1.00  0.00     0.038 A 
HETATM   10  C9  UNK     1      17.144   0.758  37.404  1.00  0.00     0.001 A 
HETATM   11  C10 UNK     1      17.265   1.174  36.076  1.00  0.00     0.003 A 
ENDROOT
BRANCH   4  12
HETATM   12  C5  UNK     1      20.537  -4.334  36.938  1.00  0.00     0.284 C 
HETATM   13  O2  UNK     1      21.685  -4.377  37.354  1.00  0.00    -0.265 OA
HETATM   14  N1  UNK     1      19.772  -5.501  36.923  1.00  0.00    -0.207 N 
HETATM   15  C11 UNK     1      20.173  -6.752  37.340  1.00  0.00     0.142 A 
HETATM   16  N2  UNK     1      18.495  -5.505  36.471  1.00  0.00    -0.176 NA
HETATM   17  C12 UNK     1      19.107  -7.595  37.147  1.00  0.00     0.047 A 
HETATM   18 Br1  UNK     1      18.972  -9.418  37.498  1.00  0.00    -0.048 Br
HETATM   19  C13 UNK     1      18.105  -6.774  36.610  1.00  0.00     0.160 A 
ENDBRANCH   4  12
TORSDOF 1
ENDMDL
MODEL 4
REMARK VINA RESULT:      -7.6     23.498     25.168
REMARK  1 active torsions:
REMARK  status: ('A' for Active; 'I' for Inactive)
REMARK       I    between atoms: C5_11  and  N1_5 
REMARK    1  A    between atoms: C2_8  and  C5_11 
ROOT
HETATM    1  O1  UNK     1      17.591   6.954  30.727  1.00  0.00    -0.274 OA
HETATM    2  O3  UNK     1      15.497   7.803  31.067  1.00  0.00    -0.259 OA
HETATM    3  C1  UNK     1      19.173   6.885  32.572  1.00  0.00    -0.001 A 
HETATM    4  C2  UNK     1      16.954   7.784  32.937  1.00  0.00     0.110 A 
HETATM    5  C3  UNK     1      18.864   6.634  31.239  1.00  0.00     0.089 A 
HETATM    6  C4  UNK     1      18.161   7.482  33.429  1.00  0.00     0.037 A 
HETATM    7  C6  UNK     1      16.603   7.527  31.522  1.00  0.00     0.304 A 
HETATM    8  C7  UNK     1      20.446   6.553  33.042  1.00  0.00     0.014 A 
HETATM    9  C8  UNK     1      19.788   6.065  30.365  1.00  0.00     0.038 A 
HETATM   10  C9  UNK     1      21.384   5.981  32.177  1.00  0.00     0.001 A 
HETATM   11  C10 UNK     1      21.056   5.738  30.842  1.00  0.00     0.003 A 
ENDROOT
BRANCH   4  12
HETATM   12  C5  UNK     1      16.000   8.385  33.880  1.00  0.00     0.284 C 
HETATM   13  O2  UNK     1      15.079   7.768  34.393  1.00  0.00    -0.265 OA
HETATM   14  N1  UNK     1      16.177   9.734  34.191  1.00  0.00    -0.207 N 
HETATM   15  C11 UNK     1      15.402  10.489  35.045  1.00  0.00     0.142 A 
HETATM   16  N2  UNK     1      17.183  10.460  33.648  1.00  0.00    -0.176 NA
HETATM   17  C12 UNK     1      15.934  11.754  35.050  1.00  0.00     0.047 A 
HETATM   18 Br1  UNK     1      15.373  13.261  35.986  1.00  0.00    -0.048 Br
HETATM   19  C13 UNK     1      17.026  11.677  34.173  1.00  0.00     0.160 A 
ENDBRANCH   4  12
TORSDOF 1
ENDMDL
MODEL 5
REMARK VINA RESULT:      -7.4     23.551     25.203
REMARK  1 active torsions:
REMARK  status: ('A' for Active; 'I' for Inactive)
REMARK       I    between atoms: C5_11  and  N1_5 
REMARK    1  A    between atoms: C2_8  and  C5_11 
ROOT
HETATM    1  O1  UNK     1      19.525   8.112  33.585  1.00  0.00    -0.274 OA
HETATM    2  O3  UNK     1      20.688   6.177  33.235  1.00  0.00    -0.259 OA
HETATM    3  C1  UNK     1      17.101   8.040  33.768  1.00  0.00    -0.001 A 
HETATM    4  C2  UNK     1      18.331   5.986  33.398  1.00  0.00     0.110 A 
HETATM    5  C3  UNK     1      18.290   8.764  33.770  1.00  0.00     0.089 A 
HETATM    6  C4  UNK     1      17.155   6.600  33.573  1.00  0.00     0.037 A 
HETATM    7  C6  UNK     1      19.608   6.736  33.396  1.00  0.00     0.304 A 
HETATM    8  C7  UNK     1      15.896   8.722  33.955  1.00  0.00     0.014 A 
HETATM    9  C8  UNK     1      18.308  10.145  33.950  1.00  0.00     0.038 A 
HETATM   10  C9  UNK     1      15.898  10.108  34.137  1.00  0.00     0.001 A 
HETATM   11  C10 UNK     1      17.101  10.817  34.136  1.00  0.00     0.003 A 
ENDROOT
BRANCH   4  12
HETATM   12  C5  UNK     1      18.282   4.530  33.208  1.00  0.00     0.284 C 
HETATM   13  O2  UNK     1      18.132   3.734  34.123  1.00  0.00    -0.265 OA
HETATM   14  N1  UNK     1      18.415   4.053  31.903  1.00  0.00    -0.207 N 
HETATM   15  C11 UNK     1      18.397   2.734  31.503  1.00  0.00     0.142 A 
HETATM   16  N2  UNK     1      18.582   4.895  30.855  1.00  0.00    -0.176 NA
HETATM   17  C12 UNK     1      18.562   2.730  30.141  1.00  0.00     0.047 A 
HETATM   18 Br1  UNK     1      18.632   1.285  28.971  1.00  0.00    -0.048 Br
HETATM   19  C13 UNK     1      18.671   4.086  29.798  1.00  0.00     0.160 A 
ENDBRANCH   4  12
TORSDOF 1
ENDMDL
MODEL 6
REMARK VINA RESULT:      -7.4     22.908     24.496
REMARK  1 active torsions:
REMARK  status: ('A' for Active; 'I' for Inactive)
REMARK       I    between atoms: C5_11  and  N1_5 
REMARK    1  A    between atoms: C2_8  and  C5_11 
ROOT
HETATM    1  O1  UNK     1      18.141   7.583  34.175  1.00  0.00    -0.274 OA
HETATM    2  O3  UNK     1      19.913   6.316  33.485  1.00  0.00    -0.259 OA
HETATM    3  C1  UNK     1      16.336   8.072  32.620  1.00  0.00    -0.001 A 
HETATM    4  C2  UNK     1      18.212   6.727  31.886  1.00  0.00     0.110 A 
HETATM    5  C3  UNK     1      16.905   8.193  33.884  1.00  0.00     0.089 A 
HETATM    6  C4  UNK     1      17.039   7.304  31.604  1.00  0.00     0.037 A 
HETATM    7  C6  UNK     1      18.836   6.843  33.223  1.00  0.00     0.304 A 
HETATM    8  C7  UNK     1      15.109   8.691  32.371  1.00  0.00     0.014 A 
HETATM    9  C8  UNK     1      16.285   8.914  34.902  1.00  0.00     0.038 A 
HETATM   10  C9  UNK     1      14.474   9.418  33.382  1.00  0.00     0.001 A 
HETATM   11  C10 UNK     1      15.061   9.529  34.645  1.00  0.00     0.003 A 
ENDROOT
BRANCH   4  12
HETATM   12  C5  UNK     1      18.845   5.974  30.793  1.00  0.00     0.284 C 
HETATM   13  O2  UNK     1      19.493   6.498  29.899  1.00  0.00    -0.265 OA
HETATM   14  N1  UNK     1      18.682   4.589  30.797  1.00  0.00    -0.207 N 
HETATM   15  C11 UNK     1      19.187   3.698  29.873  1.00  0.00     0.142 A 
HETATM   16  N2  UNK     1      17.973   3.962  31.766  1.00  0.00    -0.176 NA
HETATM   17  C12 UNK     1      18.783   2.447  30.266  1.00  0.00     0.047 A 
HETATM   18 Br1  UNK     1      19.118   0.800  29.467  1.00  0.00    -0.048 Br
HETATM   19  C13 UNK     1      18.040   2.670  31.434  1.00  0.00     0.160 A 
ENDBRANCH   4  12
TORSDOF 1
ENDMDL
MODEL 7
REMARK VINA RESULT:      -7.4     23.520     25.148
REMARK  1 active torsions:
REMARK  status: ('A' for Active; 'I' for Inactive)
REMARK       I    between atoms: C5_11  and  N1_5 
REMARK    1  A    between atoms: C2_8  and  C5_11 
ROOT
HETATM    1  O1  UNK     1      18.828   7.003  33.986  1.00  0.00    -0.274 OA
HETATM    2  O3  UNK     1      17.339   7.798  35.526  1.00  0.00    -0.259 OA
HETATM    3  C1  UNK     1      18.142   6.767  31.665  1.00  0.00    -0.001 A 
HETATM    4  C2  UNK     1      16.562   7.611  33.295  1.00  0.00     0.110 A 
HETATM    5  C3  UNK     1      19.113   6.644  32.654  1.00  0.00     0.089 A 
HETATM    6  C4  UNK     1      16.828   7.271  32.028  1.00  0.00     0.037 A 
HETATM    7  C6  UNK     1      17.580   7.488  34.364  1.00  0.00     0.304 A 
HETATM    8  C7  UNK     1      18.464   6.401  30.355  1.00  0.00     0.014 A 
HETATM    9  C8  UNK     1      20.392   6.166  32.372  1.00  0.00     0.038 A 
HETATM   10  C9  UNK     1      19.743   5.920  30.058  1.00  0.00     0.001 A 
HETATM   11  C10 UNK     1      20.704   5.804  31.064  1.00  0.00     0.003 A 
ENDROOT
BRANCH   4  12
HETATM   12  C5  UNK     1      15.206   8.109  33.563  1.00  0.00     0.284 C 
HETATM   13  O2  UNK     1      14.231   7.382  33.684  1.00  0.00    -0.265 OA
HETATM   14  N1  UNK     1      15.047   9.490  33.680  1.00  0.00    -0.207 N 
HETATM   15  C11 UNK     1      13.871  10.165  33.929  1.00  0.00     0.142 A 
HETATM   16  N2  UNK     1      16.096  10.338  33.554  1.00  0.00    -0.176 NA
HETATM   17  C12 UNK     1      14.178  11.502  33.961  1.00  0.00     0.047 A 
HETATM   18 Br1  UNK     1      13.057  12.959  34.250  1.00  0.00    -0.048 Br
HETATM   19  C13 UNK     1      15.560  11.548  33.724  1.00  0.00     0.160 A 
ENDBRANCH   4  12
TORSDOF 1
ENDMDL
MODEL 8
REMARK VINA RESULT:      -7.4     31.030     32.438
REMARK  1 active torsions:
REMARK  status: ('A' for Active; 'I' for Inactive)
REMARK       I    between atoms: C5_11  and  N1_5 
REMARK    1  A    between atoms: C2_8  and  C5_11 
ROOT
HETATM    1  O1  UNK     1      19.253  -6.822  37.755  1.00  0.00    -0.274 OA
HETATM    2  O3  UNK     1      17.917  -5.606  36.355  1.00  0.00    -0.259 OA
HETATM    3  C1  UNK     1      21.498  -6.035  38.256  1.00  0.00    -0.001 A 
HETATM    4  C2  UNK     1      20.085  -4.743  36.773  1.00  0.00     0.110 A 
HETATM    5  C3  UNK     1      20.487  -6.977  38.416  1.00  0.00     0.089 A 
HETATM    6  C4  UNK     1      21.259  -4.886  37.397  1.00  0.00     0.037 A 
HETATM    7  C6  UNK     1      18.995  -5.734  36.927  1.00  0.00     0.304 A 
HETATM    8  C7  UNK     1      22.708  -6.224  38.929  1.00  0.00     0.014 A 
HETATM    9  C8  UNK     1      20.651  -8.101  39.224  1.00  0.00     0.038 A 
HETATM   10  C9  UNK     1      22.888  -7.346  39.743  1.00  0.00     0.001 A 
HETATM   11  C10 UNK     1      21.861  -8.281  39.890  1.00  0.00     0.003 A 
ENDROOT
BRANCH   4  12
HETATM   12  C5  UNK     1      19.940  -3.550  35.926  1.00  0.00     0.284 C 
HETATM   13  O2  UNK     1      20.373  -3.476  34.785  1.00  0.00    -0.265 OA
HETATM   14  N1  UNK     1      19.270  -2.457  36.475  1.00  0.00    -0.207 N 
HETATM   15  C11 UNK     1      19.025  -1.248  35.860  1.00  0.00     0.142 A 
HETATM   16  N2  UNK     1      18.772  -2.491  37.735  1.00  0.00    -0.176 NA
HETATM   17  C12 UNK     1      18.342  -0.474  36.763  1.00  0.00     0.047 A 
HETATM   18 Br1  UNK     1      17.707   1.266  36.577  1.00  0.00    -0.048 Br
HETATM   19  C13 UNK     1      18.215  -1.289  37.897  1.00  0.00     0.160 A 
ENDBRANCH   4  12
TORSDOF 1
ENDMDL
MODEL 9
REMARK VINA RESULT:      -7.3      5.777      7.727
REMARK  1 active torsions:
REMARK  status: ('A' for Active; 'I' for Inactive)
REMARK       I    between atoms: C5_11  and  N1_5 
REMARK    1  A    between atoms: C2_8  and  C5_11 
ROOT
HETATM    1  O1  UNK     1       6.088   2.809  10.353  1.00  0.00    -0.274 OA
HETATM    2  O3  UNK     1       7.004   3.167   8.291  1.00  0.00    -0.259 OA
HETATM    3  C1  UNK     1       6.194   4.561  12.035  1.00  0.00    -0.001 A 
HETATM    4  C2  UNK     1       7.165   4.946   9.849  1.00  0.00     0.110 A 
HETATM    5  C3  UNK     1       5.805   3.283  11.649  1.00  0.00     0.089 A 
HETATM    6  C4  UNK     1       6.898   5.401  11.079  1.00  0.00     0.037 A 
HETATM    7  C6  UNK     1       6.760   3.589   9.417  1.00  0.00     0.304 A 
HETATM    8  C7  UNK     1       5.894   4.996  13.329  1.00  0.00     0.014 A 
HETATM    9  C8  UNK     1       5.128   2.428  12.517  1.00  0.00     0.038 A 
HETATM   10  C9  UNK     1       5.216   4.149  14.211  1.00  0.00     0.001 A 
HETATM   11  C10 UNK     1       4.834   2.869  13.805  1.00  0.00     0.003 A 
ENDROOT
BRANCH   4  12
HETATM   12  C5  UNK     1       7.881   5.868   8.956  1.00  0.00     0.284 C 
HETATM   13  O2  UNK     1       7.326   6.721   8.280  1.00  0.00    -0.265 OA
HETATM   14  N1  UNK     1       9.269   5.743   8.894  1.00  0.00    -0.207 N 
HETATM   15  C11 UNK     1      10.129   6.500   8.127  1.00  0.00     0.142 A 
HETATM   16  N2  UNK     1       9.931   4.813   9.624  1.00  0.00    -0.176 NA
HETATM   17  C12 UNK     1      11.396   6.035   8.375  1.00  0.00     0.047 A 
HETATM   18 Br1  UNK     1      13.019   6.612   7.669  1.00  0.00    -0.048 Br
HETATM   19  C13 UNK     1      11.213   4.998   9.302  1.00  0.00     0.160 A 
ENDBRANCH   4  12
TORSDOF 1
ENDMDL
MODEL 10
REMARK VINA RESULT:      -7.2      1.254      2.057
REMARK  1 active torsions:
REMARK  status: ('A' for Active; 'I' for Inactive)
REMARK       I    between atoms: C5_11  and  N1_5 
REMARK    1  A    between atoms: C2_8  and  C5_11 
ROOT
HETATM    1  O1  UNK     1      12.404   5.748   7.206  1.00  0.00    -0.274 OA
HETATM    2  O3  UNK     1      14.631   5.606   7.694  1.00  0.00    -0.259 OA
HETATM    3  C1  UNK     1      10.950   7.096   8.614  1.00  0.00    -0.001 A 
HETATM    4  C2  UNK     1      13.311   6.950   9.133  1.00  0.00     0.110 A 
HETATM    5  C3  UNK     1      11.128   6.258   7.517  1.00  0.00     0.089 A 
HETATM    6  C4  UNK     1      12.102   7.437   9.433  1.00  0.00     0.037 A 
HETATM    7  C6  UNK     1      13.524   6.056   7.972  1.00  0.00     0.304 A 
HETATM    8  C7  UNK     1       9.669   7.583   8.889  1.00  0.00     0.014 A 
HETATM    9  C8  UNK     1      10.066   5.893   6.692  1.00  0.00     0.038 A 
HETATM   10  C9  UNK     1       8.594   7.225   8.071  1.00  0.00     0.001 A 
HETATM   11  C10 UNK     1       8.793   6.382   6.975  1.00  0.00     0.003 A 
ENDROOT
BRANCH   4  12
HETATM   12  C5  UNK     1      14.412   7.350  10.021  1.00  0.00     0.284 C 
HETATM   13  O2  UNK     1      14.748   6.714  11.008  1.00  0.00    -0.265 OA
HETATM   14  N1  UNK     1      15.094   8.524   9.700  1.00  0.00    -0.207 N 
HETATM   15  C11 UNK     1      16.149   9.078  10.392  1.00  0.00     0.142 A 
HETATM   16  N2  UNK     1      14.758   9.265   8.616  1.00  0.00    -0.176 NA
HETATM   17  C12 UNK     1      16.505  10.223   9.724  1.00  0.00     0.047 A 
HETATM   18 Br1  UNK     1      17.850  11.446  10.123  1.00  0.00    -0.048 Br
HETATM   19  C13 UNK     1      15.615  10.287   8.642  1.00  0.00     0.160 A 
ENDBRANCH   4  12
TORSDOF 1
ENDMDL
