MODEL 1
REMARK VINA RESULT:      -9.9      0.000      0.000
REMARK  2 active torsions:
REMARK  status: ('A' for Active; 'I' for Inactive)
REMARK       I    between atoms: C14_19  and  N1_5 
REMARK    1  A    between atoms: C15_20  and  N1_5 
REMARK    2  A    between atoms: C14_19  and  C7_12 
ROOT
HETATM    1  O1  UNK     1      19.536  -2.245  13.131  1.00  0.00    -0.274 OA
HETATM    2  O2  UNK     1      19.657  -0.292  14.308  1.00  0.00    -0.259 OA
HETATM    3  C1  UNK     1      18.399  -4.195  14.079  1.00  0.00     0.010 A 
HETATM    4  C2  UNK     1      17.991  -5.554  13.935  1.00  0.00    -0.013 A 
HETATM    5  C3  UNK     1      18.327  -6.240  12.734  1.00  0.00    -0.025 A 
HETATM    6  C4  UNK     1      19.110  -3.586  13.042  1.00  0.00     0.090 A 
HETATM    7  C5  UNK     1      18.121  -3.372  15.260  1.00  0.00     0.038 A 
HETATM    8  C6  UNK     1      19.043  -5.583  11.722  1.00  0.00     0.015 A 
HETATM    9  C7  UNK     1      18.529  -2.100  15.340  1.00  0.00     0.108 A 
HETATM   10  C8  UNK     1      19.436  -4.259  11.871  1.00  0.00     0.039 A 
HETATM   11  C9  UNK     1      17.266  -6.282  14.910  1.00  0.00     0.013 A 
HETATM   12  C10 UNK     1      17.945  -7.579  12.552  1.00  0.00     0.012 A 
HETATM   13  C11 UNK     1      19.279  -1.457  14.245  1.00  0.00     0.304 A 
HETATM   14  C12 UNK     1      16.893  -7.613  14.712  1.00  0.00     0.001 A 
HETATM   15  C13 UNK     1      17.232  -8.262  13.535  1.00  0.00     0.001 A 
ENDROOT
BRANCH   9  16
HETATM   16  C14 UNK     1      18.187  -1.382  16.574  1.00  0.00     0.262 C 
HETATM   17  O3  UNK     1      17.105  -1.587  17.120  1.00  0.00    -0.267 OA
HETATM   18  N1  UNK     1      19.199  -0.519  16.973  1.00  0.00    -0.323 N 
HETATM   19  H8  UNK     1      20.050  -0.480  16.418  1.00  0.00     0.169 HD
BRANCH  18  20
HETATM   20  C15 UNK     1      19.213   0.328  18.108  1.00  0.00     0.037 A 
HETATM   21  C16 UNK     1      19.443  -0.219  19.358  1.00  0.00     0.071 A 
HETATM   22  C18 UNK     1      19.457   0.615  20.476  1.00  0.00     0.118 A 
HETATM   23  F1  UNK     1      19.678   0.102  21.693  1.00  0.00    -0.206 F 
HETATM   24  C20 UNK     1      19.240   1.985  20.327  1.00  0.00     0.042 A 
HETATM   25  C19 UNK     1      19.009   2.520  19.060  1.00  0.00     0.005 A 
HETATM   26  C17 UNK     1      18.996   1.685  17.942  1.00  0.00     0.029 A 
ENDBRANCH  18  20
ENDBRANCH   9  16
TORSDOF 2
ENDMDL
MODEL 2
REMARK VINA RESULT:      -9.7     14.106     16.650
REMARK  2 active torsions:
REMARK  status: ('A' for Active; 'I' for Inactive)
REMARK       I    between atoms: C14_19  and  N1_5 
REMARK    1  A    between atoms: C15_20  and  N1_5 
REMARK    2  A    between atoms: C14_19  and  C7_12 
ROOT
HETATM    1  O1  UNK     1      19.018   1.622  28.716  1.00  0.00    -0.274 OA
HETATM    2  O2  UNK     1      18.210   3.746  28.942  1.00  0.00    -0.259 OA
HETATM    3  C1  UNK     1      19.548   0.280  30.694  1.00  0.00     0.010 A 
HETATM    4  C2  UNK     1      20.022  -0.950  31.237  1.00  0.00    -0.013 A 
HETATM    5  C3  UNK     1      20.410  -1.984  30.339  1.00  0.00    -0.025 A 
HETATM    6  C4  UNK     1      19.480   0.428  29.307  1.00  0.00     0.090 A 
HETATM    7  C5  UNK     1      19.118   1.426  31.501  1.00  0.00     0.038 A 
HETATM    8  C6  UNK     1      20.323  -1.786  28.953  1.00  0.00     0.015 A 
HETATM    9  C7  UNK     1      18.681   2.557  30.936  1.00  0.00     0.108 A 
HETATM   10  C8  UNK     1      19.860  -0.583  28.433  1.00  0.00     0.039 A 
HETATM   11  C9  UNK     1      20.137  -1.224  32.623  1.00  0.00     0.013 A 
HETATM   12  C10 UNK     1      20.883  -3.211  30.833  1.00  0.00     0.012 A 
HETATM   13  C11 UNK     1      18.608   2.714  29.470  1.00  0.00     0.304 A 
HETATM   14  C12 UNK     1      20.608  -2.450  33.096  1.00  0.00     0.001 A 
HETATM   15  C13 UNK     1      20.981  -3.443  32.203  1.00  0.00     0.001 A 
ENDROOT
BRANCH   9  16
HETATM   16  C14 UNK     1      18.277   3.631  31.852  1.00  0.00     0.262 C 
HETATM   17  O3  UNK     1      17.614   3.364  32.852  1.00  0.00    -0.267 OA
HETATM   18  N1  UNK     1      18.731   4.875  31.432  1.00  0.00    -0.323 N 
HETATM   19  H8  UNK     1      19.292   4.925  30.585  1.00  0.00     0.169 HD
BRANCH  18  20
HETATM   20  C15 UNK     1      18.529   6.126  32.064  1.00  0.00     0.037 A 
HETATM   21  C16 UNK     1      19.510   6.626  32.903  1.00  0.00     0.071 A 
HETATM   22  C18 UNK     1      19.312   7.858  33.525  1.00  0.00     0.118 A 
HETATM   23  F1  UNK     1      20.251   8.357  34.339  1.00  0.00    -0.206 F 
HETATM   24  C20 UNK     1      18.135   8.572  33.300  1.00  0.00     0.042 A 
HETATM   25  C19 UNK     1      17.156   8.053  32.453  1.00  0.00     0.005 A 
HETATM   26  C17 UNK     1      17.355   6.820  31.830  1.00  0.00     0.029 A 
ENDBRANCH  18  20
ENDBRANCH   9  16
TORSDOF 2
ENDMDL
MODEL 3
REMARK VINA RESULT:      -9.6     16.495     20.656
REMARK  2 active torsions:
REMARK  status: ('A' for Active; 'I' for Inactive)
REMARK       I    between atoms: C14_19  and  N1_5 
REMARK    1  A    between atoms: C15_20  and  N1_5 
REMARK    2  A    between atoms: C14_19  and  C7_12 
ROOT
HETATM    1  O1  UNK     1      18.519  -0.886  36.094  1.00  0.00    -0.274 OA
HETATM    2  O2  UNK     1      18.709  -2.081  38.031  1.00  0.00    -0.259 OA
HETATM    3  C1  UNK     1      19.520  -1.718  34.020  1.00  0.00     0.010 A 
HETATM    4  C2  UNK     1      19.766  -1.530  32.629  1.00  0.00    -0.013 A 
HETATM    5  C3  UNK     1      19.259  -0.358  32.001  1.00  0.00    -0.025 A 
HETATM    6  C4  UNK     1      18.793  -0.750  34.717  1.00  0.00     0.090 A 
HETATM    7  C5  UNK     1      19.984  -2.876  34.791  1.00  0.00     0.038 A 
HETATM    8  C6  UNK     1      18.534   0.584  32.746  1.00  0.00     0.015 A 
HETATM    9  C7  UNK     1      19.722  -2.999  36.097  1.00  0.00     0.108 A 
HETATM   10  C8  UNK     1      18.299   0.393  34.102  1.00  0.00     0.039 A 
HETATM   11  C9  UNK     1      20.487  -2.437  31.812  1.00  0.00     0.013 A 
HETATM   12  C10 UNK     1      19.480  -0.135  30.632  1.00  0.00     0.012 A 
HETATM   13  C11 UNK     1      18.954  -1.978  36.833  1.00  0.00     0.304 A 
HETATM   14  C12 UNK     1      20.697  -2.199  30.452  1.00  0.00     0.001 A 
HETATM   15  C13 UNK     1      20.194  -1.050  29.862  1.00  0.00     0.001 A 
ENDROOT
BRANCH   9  16
HETATM   16  C14 UNK     1      20.240  -4.205  36.756  1.00  0.00     0.262 C 
HETATM   17  O3  UNK     1      21.444  -4.307  36.981  1.00  0.00    -0.267 OA
HETATM   18  N1  UNK     1      19.233  -5.115  37.047  1.00  0.00    -0.323 N 
HETATM   19  H8  UNK     1      18.275  -4.869  36.812  1.00  0.00     0.169 HD
BRANCH  18  20
HETATM   20  C15 UNK     1      19.366  -6.378  37.674  1.00  0.00     0.037 A 
HETATM   21  C16 UNK     1      18.896  -7.508  37.028  1.00  0.00     0.071 A 
HETATM   22  C18 UNK     1      19.027  -8.752  37.645  1.00  0.00     0.118 A 
HETATM   23  F1  UNK     1      18.578  -9.855  37.033  1.00  0.00    -0.206 F 
HETATM   24  C20 UNK     1      19.628  -8.847  38.901  1.00  0.00     0.042 A 
HETATM   25  C19 UNK     1      20.096  -7.698  39.538  1.00  0.00     0.005 A 
HETATM   26  C17 UNK     1      19.964  -6.454  38.920  1.00  0.00     0.029 A 
ENDBRANCH  18  20
ENDBRANCH   9  16
TORSDOF 2
ENDMDL
MODEL 4
REMARK VINA RESULT:      -9.5     15.518     19.476
REMARK  2 active torsions:
REMARK  status: ('A' for Active; 'I' for Inactive)
REMARK       I    between atoms: C14_19  and  N1_5 
REMARK    1  A    between atoms: C15_20  and  N1_5 
REMARK    2  A    between atoms: C14_19  and  C7_12 
ROOT
HETATM    1  O1  UNK     1      17.925   1.361  34.480  1.00  0.00    -0.274 OA
HETATM    2  O2  UNK     1      17.515   0.704  36.628  1.00  0.00    -0.259 OA
HETATM    3  C1  UNK     1      18.926  -0.195  32.877  1.00  0.00     0.010 A 
HETATM    4  C2  UNK     1      19.399  -0.442  31.555  1.00  0.00    -0.013 A 
HETATM    5  C3  UNK     1      19.324   0.611  30.600  1.00  0.00    -0.025 A 
HETATM    6  C4  UNK     1      18.408   1.064  33.189  1.00  0.00     0.090 A 
HETATM    7  C5  UNK     1      18.944  -1.187  33.957  1.00  0.00     0.038 A 
HETATM    8  C6  UNK     1      18.795   1.858  30.963  1.00  0.00     0.015 A 
HETATM    9  C7  UNK     1      18.485  -0.899  35.180  1.00  0.00     0.108 A 
HETATM   10  C8  UNK     1      18.337   2.089  32.254  1.00  0.00     0.039 A 
HETATM   11  C9  UNK     1      19.944  -1.673  31.114  1.00  0.00     0.013 A 
HETATM   12  C10 UNK     1      19.780   0.409  29.287  1.00  0.00     0.012 A 
HETATM   13  C11 UNK     1      17.937   0.430  35.510  1.00  0.00     0.304 A 
HETATM   14  C12 UNK     1      20.392  -1.856  29.804  1.00  0.00     0.001 A 
HETATM   15  C13 UNK     1      20.310  -0.816  28.890  1.00  0.00     0.001 A 
ENDROOT
BRANCH   9  16
HETATM   16  C14 UNK     1      18.556  -1.978  36.175  1.00  0.00     0.262 C 
HETATM   17  O3  UNK     1      17.845  -1.933  37.176  1.00  0.00    -0.267 OA
HETATM   18  N1  UNK     1      19.476  -2.956  35.819  1.00  0.00    -0.323 N 
HETATM   19  H8  UNK     1      19.974  -2.856  34.938  1.00  0.00     0.169 HD
BRANCH  18  20
HETATM   20  C15 UNK     1      19.805  -4.132  36.537  1.00  0.00     0.037 A 
HETATM   21  C16 UNK     1      20.965  -4.162  37.290  1.00  0.00     0.071 A 
HETATM   22  C18 UNK     1      21.289  -5.320  37.998  1.00  0.00     0.118 A 
HETATM   23  F1  UNK     1      22.408  -5.366  38.732  1.00  0.00    -0.206 F 
HETATM   24  C20 UNK     1      20.447  -6.431  37.940  1.00  0.00     0.042 A 
HETATM   25  C19 UNK     1      19.282  -6.384  37.175  1.00  0.00     0.005 A 
HETATM   26  C17 UNK     1      18.958  -5.225  36.468  1.00  0.00     0.029 A 
ENDBRANCH  18  20
ENDBRANCH   9  16
TORSDOF 2
ENDMDL
MODEL 5
REMARK VINA RESULT:      -9.4     17.255     19.752
REMARK  2 active torsions:
REMARK  status: ('A' for Active; 'I' for Inactive)
REMARK       I    between atoms: C14_19  and  N1_5 
REMARK    1  A    between atoms: C15_20  and  N1_5 
REMARK    2  A    between atoms: C14_19  and  C7_12 
ROOT
HETATM    1  O1  UNK     1      18.652   1.240  31.719  1.00  0.00    -0.274 OA
HETATM    2  O2  UNK     1      18.749   2.995  30.261  1.00  0.00    -0.259 OA
HETATM    3  C1  UNK     1      18.234   1.627  34.100  1.00  0.00     0.010 A 
HETATM    4  C2  UNK     1      18.064   1.086  35.408  1.00  0.00    -0.013 A 
HETATM    5  C3  UNK     1      18.151  -0.325  35.576  1.00  0.00    -0.025 A 
HETATM    6  C4  UNK     1      18.478   0.759  33.033  1.00  0.00     0.090 A 
HETATM    7  C5  UNK     1      18.171   3.057  33.785  1.00  0.00     0.038 A 
HETATM    8  C6  UNK     1      18.398  -1.154  34.472  1.00  0.00     0.015 A 
HETATM    9  C7  UNK     1      18.337   3.508  32.536  1.00  0.00     0.108 A 
HETATM   10  C8  UNK     1      18.562  -0.617  33.201  1.00  0.00     0.039 A 
HETATM   11  C9  UNK     1      17.812   1.858  36.569  1.00  0.00     0.013 A 
HETATM   12  C10 UNK     1      17.990  -0.898  36.848  1.00  0.00     0.012 A 
HETATM   13  C11 UNK     1      18.595   2.592  31.409  1.00  0.00     0.304 A 
HETATM   14  C12 UNK     1      17.653   1.271  37.827  1.00  0.00     0.001 A 
HETATM   15  C13 UNK     1      17.743  -0.106  37.966  1.00  0.00     0.001 A 
ENDROOT
BRANCH   9  16
HETATM   16  C14 UNK     1      18.250   4.962  32.350  1.00  0.00     0.262 C 
HETATM   17  O3  UNK     1      17.948   5.420  31.250  1.00  0.00    -0.267 OA
HETATM   18  N1  UNK     1      18.540   5.657  33.517  1.00  0.00    -0.323 N 
HETATM   19  H8  UNK     1      18.752   5.125  34.358  1.00  0.00     0.169 HD
BRANCH  18  20
HETATM   20  C15 UNK     1      18.554   7.061  33.705  1.00  0.00     0.037 A 
HETATM   21  C16 UNK     1      19.730   7.679  34.092  1.00  0.00     0.071 A 
HETATM   22  C18 UNK     1      19.744   9.062  34.277  1.00  0.00     0.118 A 
HETATM   23  F1  UNK     1      20.873   9.677  34.651  1.00  0.00    -0.206 F 
HETATM   24  C20 UNK     1      18.581   9.805  34.071  1.00  0.00     0.042 A 
HETATM   25  C19 UNK     1      17.405   9.165  33.681  1.00  0.00     0.005 A 
HETATM   26  C17 UNK     1      17.391   7.782  33.497  1.00  0.00     0.029 A 
ENDBRANCH  18  20
ENDBRANCH   9  16
TORSDOF 2
ENDMDL
MODEL 6
REMARK VINA RESULT:      -9.3     23.301     25.465
REMARK  2 active torsions:
REMARK  status: ('A' for Active; 'I' for Inactive)
REMARK       I    between atoms: C14_19  and  N1_5 
REMARK    1  A    between atoms: C15_20  and  N1_5 
REMARK    2  A    between atoms: C14_19  and  C7_12 
ROOT
HETATM    1  O1  UNK     1      27.552  -4.632  38.755  1.00  0.00    -0.274 OA
HETATM    2  O2  UNK     1      25.333  -5.081  39.055  1.00  0.00    -0.259 OA
HETATM    3  C1  UNK     1      29.151  -6.455  38.420  1.00  0.00     0.010 A 
HETATM    4  C2  UNK     1      30.499  -6.865  38.200  1.00  0.00    -0.013 A 
HETATM    5  C3  UNK     1      31.507  -5.864  38.108  1.00  0.00    -0.025 A 
HETATM    6  C4  UNK     1      28.867  -5.093  38.538  1.00  0.00     0.090 A 
HETATM    7  C5  UNK     1      28.018  -7.378  38.536  1.00  0.00     0.038 A 
HETATM    8  C6  UNK     1      31.169  -4.508  38.233  1.00  0.00     0.015 A 
HETATM    9  C7  UNK     1      26.772  -6.936  38.742  1.00  0.00     0.108 A 
HETATM   10  C8  UNK     1      29.853  -4.119  38.448  1.00  0.00     0.039 A 
HETATM   11  C9  UNK     1      30.916  -8.212  38.063  1.00  0.00     0.013 A 
HETATM   12  C10 UNK     1      32.847  -6.225  37.892  1.00  0.00     0.012 A 
HETATM   13  C11 UNK     1      26.471  -5.497  38.866  1.00  0.00     0.304 A 
HETATM   14  C12 UNK     1      32.253  -8.554  37.847  1.00  0.00     0.001 A 
HETATM   15  C13 UNK     1      33.218  -7.561  37.762  1.00  0.00     0.001 A 
ENDROOT
BRANCH   9  16
HETATM   16  C14 UNK     1      25.724  -7.959  38.838  1.00  0.00     0.262 C 
HETATM   17  O3  UNK     1      26.005  -9.085  39.243  1.00  0.00    -0.267 OA
HETATM   18  N1  UNK     1      24.486  -7.480  38.431  1.00  0.00    -0.323 N 
HETATM   19  H8  UNK     1      24.415  -6.508  38.141  1.00  0.00     0.169 HD
BRANCH  18  20
HETATM   20  C15 UNK     1      23.258  -8.185  38.390  1.00  0.00     0.037 A 
HETATM   21  C16 UNK     1      22.871  -8.799  37.212  1.00  0.00     0.071 A 
HETATM   22  C18 UNK     1      21.662  -9.494  37.171  1.00  0.00     0.118 A 
HETATM   23  F1  UNK     1      21.271 -10.095  36.039  1.00  0.00    -0.206 F 
HETATM   24  C20 UNK     1      20.858  -9.564  38.310  1.00  0.00     0.042 A 
HETATM   25  C19 UNK     1      21.264  -8.938  39.488  1.00  0.00     0.005 A 
HETATM   26  C17 UNK     1      22.474  -8.244  39.528  1.00  0.00     0.029 A 
ENDBRANCH  18  20
ENDBRANCH   9  16
TORSDOF 2
ENDMDL
MODEL 7
REMARK VINA RESULT:      -9.3     16.754     19.232
REMARK  2 active torsions:
REMARK  status: ('A' for Active; 'I' for Inactive)
REMARK       I    between atoms: C14_19  and  N1_5 
REMARK    1  A    between atoms: C15_20  and  N1_5 
REMARK    2  A    between atoms: C14_19  and  C7_12 
ROOT
HETATM    1  O1  UNK     1      18.779   0.995  31.320  1.00  0.00    -0.274 OA
HETATM    2  O2  UNK     1      18.785   2.701  29.803  1.00  0.00    -0.259 OA
HETATM    3  C1  UNK     1      18.303   1.436  33.681  1.00  0.00     0.010 A 
HETATM    4  C2  UNK     1      18.150   0.931  35.006  1.00  0.00    -0.013 A 
HETATM    5  C3  UNK     1      18.323  -0.465  35.225  1.00  0.00    -0.025 A 
HETATM    6  C4  UNK     1      18.617   0.549  32.649  1.00  0.00     0.090 A 
HETATM    7  C5  UNK     1      18.154   2.848  33.315  1.00  0.00     0.038 A 
HETATM    8  C6  UNK     1      18.638  -1.314  34.153  1.00  0.00     0.015 A 
HETATM    9  C7  UNK     1      18.309   3.265  32.053  1.00  0.00     0.108 A 
HETATM   10  C8  UNK     1      18.786  -0.812  32.866  1.00  0.00     0.039 A 
HETATM   11  C9  UNK     1      17.832   1.725  36.135  1.00  0.00     0.013 A 
HETATM   12  C10 UNK     1      18.181  -1.002  36.514  1.00  0.00     0.012 A 
HETATM   13  C11 UNK     1      18.640   2.329  30.963  1.00  0.00     0.304 A 
HETATM   14  C12 UNK     1      17.694   1.173  37.411  1.00  0.00     0.001 A 
HETATM   15  C13 UNK     1      17.868  -0.190  37.601  1.00  0.00     0.001 A 
ENDROOT
BRANCH   9  16
HETATM   16  C14 UNK     1      18.132   4.703  31.815  1.00  0.00     0.262 C 
HETATM   17  O3  UNK     1      18.727   5.246  30.886  1.00  0.00    -0.267 OA
HETATM   18  N1  UNK     1      17.264   5.282  32.731  1.00  0.00    -0.323 N 
HETATM   19  H8  UNK     1      16.832   4.686  33.433  1.00  0.00     0.169 HD
BRANCH  18  20
HETATM   20  C15 UNK     1      16.865   6.639  32.804  1.00  0.00     0.037 A 
HETATM   21  C16 UNK     1      17.702   7.559  33.411  1.00  0.00     0.071 A 
HETATM   22  C18 UNK     1      17.309   8.895  33.482  1.00  0.00     0.118 A 
HETATM   23  F1  UNK     1      18.107   9.798  34.067  1.00  0.00    -0.206 F 
HETATM   24  C20 UNK     1      16.085   9.292  32.944  1.00  0.00     0.042 A 
HETATM   25  C19 UNK     1      15.253   8.352  32.336  1.00  0.00     0.005 A 
HETATM   26  C17 UNK     1      15.647   7.015  32.265  1.00  0.00     0.029 A 
ENDBRANCH  18  20
ENDBRANCH   9  16
TORSDOF 2
ENDMDL
MODEL 8
REMARK VINA RESULT:      -9.2     16.257     20.433
REMARK  2 active torsions:
REMARK  status: ('A' for Active; 'I' for Inactive)
REMARK       I    between atoms: C14_19  and  N1_5 
REMARK    1  A    between atoms: C15_20  and  N1_5 
REMARK    2  A    between atoms: C14_19  and  C7_12 
ROOT
HETATM    1  O1  UNK     1      18.624  -0.868  35.701  1.00  0.00    -0.274 OA
HETATM    2  O2  UNK     1      18.808  -2.287  37.480  1.00  0.00    -0.259 OA
HETATM    3  C1  UNK     1      19.511  -1.505  33.509  1.00  0.00     0.010 A 
HETATM    4  C2  UNK     1      19.723  -1.171  32.139  1.00  0.00    -0.013 A 
HETATM    5  C3  UNK     1      19.262   0.091  31.669  1.00  0.00    -0.025 A 
HETATM    6  C4  UNK     1      18.861  -0.588  34.338  1.00  0.00     0.090 A 
HETATM    7  C5  UNK     1      19.933  -2.767  34.124  1.00  0.00     0.038 A 
HETATM    8  C6  UNK     1      18.615   0.977  32.543  1.00  0.00     0.015 A 
HETATM    9  C7  UNK     1      19.706  -3.027  35.417  1.00  0.00     0.108 A 
HETATM   10  C8  UNK     1      18.413   0.643  33.876  1.00  0.00     0.039 A 
HETATM   11  C9  UNK     1      20.366  -2.013  31.198  1.00  0.00     0.013 A 
HETATM   12  C10 UNK     1      19.451   0.459  30.327  1.00  0.00     0.012 A 
HETATM   13  C11 UNK     1      19.020  -2.059  36.294  1.00  0.00     0.304 A 
HETATM   14  C12 UNK     1      20.545  -1.631  29.867  1.00  0.00     0.001 A 
HETATM   15  C13 UNK     1      20.088  -0.396  29.431  1.00  0.00     0.001 A 
ENDROOT
BRANCH   9  16
HETATM   16  C14 UNK     1      20.177  -4.326  35.914  1.00  0.00     0.262 C 
HETATM   17  O3  UNK     1      20.236  -5.287  35.149  1.00  0.00    -0.267 OA
HETATM   18  N1  UNK     1      20.509  -4.282  37.261  1.00  0.00    -0.323 N 
HETATM   19  H8  UNK     1      20.423  -3.396  37.753  1.00  0.00     0.169 HD
BRANCH  18  20
HETATM   20  C15 UNK     1      20.992  -5.342  38.066  1.00  0.00     0.037 A 
HETATM   21  C16 UNK     1      20.096  -6.257  38.590  1.00  0.00     0.071 A 
HETATM   22  C18 UNK     1      20.573  -7.302  39.383  1.00  0.00     0.118 A 
HETATM   23  F1  UNK     1      19.719  -8.196  39.898  1.00  0.00    -0.206 F 
HETATM   24  C20 UNK     1      21.939  -7.415  39.639  1.00  0.00     0.042 A 
HETATM   25  C19 UNK     1      22.829  -6.484  39.103  1.00  0.00     0.005 A 
HETATM   26  C17 UNK     1      22.351  -5.440  38.310  1.00  0.00     0.029 A 
ENDBRANCH  18  20
ENDBRANCH   9  16
TORSDOF 2
ENDMDL
MODEL 9
REMARK VINA RESULT:      -9.2     19.789     21.411
REMARK  2 active torsions:
REMARK  status: ('A' for Active; 'I' for Inactive)
REMARK       I    between atoms: C14_19  and  N1_5 
REMARK    1  A    between atoms: C15_20  and  N1_5 
REMARK    2  A    between atoms: C14_19  and  C7_12 
ROOT
HETATM    1  O1  UNK     1      20.640  -5.792  34.475  1.00  0.00    -0.274 OA
HETATM    2  O2  UNK     1      20.386  -3.544  34.170  1.00  0.00    -0.259 OA
HETATM    3  C1  UNK     1      20.062  -6.826  36.618  1.00  0.00     0.010 A 
HETATM    4  C2  UNK     1      19.974  -8.005  37.414  1.00  0.00    -0.013 A 
HETATM    5  C3  UNK     1      20.373  -9.244  36.840  1.00  0.00    -0.025 A 
HETATM    6  C4  UNK     1      20.534  -6.926  35.307  1.00  0.00     0.090 A 
HETATM    7  C5  UNK     1      19.686  -5.487  37.083  1.00  0.00     0.038 A 
HETATM    8  C6  UNK     1      20.841  -9.292  35.517  1.00  0.00     0.015 A 
HETATM    9  C7  UNK     1      19.789  -4.415  36.289  1.00  0.00     0.108 A 
HETATM   10  C8  UNK     1      20.923  -8.137  34.749  1.00  0.00     0.039 A 
HETATM   11  C9  UNK     1      19.511  -8.036  38.753  1.00  0.00     0.013 A 
HETATM   12  C10 UNK     1      20.302 -10.429  37.590  1.00  0.00     0.012 A 
HETATM   13  C11 UNK     1      20.287  -4.520  34.905  1.00  0.00     0.304 A 
HETATM   14  C12 UNK     1      19.447  -9.224  39.485  1.00  0.00     0.001 A 
HETATM   15  C13 UNK     1      19.842 -10.420  38.904  1.00  0.00     0.001 A 
ENDROOT
BRANCH   9  16
HETATM   16  C14 UNK     1      19.379  -3.131  36.872  1.00  0.00     0.262 C 
HETATM   17  O3  UNK     1      19.958  -2.700  37.867  1.00  0.00    -0.267 OA
HETATM   18  N1  UNK     1      18.330  -2.550  36.171  1.00  0.00    -0.323 N 
HETATM   19  H8  UNK     1      17.974  -3.028  35.348  1.00  0.00     0.169 HD
BRANCH  18  20
HETATM   20  C15 UNK     1      17.684  -1.320  36.448  1.00  0.00     0.037 A 
HETATM   21  C16 UNK     1      18.043  -0.607  37.578  1.00  0.00     0.071 A 
HETATM   22  C18 UNK     1      17.406   0.604  37.851  1.00  0.00     0.118 A 
HETATM   23  F1  UNK     1      17.741   1.308  38.940  1.00  0.00    -0.206 F 
HETATM   24  C20 UNK     1      16.421   1.084  36.988  1.00  0.00     0.042 A 
HETATM   25  C19 UNK     1      16.071   0.352  35.853  1.00  0.00     0.005 A 
HETATM   26  C17 UNK     1      16.708  -0.860  35.581  1.00  0.00     0.029 A 
ENDBRANCH  18  20
ENDBRANCH   9  16
TORSDOF 2
ENDMDL
MODEL 10
REMARK VINA RESULT:      -9.1     16.467     19.433
REMARK  2 active torsions:
REMARK  status: ('A' for Active; 'I' for Inactive)
REMARK       I    between atoms: C14_19  and  N1_5 
REMARK    1  A    between atoms: C15_20  and  N1_5 
REMARK    2  A    between atoms: C14_19  and  C7_12 
ROOT
HETATM    1  O1  UNK     1      19.163   2.521  30.178  1.00  0.00    -0.274 OA
HETATM    2  O2  UNK     1      19.333   0.264  30.474  1.00  0.00    -0.259 OA
HETATM    3  C1  UNK     1      18.365   3.954  31.996  1.00  0.00     0.010 A 
HETATM    4  C2  UNK     1      18.048   5.264  32.462  1.00  0.00    -0.013 A 
HETATM    5  C3  UNK     1      18.220   6.362  31.572  1.00  0.00    -0.025 A 
HETATM    6  C4  UNK     1      18.833   3.794  30.689  1.00  0.00     0.090 A 
HETATM    7  C5  UNK     1      18.234   2.738  32.804  1.00  0.00     0.038 A 
HETATM    8  C6  UNK     1      18.694   6.147  30.269  1.00  0.00     0.015 A 
HETATM    9  C7  UNK     1      18.548   1.533  32.313  1.00  0.00     0.108 A 
HETATM   10  C8  UNK     1      19.000   4.867  29.824  1.00  0.00     0.039 A 
HETATM   11  C9  UNK     1      17.567   5.558  33.762  1.00  0.00     0.013 A 
HETATM   12  C10 UNK     1      17.919   7.667  31.992  1.00  0.00     0.012 A 
HETATM   13  C11 UNK     1      19.043   1.363  30.933  1.00  0.00     0.304 A 
HETATM   14  C12 UNK     1      17.273   6.864  34.162  1.00  0.00     0.001 A 
HETATM   15  C13 UNK     1      17.448   7.918  33.278  1.00  0.00     0.001 A 
ENDROOT
BRANCH   9  16
HETATM   16  C14 UNK     1      18.375   0.393  33.222  1.00  0.00     0.262 C 
HETATM   17  O3  UNK     1      18.021  -0.696  32.774  1.00  0.00    -0.267 OA
HETATM   18  N1  UNK     1      18.652   0.728  34.540  1.00  0.00    -0.323 N 
HETATM   19  H8  UNK     1      18.956   1.677  34.745  1.00  0.00     0.169 HD
BRANCH  18  20
HETATM   20  C15 UNK     1      18.588  -0.115  35.677  1.00  0.00     0.037 A 
HETATM   21  C16 UNK     1      19.208  -1.351  35.638  1.00  0.00     0.071 A 
HETATM   22  C18 UNK     1      19.146  -2.181  36.757  1.00  0.00     0.118 A 
HETATM   23  F1  UNK     1      19.741  -3.380  36.737  1.00  0.00    -0.206 F 
HETATM   24  C20 UNK     1      18.463  -1.762  37.899  1.00  0.00     0.042 A 
HETATM   25  C19 UNK     1      17.842  -0.513  37.921  1.00  0.00     0.005 A 
HETATM   26  C17 UNK     1      17.905   0.317  36.801  1.00  0.00     0.029 A 
ENDBRANCH  18  20
ENDBRANCH   9  16
TORSDOF 2
ENDMDL
