MODEL 1
REMARK VINA RESULT:      -8.5      0.000      0.000
REMARK  7 active torsions:
REMARK  status: ('A' for Active; 'I' for Inactive)
REMARK    1  A    between atoms: C24_31  and  O4_4 
REMARK    2  A    between atoms: C13_20  and  N1_6 
REMARK    3  A    between atoms: C16_23  and  N1_6 
REMARK    4  A    between atoms: C17_24  and  N1_6 
REMARK    5  A    between atoms: C14_21  and  N2_7 
REMARK    6  A    between atoms: C11_18  and  C4_11 
REMARK    7  A    between atoms: C16_23  and  C24_31 
ROOT
HETATM    1  O1  UNK     1      17.382   1.189  35.243  1.00  0.00    -0.332 OA
HETATM    2  O2  UNK     1      20.173  -2.321  33.352  1.00  0.00    -0.274 OA
HETATM    3  O3  UNK     1      18.589  -0.778  38.020  1.00  0.00    -0.289 OA
HETATM    4  O5  UNK     1      21.542  -3.902  32.418  1.00  0.00    -0.260 OA
HETATM    5  C1  UNK     1      17.977   1.032  36.533  1.00  0.00     0.125 C 
HETATM    6  C2  UNK     1      18.711  -0.653  34.355  1.00  0.00     0.048 A 
HETATM    7  C3  UNK     1      18.424  -0.396  36.865  1.00  0.00     0.196 C 
HETATM    8  C4  UNK     1      18.684  -1.279  35.688  1.00  0.00     0.044 C 
HETATM    9  C5  UNK     1      18.023   0.559  34.208  1.00  0.00     0.084 A 
HETATM   10  C6  UNK     1      16.890   1.448  37.534  1.00  0.00     0.055 C 
HETATM   11  C7  UNK     1      19.175   1.981  36.667  1.00  0.00     0.055 C 
HETATM   12  C8  UNK     1      19.378  -1.156  33.225  1.00  0.00     0.103 A 
HETATM   13  C9  UNK     1      19.309  -0.524  31.980  1.00  0.00    -0.001 A 
HETATM   14  C10 UNK     1      17.925   1.190  32.962  1.00  0.00     0.039 A 
HETATM   15  C12 UNK     1      18.565   0.648  31.850  1.00  0.00     0.017 A 
HETATM   16  C15 UNK     1      20.016  -1.099  30.846  1.00  0.00     0.020 A 
HETATM   17  C22 UNK     1      20.745  -2.208  30.989  1.00  0.00     0.083 A 
HETATM   18  C23 UNK     1      20.866  -2.889  32.288  1.00  0.00     0.288 A 
ENDROOT
BRANCH   8  19
HETATM   19  C11 UNK     1      18.753  -2.597  35.927  1.00  0.00     0.104 C 
HETATM   20  N2  UNK     1      19.863  -3.342  36.133  1.00  0.00    -0.365 N 
HETATM   21  H10 UNK     1      20.752  -2.856  36.100  1.00  0.00     0.165 HD
BRANCH  20  22
HETATM   22  C14 UNK     1      19.964  -4.723  36.384  1.00  0.00     0.032 A 
HETATM   23  C20 UNK     1      19.790  -5.639  35.344  1.00  0.00     0.031 A 
HETATM   24  C18 UNK     1      19.894  -7.007  35.592  1.00  0.00     0.031 A 
HETATM   25  C13 UNK     1      20.173  -7.463  36.880  1.00  0.00     0.030 A 
HETATM   26  C19 UNK     1      20.347  -6.551  37.921  1.00  0.00     0.031 A 
HETATM   27  C21 UNK     1      20.243  -5.182  37.673  1.00  0.00     0.031 A 
BRANCH  25  28
HETATM   28  N1  UNK     1      20.279  -8.848  37.131  1.00  0.00    -0.379 N 
BRANCH  28  29
HETATM   29  C16 UNK     1      19.118  -9.609  37.548  1.00  0.00     0.149 C 
BRANCH  29  30
HETATM   30  C24 UNK     1      19.424 -10.366  38.829  1.00  0.00     0.183 C 
BRANCH  30  31
HETATM   31  O4  UNK     1      19.423 -11.763  38.565  1.00  0.00    -0.399 OA
HETATM   32  H26 UNK     1      19.117 -11.887  37.651  1.00  0.00     0.209 HD
ENDBRANCH  30  31
ENDBRANCH  29  30
ENDBRANCH  28  29
BRANCH  28  33
HETATM   33  C17 UNK     1      21.552  -9.524  36.986  1.00  0.00     0.118 C 
HETATM   34  C25 UNK     1      21.567 -10.342  35.709  1.00  0.00     0.026 C 
ENDBRANCH  28  33
ENDBRANCH  25  28
ENDBRANCH  20  22
ENDBRANCH   8  19
TORSDOF 7
ENDMDL
MODEL 2
REMARK VINA RESULT:      -8.3      9.678     12.541
REMARK  7 active torsions:
REMARK  status: ('A' for Active; 'I' for Inactive)
REMARK    1  A    between atoms: C24_31  and  O4_4 
REMARK    2  A    between atoms: C13_20  and  N1_6 
REMARK    3  A    between atoms: C16_23  and  N1_6 
REMARK    4  A    between atoms: C17_24  and  N1_6 
REMARK    5  A    between atoms: C14_21  and  N2_7 
REMARK    6  A    between atoms: C11_18  and  C4_11 
REMARK    7  A    between atoms: C16_23  and  C24_31 
ROOT
HETATM    1  O1  UNK     1      26.972  -6.345  38.685  1.00  0.00    -0.332 OA
HETATM    2  O2  UNK     1      30.857  -5.976  35.777  1.00  0.00    -0.274 OA
HETATM    3  O3  UNK     1      26.995  -9.302  36.614  1.00  0.00    -0.289 OA
HETATM    4  O5  UNK     1      32.743  -5.794  34.490  1.00  0.00    -0.260 OA
HETATM    5  C1  UNK     1      26.889  -7.756  38.474  1.00  0.00     0.125 C 
HETATM    6  C2  UNK     1      28.843  -6.176  37.131  1.00  0.00     0.048 A 
HETATM    7  C3  UNK     1      27.346  -8.226  37.089  1.00  0.00     0.196 C 
HETATM    8  C4  UNK     1      28.280  -7.306  36.373  1.00  0.00     0.044 C 
HETATM    9  C5  UNK     1      28.125  -5.742  38.253  1.00  0.00     0.084 A 
HETATM   10  C6  UNK     1      25.403  -8.104  38.641  1.00  0.00     0.055 C 
HETATM   11  C7  UNK     1      27.702  -8.487  39.551  1.00  0.00     0.055 C 
HETATM   12  C8  UNK     1      30.043  -5.506  36.837  1.00  0.00     0.103 A 
HETATM   13  C9  UNK     1      30.481  -4.406  37.580  1.00  0.00    -0.001 A 
HETATM   14  C10 UNK     1      28.538  -4.626  38.991  1.00  0.00     0.039 A 
HETATM   15  C12 UNK     1      29.712  -3.958  38.654  1.00  0.00     0.017 A 
HETATM   16  C15 UNK     1      31.729  -3.750  37.221  1.00  0.00     0.020 A 
HETATM   17  C22 UNK     1      32.469  -4.204  36.206  1.00  0.00     0.083 A 
HETATM   18  C23 UNK     1      32.058  -5.376  35.416  1.00  0.00     0.288 A 
ENDROOT
BRANCH   8  19
HETATM   19  C11 UNK     1      28.440  -7.512  35.057  1.00  0.00     0.104 C 
HETATM   20  N2  UNK     1      29.382  -8.266  34.447  1.00  0.00    -0.365 N 
HETATM   21  H10 UNK     1      30.055  -8.731  35.047  1.00  0.00     0.165 HD
BRANCH  20  22
HETATM   22  C14 UNK     1      29.572  -8.498  33.072  1.00  0.00     0.032 A 
HETATM   23  C20 UNK     1      29.375  -7.466  32.153  1.00  0.00     0.031 A 
HETATM   24  C18 UNK     1      29.567  -7.694  30.791  1.00  0.00     0.031 A 
HETATM   25  C13 UNK     1      29.957  -8.957  30.345  1.00  0.00     0.030 A 
HETATM   26  C19 UNK     1      30.155  -9.990  31.260  1.00  0.00     0.031 A 
HETATM   27  C21 UNK     1      29.962  -9.762  32.623  1.00  0.00     0.031 A 
BRANCH  25  28
HETATM   28  N1  UNK     1      30.152  -9.188  28.966  1.00  0.00    -0.379 N 
BRANCH  28  29
HETATM   29  C16 UNK     1      31.098  -8.387  28.215  1.00  0.00     0.149 C 
BRANCH  29  30
HETATM   30  C24 UNK     1      32.465  -8.439  28.874  1.00  0.00     0.183 C 
BRANCH  30  31
HETATM   31  O4  UNK     1      32.904  -9.789  28.950  1.00  0.00    -0.399 OA
HETATM   32  H26 UNK     1      32.584 -10.245  28.154  1.00  0.00     0.209 HD
ENDBRANCH  30  31
ENDBRANCH  29  30
ENDBRANCH  28  29
BRANCH  28  33
HETATM   33  C17 UNK     1      29.401 -10.222  28.283  1.00  0.00     0.118 C 
HETATM   34  C25 UNK     1      27.914  -9.956  28.407  1.00  0.00     0.026 C 
ENDBRANCH  28  33
ENDBRANCH  25  28
ENDBRANCH  20  22
ENDBRANCH   8  19
TORSDOF 7
ENDMDL
MODEL 3
REMARK VINA RESULT:      -8.1      9.568     12.319
REMARK  7 active torsions:
REMARK  status: ('A' for Active; 'I' for Inactive)
REMARK    1  A    between atoms: C24_31  and  O4_4 
REMARK    2  A    between atoms: C13_20  and  N1_6 
REMARK    3  A    between atoms: C16_23  and  N1_6 
REMARK    4  A    between atoms: C17_24  and  N1_6 
REMARK    5  A    between atoms: C14_21  and  N2_7 
REMARK    6  A    between atoms: C11_18  and  C4_11 
REMARK    7  A    between atoms: C16_23  and  C24_31 
ROOT
HETATM    1  O1  UNK     1      26.895  -6.325  38.826  1.00  0.00    -0.332 OA
HETATM    2  O2  UNK     1      30.750  -5.979  35.876  1.00  0.00    -0.274 OA
HETATM    3  O3  UNK     1      26.810  -9.223  36.673  1.00  0.00    -0.289 OA
HETATM    4  O5  UNK     1      32.624  -5.811  34.569  1.00  0.00    -0.260 OA
HETATM    5  C1  UNK     1      26.771  -7.727  38.577  1.00  0.00     0.125 C 
HETATM    6  C2  UNK     1      28.749  -6.163  37.251  1.00  0.00     0.048 A 
HETATM    7  C3  UNK     1      27.197  -8.170  37.173  1.00  0.00     0.196 C 
HETATM    8  C4  UNK     1      28.146  -7.255  36.470  1.00  0.00     0.044 C 
HETATM    9  C5  UNK     1      28.057  -5.742  38.395  1.00  0.00     0.084 A 
HETATM   10  C6  UNK     1      25.278  -8.040  38.755  1.00  0.00     0.055 C 
HETATM   11  C7  UNK     1      27.577  -8.509  39.622  1.00  0.00     0.055 C 
HETATM   12  C8  UNK     1      29.963  -5.518  36.960  1.00  0.00     0.103 A 
HETATM   13  C9  UNK     1      30.440  -4.450  37.727  1.00  0.00    -0.001 A 
HETATM   14  C10 UNK     1      28.510  -4.658  39.158  1.00  0.00     0.039 A 
HETATM   15  C12 UNK     1      29.697  -4.013  38.823  1.00  0.00     0.017 A 
HETATM   16  C15 UNK     1      31.701  -3.819  37.369  1.00  0.00     0.020 A 
HETATM   17  C22 UNK     1      32.414  -4.263  36.332  1.00  0.00     0.083 A 
HETATM   18  C23 UNK     1      31.962  -5.401  35.516  1.00  0.00     0.288 A 
ENDROOT
BRANCH   8  19
HETATM   19  C11 UNK     1      28.283  -7.429  35.147  1.00  0.00     0.104 C 
HETATM   20  N2  UNK     1      29.227  -8.151  34.502  1.00  0.00    -0.365 N 
HETATM   21  H10 UNK     1      29.921  -8.614  35.077  1.00  0.00     0.165 HD
BRANCH  20  22
HETATM   22  C14 UNK     1      29.394  -8.348  33.118  1.00  0.00     0.032 A 
HETATM   23  C20 UNK     1      28.293  -8.278  32.263  1.00  0.00     0.031 A 
HETATM   24  C18 UNK     1      28.458  -8.469  30.891  1.00  0.00     0.031 A 
HETATM   25  C13 UNK     1      29.726  -8.730  30.372  1.00  0.00     0.030 A 
HETATM   26  C19 UNK     1      30.828  -8.801  31.224  1.00  0.00     0.031 A 
HETATM   27  C21 UNK     1      30.662  -8.610  32.596  1.00  0.00     0.031 A 
BRANCH  25  28
HETATM   28  N1  UNK     1      29.894  -8.923  28.984  1.00  0.00    -0.379 N 
BRANCH  28  29
HETATM   29  C16 UNK     1      29.204 -10.001  28.305  1.00  0.00     0.149 C 
BRANCH  29  30
HETATM   30  C24 UNK     1      29.525 -11.328  28.971  1.00  0.00     0.183 C 
BRANCH  30  31
HETATM   31  O4  UNK     1      28.501 -12.267  28.674  1.00  0.00    -0.399 OA
HETATM   32  H26 UNK     1      28.065 -12.498  29.512  1.00  0.00     0.209 HD
ENDBRANCH  30  31
ENDBRANCH  29  30
ENDBRANCH  28  29
BRANCH  28  33
HETATM   33  C17 UNK     1      30.769  -8.053  28.224  1.00  0.00     0.118 C 
HETATM   34  C25 UNK     1      32.163  -8.645  28.154  1.00  0.00     0.026 C 
ENDBRANCH  28  33
ENDBRANCH  25  28
ENDBRANCH  20  22
ENDBRANCH   8  19
TORSDOF 7
ENDMDL
MODEL 4
REMARK VINA RESULT:      -7.9      5.529     11.344
REMARK  7 active torsions:
REMARK  status: ('A' for Active; 'I' for Inactive)
REMARK    1  A    between atoms: C24_31  and  O4_4 
REMARK    2  A    between atoms: C13_20  and  N1_6 
REMARK    3  A    between atoms: C16_23  and  N1_6 
REMARK    4  A    between atoms: C17_24  and  N1_6 
REMARK    5  A    between atoms: C14_21  and  N2_7 
REMARK    6  A    between atoms: C11_18  and  C4_11 
REMARK    7  A    between atoms: C16_23  and  C24_31 
ROOT
HETATM    1  O1  UNK     1      18.682  -1.118  34.995  1.00  0.00    -0.332 OA
HETATM    2  O2  UNK     1      18.486   2.324  31.560  1.00  0.00    -0.274 OA
HETATM    3  O3  UNK     1      16.959   1.700  36.455  1.00  0.00    -0.289 OA
HETATM    4  O5  UNK     1      18.349   3.878  29.883  1.00  0.00    -0.260 OA
HETATM    5  C1  UNK     1      17.612  -0.515  35.726  1.00  0.00     0.125 C 
HETATM    6  C2  UNK     1      18.637   0.685  33.354  1.00  0.00     0.048 A 
HETATM    7  C3  UNK     1      17.543   1.012  35.622  1.00  0.00     0.196 C 
HETATM    8  C4  UNK     1      18.198   1.605  34.417  1.00  0.00     0.044 C 
HETATM    9  C5  UNK     1      18.879  -0.645  33.724  1.00  0.00     0.084 A 
HETATM   10  C6  UNK     1      17.861  -0.893  37.194  1.00  0.00     0.055 C 
HETATM   11  C7  UNK     1      16.276  -1.115  35.272  1.00  0.00     0.055 C 
HETATM   12  C8  UNK     1      18.820   1.020  32.002  1.00  0.00     0.103 A 
HETATM   13  C9  UNK     1      19.291   0.096  31.064  1.00  0.00    -0.001 A 
HETATM   14  C10 UNK     1      19.375  -1.575  32.802  1.00  0.00     0.039 A 
HETATM   15  C12 UNK     1      19.582  -1.204  31.476  1.00  0.00     0.017 A 
HETATM   16  C15 UNK     1      19.466   0.507  29.680  1.00  0.00     0.020 A 
HETATM   17  C22 UNK     1      19.160   1.747  29.294  1.00  0.00     0.083 A 
HETATM   18  C23 UNK     1      18.635   2.743  30.243  1.00  0.00     0.288 A 
ENDROOT
BRANCH   8  19
HETATM   19  C11 UNK     1      18.445   2.923  34.452  1.00  0.00     0.104 C 
HETATM   20  N2  UNK     1      17.804   3.901  33.773  1.00  0.00    -0.365 N 
HETATM   21  H10 UNK     1      17.050   3.614  33.159  1.00  0.00     0.165 HD
BRANCH  20  22
HETATM   22  C14 UNK     1      18.042   5.288  33.790  1.00  0.00     0.032 A 
HETATM   23  C20 UNK     1      19.255   5.797  33.321  1.00  0.00     0.031 A 
HETATM   24  C18 UNK     1      19.489   7.172  33.335  1.00  0.00     0.031 A 
HETATM   25  C13 UNK     1      18.511   8.041  33.817  1.00  0.00     0.030 A 
HETATM   26  C19 UNK     1      17.299   7.536  34.286  1.00  0.00     0.031 A 
HETATM   27  C21 UNK     1      17.064   6.161  34.273  1.00  0.00     0.031 A 
BRANCH  25  28
HETATM   28  N1  UNK     1      18.748   9.432  33.830  1.00  0.00    -0.379 N 
BRANCH  28  29
HETATM   29  C16 UNK     1      17.643  10.364  33.935  1.00  0.00     0.149 C 
BRANCH  29  30
HETATM   30  C24 UNK     1      18.154  11.735  34.342  1.00  0.00     0.183 C 
BRANCH  30  31
HETATM   31  O4  UNK     1      18.116  12.606  33.220  1.00  0.00    -0.399 OA
HETATM   32  H26 UNK     1      18.913  12.434  32.689  1.00  0.00     0.209 HD
ENDBRANCH  30  31
ENDBRANCH  29  30
ENDBRANCH  28  29
BRANCH  28  33
HETATM   33  C17 UNK     1      20.099   9.947  33.726  1.00  0.00     0.118 C 
HETATM   34  C25 UNK     1      20.887   9.601  34.974  1.00  0.00     0.026 C 
ENDBRANCH  28  33
ENDBRANCH  25  28
ENDBRANCH  20  22
ENDBRANCH   8  19
TORSDOF 7
ENDMDL
MODEL 5
REMARK VINA RESULT:      -7.5      5.308     10.805
REMARK  7 active torsions:
REMARK  status: ('A' for Active; 'I' for Inactive)
REMARK    1  A    between atoms: C24_31  and  O4_4 
REMARK    2  A    between atoms: C13_20  and  N1_6 
REMARK    3  A    between atoms: C16_23  and  N1_6 
REMARK    4  A    between atoms: C17_24  and  N1_6 
REMARK    5  A    between atoms: C14_21  and  N2_7 
REMARK    6  A    between atoms: C11_18  and  C4_11 
REMARK    7  A    between atoms: C16_23  and  C24_31 
ROOT
HETATM    1  O1  UNK     1      19.273  -1.247  34.852  1.00  0.00    -0.332 OA
HETATM    2  O2  UNK     1      18.423   1.245  30.758  1.00  0.00    -0.274 OA
HETATM    3  O3  UNK     1      16.801   1.257  35.663  1.00  0.00    -0.289 OA
HETATM    4  O5  UNK     1      17.999   2.331  28.787  1.00  0.00    -0.260 OA
HETATM    5  C1  UNK     1      18.042  -0.810  35.430  1.00  0.00     0.125 C 
HETATM    6  C2  UNK     1      18.873   0.106  32.863  1.00  0.00     0.048 A 
HETATM    7  C3  UNK     1      17.592   0.591  35.000  1.00  0.00     0.196 C 
HETATM    8  C4  UNK     1      18.149   1.076  33.701  1.00  0.00     0.044 C 
HETATM    9  C5  UNK     1      19.422  -1.010  33.510  1.00  0.00     0.084 A 
HETATM   10  C6  UNK     1      18.286  -0.800  36.946  1.00  0.00     0.055 C 
HETATM   11  C7  UNK     1      16.933  -1.819  35.105  1.00  0.00     0.055 C 
HETATM   12  C8  UNK     1      19.049   0.192  31.471  1.00  0.00     0.103 A 
HETATM   13  C9  UNK     1      19.797  -0.747  30.756  1.00  0.00    -0.001 A 
HETATM   14  C10 UNK     1      20.195  -1.945  32.812  1.00  0.00     0.039 A 
HETATM   15  C12 UNK     1      20.384  -1.813  31.439  1.00  0.00     0.017 A 
HETATM   16  C15 UNK     1      19.948  -0.598  29.318  1.00  0.00     0.020 A 
HETATM   17  C22 UNK     1      19.361   0.413  28.673  1.00  0.00     0.083 A 
HETATM   18  C23 UNK     1      18.542   1.409  29.383  1.00  0.00     0.288 A 
ENDROOT
BRANCH   8  19
HETATM   19  C11 UNK     1      18.049   2.390  33.455  1.00  0.00     0.104 C 
HETATM   20  N2  UNK     1      18.275   3.411  34.313  1.00  0.00    -0.365 N 
HETATM   21  H10 UNK     1      18.548   3.163  35.257  1.00  0.00     0.165 HD
BRANCH  20  22
HETATM   22  C14 UNK     1      18.176   4.796  34.081  1.00  0.00     0.032 A 
HETATM   23  C20 UNK     1      17.236   5.558  34.777  1.00  0.00     0.031 A 
HETATM   24  C18 UNK     1      17.141   6.931  34.550  1.00  0.00     0.031 A 
HETATM   25  C13 UNK     1      17.987   7.545  33.627  1.00  0.00     0.030 A 
HETATM   26  C19 UNK     1      18.927   6.786  32.929  1.00  0.00     0.031 A 
HETATM   27  C21 UNK     1      19.022   5.413  33.156  1.00  0.00     0.031 A 
BRANCH  25  28
HETATM   28  N1  UNK     1      17.891   8.934  33.397  1.00  0.00    -0.379 N 
BRANCH  28  29
HETATM   29  C16 UNK     1      16.686   9.502  32.828  1.00  0.00     0.149 C 
BRANCH  29  30
HETATM   30  C24 UNK     1      15.947   8.453  32.016  1.00  0.00     0.183 C 
BRANCH  30  31
HETATM   31  O4  UNK     1      16.451   8.441  30.687  1.00  0.00    -0.399 OA
HETATM   32  H26 UNK     1      16.449   9.358  30.366  1.00  0.00     0.209 HD
ENDBRANCH  30  31
ENDBRANCH  29  30
ENDBRANCH  28  29
BRANCH  28  33
HETATM   33  C17 UNK     1      19.003   9.808  33.717  1.00  0.00     0.118 C 
HETATM   34  C25 UNK     1      19.998   9.084  34.603  1.00  0.00     0.026 C 
ENDBRANCH  28  33
ENDBRANCH  25  28
ENDBRANCH  20  22
ENDBRANCH   8  19
TORSDOF 7
ENDMDL
MODEL 6
REMARK VINA RESULT:      -7.5     10.057     13.319
REMARK  7 active torsions:
REMARK  status: ('A' for Active; 'I' for Inactive)
REMARK    1  A    between atoms: C24_31  and  O4_4 
REMARK    2  A    between atoms: C13_20  and  N1_6 
REMARK    3  A    between atoms: C16_23  and  N1_6 
REMARK    4  A    between atoms: C17_24  and  N1_6 
REMARK    5  A    between atoms: C14_21  and  N2_7 
REMARK    6  A    between atoms: C11_18  and  C4_11 
REMARK    7  A    between atoms: C16_23  and  C24_31 
ROOT
HETATM    1  O1  UNK     1      27.258  -6.710  38.618  1.00  0.00    -0.332 OA
HETATM    2  O2  UNK     1      31.763  -7.541  36.975  1.00  0.00    -0.274 OA
HETATM    3  O3  UNK     1      27.303 -10.111  37.406  1.00  0.00    -0.289 OA
HETATM    4  O5  UNK     1      33.919  -7.907  36.293  1.00  0.00    -0.260 OA
HETATM    5  C1  UNK     1      26.991  -8.110  38.732  1.00  0.00     0.125 C 
HETATM    6  C2  UNK     1      29.466  -7.161  37.686  1.00  0.00     0.048 A 
HETATM    7  C3  UNK     1      27.700  -8.985  37.694  1.00  0.00     0.196 C 
HETATM    8  C4  UNK     1      28.931  -8.395  37.087  1.00  0.00     0.044 C 
HETATM    9  C5  UNK     1      28.569  -6.366  38.413  1.00  0.00     0.084 A 
HETATM   10  C6  UNK     1      25.474  -8.250  38.534  1.00  0.00     0.055 C 
HETATM   11  C7  UNK     1      27.361  -8.592  40.140  1.00  0.00     0.055 C 
HETATM   12  C8  UNK     1      30.797  -6.720  37.608  1.00  0.00     0.103 A 
HETATM   13  C9  UNK     1      31.212  -5.506  38.164  1.00  0.00    -0.001 A 
HETATM   14  C10 UNK     1      28.963  -5.136  38.953  1.00  0.00     0.039 A 
HETATM   15  C12 UNK     1      30.282  -4.707  38.827  1.00  0.00     0.017 A 
HETATM   16  C15 UNK     1      32.604  -5.101  38.042  1.00  0.00     0.020 A 
HETATM   17  C22 UNK     1      33.490  -5.887  37.426  1.00  0.00     0.083 A 
HETATM   18  C23 UNK     1      33.101  -7.185  36.851  1.00  0.00     0.288 A 
ENDROOT
BRANCH   8  19
HETATM   19  C11 UNK     1      29.385  -8.970  35.964  1.00  0.00     0.104 C 
HETATM   20  N2  UNK     1      29.543  -8.399  34.748  1.00  0.00    -0.365 N 
HETATM   21  H10 UNK     1      29.287  -7.422  34.665  1.00  0.00     0.165 HD
BRANCH  20  22
HETATM   22  C14 UNK     1      30.016  -8.979  33.556  1.00  0.00     0.032 A 
HETATM   23  C20 UNK     1      29.343 -10.064  32.990  1.00  0.00     0.031 A 
HETATM   24  C18 UNK     1      29.808 -10.636  31.806  1.00  0.00     0.031 A 
HETATM   25  C13 UNK     1      30.948 -10.124  31.186  1.00  0.00     0.030 A 
HETATM   26  C19 UNK     1      31.622  -9.040  31.749  1.00  0.00     0.031 A 
HETATM   27  C21 UNK     1      31.156  -8.468  32.933  1.00  0.00     0.031 A 
BRANCH  25  28
HETATM   28  N1  UNK     1      31.419 -10.702  29.988  1.00  0.00    -0.379 N 
BRANCH  28  29
HETATM   29  C16 UNK     1      30.591 -10.702  28.798  1.00  0.00     0.149 C 
BRANCH  29  30
HETATM   30  C24 UNK     1      30.487  -9.295  28.236  1.00  0.00     0.183 C 
BRANCH  30  31
HETATM   31  O4  UNK     1      31.689  -8.968  27.552  1.00  0.00    -0.399 OA
HETATM   32  H26 UNK     1      31.513  -8.178  27.013  1.00  0.00     0.209 HD
ENDBRANCH  30  31
ENDBRANCH  29  30
ENDBRANCH  28  29
BRANCH  28  33
HETATM   33  C17 UNK     1      32.732 -11.314  29.935  1.00  0.00     0.118 C 
HETATM   34  C25 UNK     1      32.744 -12.596  30.746  1.00  0.00     0.026 C 
ENDBRANCH  28  33
ENDBRANCH  25  28
ENDBRANCH  20  22
ENDBRANCH   8  19
TORSDOF 7
ENDMDL
MODEL 7
REMARK VINA RESULT:      -7.4      4.716     10.445
REMARK  7 active torsions:
REMARK  status: ('A' for Active; 'I' for Inactive)
REMARK    1  A    between atoms: C24_31  and  O4_4 
REMARK    2  A    between atoms: C13_20  and  N1_6 
REMARK    3  A    between atoms: C16_23  and  N1_6 
REMARK    4  A    between atoms: C17_24  and  N1_6 
REMARK    5  A    between atoms: C14_21  and  N2_7 
REMARK    6  A    between atoms: C11_18  and  C4_11 
REMARK    7  A    between atoms: C16_23  and  C24_31 
ROOT
HETATM    1  O1  UNK     1      19.474  -1.941  35.956  1.00  0.00    -0.332 OA
HETATM    2  O2  UNK     1      18.517   0.307  31.747  1.00  0.00    -0.274 OA
HETATM    3  O3  UNK     1      16.600   0.166  36.542  1.00  0.00    -0.289 OA
HETATM    4  O5  UNK     1      18.060   1.275  29.722  1.00  0.00    -0.260 OA
HETATM    5  C1  UNK     1      18.155  -1.689  36.445  1.00  0.00     0.125 C 
HETATM    6  C2  UNK     1      19.000  -0.706  33.908  1.00  0.00     0.048 A 
HETATM    7  C3  UNK     1      17.525  -0.383  35.948  1.00  0.00     0.196 C 
HETATM    8  C4  UNK     1      18.083   0.156  34.672  1.00  0.00     0.044 C 
HETATM    9  C5  UNK     1      19.670  -1.710  34.620  1.00  0.00     0.084 A 
HETATM   10  C6  UNK     1      18.296  -1.611  37.972  1.00  0.00     0.055 C 
HETATM   11  C7  UNK     1      17.237  -2.864  36.084  1.00  0.00     0.055 C 
HETATM   12  C8  UNK     1      19.250  -0.621  32.527  1.00  0.00     0.103 A 
HETATM   13  C9  UNK     1      20.178  -1.448  31.887  1.00  0.00    -0.001 A 
HETATM   14  C10 UNK     1      20.621  -2.529  33.998  1.00  0.00     0.039 A 
HETATM   15  C12 UNK     1      20.875  -2.396  32.635  1.00  0.00     0.017 A 
HETATM   16  C15 UNK     1      20.397  -1.305  30.457  1.00  0.00     0.020 A 
HETATM   17  C22 UNK     1      19.704  -0.410  29.748  1.00  0.00     0.083 A 
HETATM   18  C23 UNK     1      18.698   0.460  30.377  1.00  0.00     0.288 A 
ENDROOT
BRANCH   8  19
HETATM   19  C11 UNK     1      17.799   1.434  34.381  1.00  0.00     0.104 C 
HETATM   20  N2  UNK     1      18.571   2.321  33.712  1.00  0.00    -0.365 N 
HETATM   21  H10 UNK     1      19.475   1.991  33.393  1.00  0.00     0.165 HD
BRANCH  20  22
HETATM   22  C14 UNK     1      18.297   3.665  33.396  1.00  0.00     0.032 A 
HETATM   23  C20 UNK     1      18.173   4.059  32.062  1.00  0.00     0.031 A 
HETATM   24  C18 UNK     1      17.898   5.390  31.749  1.00  0.00     0.031 A 
HETATM   25  C13 UNK     1      17.746   6.330  32.768  1.00  0.00     0.030 A 
HETATM   26  C19 UNK     1      17.869   5.938  34.102  1.00  0.00     0.031 A 
HETATM   27  C21 UNK     1      18.145   4.607  34.415  1.00  0.00     0.031 A 
BRANCH  25  28
HETATM   28  N1  UNK     1      17.467   7.676  32.452  1.00  0.00    -0.379 N 
BRANCH  28  29
HETATM   29  C16 UNK     1      18.180   8.749  33.116  1.00  0.00     0.149 C 
BRANCH  29  30
HETATM   30  C24 UNK     1      17.229   9.539  33.998  1.00  0.00     0.183 C 
BRANCH  30  31
HETATM   31  O4  UNK     1      17.380  10.927  33.733  1.00  0.00    -0.399 OA
HETATM   32  H26 UNK     1      17.004  11.411  34.488  1.00  0.00     0.209 HD
ENDBRANCH  30  31
ENDBRANCH  29  30
ENDBRANCH  28  29
BRANCH  28  33
HETATM   33  C17 UNK     1      16.456   8.003  31.467  1.00  0.00     0.118 C 
HETATM   34  C25 UNK     1      15.109   7.456  31.899  1.00  0.00     0.026 C 
ENDBRANCH  28  33
ENDBRANCH  25  28
ENDBRANCH  20  22
ENDBRANCH   8  19
TORSDOF 7
ENDMDL
MODEL 8
REMARK VINA RESULT:      -7.4     28.462     31.037
REMARK  7 active torsions:
REMARK  status: ('A' for Active; 'I' for Inactive)
REMARK    1  A    between atoms: C24_31  and  O4_4 
REMARK    2  A    between atoms: C13_20  and  N1_6 
REMARK    3  A    between atoms: C16_23  and  N1_6 
REMARK    4  A    between atoms: C17_24  and  N1_6 
REMARK    5  A    between atoms: C14_21  and  N2_7 
REMARK    6  A    between atoms: C11_18  and  C4_11 
REMARK    7  A    between atoms: C16_23  and  C24_31 
ROOT
HETATM    1  O1  UNK     1      10.407   7.486   8.007  1.00  0.00    -0.332 OA
HETATM    2  O2  UNK     1      13.085  10.038  11.170  1.00  0.00    -0.274 OA
HETATM    3  O3  UNK     1      13.790   6.255   7.725  1.00  0.00    -0.289 OA
HETATM    4  O5  UNK     1      14.282  11.210  12.732  1.00  0.00    -0.260 OA
HETATM    5  C1  UNK     1      11.386   6.447   7.945  1.00  0.00     0.125 C 
HETATM    6  C2  UNK     1      11.825   8.795   9.499  1.00  0.00     0.048 A 
HETATM    7  C3  UNK     1      12.834   6.917   8.120  1.00  0.00     0.196 C 
HETATM    8  C4  UNK     1      13.007   8.215   8.840  1.00  0.00     0.044 C 
HETATM    9  C5  UNK     1      10.570   8.401   9.015  1.00  0.00     0.084 A 
HETATM   10  C6  UNK     1      11.239   5.834   6.545  1.00  0.00     0.055 C 
HETATM   11  C7  UNK     1      11.070   5.377   8.999  1.00  0.00     0.055 C 
HETATM   12  C8  UNK     1      11.844   9.694  10.578  1.00  0.00     0.103 A 
HETATM   13  C9  UNK     1      10.673  10.239  11.113  1.00  0.00    -0.001 A 
HETATM   14  C10 UNK     1       9.390   8.958   9.523  1.00  0.00     0.039 A 
HETATM   15  C12 UNK     1       9.442   9.876  10.569  1.00  0.00     0.017 A 
HETATM   16  C15 UNK     1      10.761  11.171  12.226  1.00  0.00     0.020 A 
HETATM   17  C22 UNK     1      11.944  11.491  12.755  1.00  0.00     0.083 A 
HETATM   18  C23 UNK     1      13.199  10.919  12.240  1.00  0.00     0.288 A 
ENDROOT
BRANCH   8  19
HETATM   19  C11 UNK     1      14.202   8.813   8.727  1.00  0.00     0.104 C 
HETATM   20  N2  UNK     1      14.453  10.114   8.458  1.00  0.00    -0.365 N 
HETATM   21  H10 UNK     1      13.649  10.716   8.318  1.00  0.00     0.165 HD
BRANCH  20  22
HETATM   22  C14 UNK     1      15.695  10.765   8.333  1.00  0.00     0.032 A 
HETATM   23  C20 UNK     1      15.877  11.746   7.356  1.00  0.00     0.031 A 
HETATM   24  C18 UNK     1      17.106  12.394   7.235  1.00  0.00     0.031 A 
HETATM   25  C13 UNK     1      18.156  12.063   8.092  1.00  0.00     0.030 A 
HETATM   26  C19 UNK     1      17.976  11.084   9.069  1.00  0.00     0.031 A 
HETATM   27  C21 UNK     1      16.747  10.436   9.190  1.00  0.00     0.031 A 
BRANCH  25  28
HETATM   28  N1  UNK     1      19.399  12.719   7.970  1.00  0.00    -0.379 N 
BRANCH  28  29
HETATM   29  C16 UNK     1      20.636  11.983   8.136  1.00  0.00     0.149 C 
BRANCH  29  30
HETATM   30  C24 UNK     1      21.824  12.899   7.895  1.00  0.00     0.183 C 
BRANCH  30  31
HETATM   31  O4  UNK     1      22.465  12.533   6.680  1.00  0.00    -0.399 OA
HETATM   32  H26 UNK     1      22.433  11.563   6.613  1.00  0.00     0.209 HD
ENDBRANCH  30  31
ENDBRANCH  29  30
ENDBRANCH  28  29
BRANCH  28  33
HETATM   33  C17 UNK     1      19.454  14.140   7.690  1.00  0.00     0.118 C 
HETATM   34  C25 UNK     1      18.987  14.929   8.898  1.00  0.00     0.026 C 
ENDBRANCH  28  33
ENDBRANCH  25  28
ENDBRANCH  20  22
ENDBRANCH   8  19
TORSDOF 7
ENDMDL
MODEL 9
REMARK VINA RESULT:      -7.4     11.929     15.323
REMARK  7 active torsions:
REMARK  status: ('A' for Active; 'I' for Inactive)
REMARK    1  A    between atoms: C24_31  and  O4_4 
REMARK    2  A    between atoms: C13_20  and  N1_6 
REMARK    3  A    between atoms: C16_23  and  N1_6 
REMARK    4  A    between atoms: C17_24  and  N1_6 
REMARK    5  A    between atoms: C14_21  and  N2_7 
REMARK    6  A    between atoms: C11_18  and  C4_11 
REMARK    7  A    between atoms: C16_23  and  C24_31 
ROOT
HETATM    1  O1  UNK     1      33.613 -10.305  30.140  1.00  0.00    -0.332 OA
HETATM    2  O2  UNK     1      34.576  -7.495  33.995  1.00  0.00    -0.274 OA
HETATM    3  O3  UNK     1      30.551  -8.567  30.941  1.00  0.00    -0.289 OA
HETATM    4  O5  UNK     1      35.103  -6.131  35.757  1.00  0.00    -0.260 OA
HETATM    5  C1  UNK     1      32.459  -9.530  29.804  1.00  0.00     0.125 C 
HETATM    6  C2  UNK     1      34.000  -8.951  32.130  1.00  0.00     0.048 A 
HETATM    7  C3  UNK     1      31.726  -8.919  31.002  1.00  0.00     0.196 C 
HETATM    8  C4  UNK     1      32.546  -8.743  32.238  1.00  0.00     0.044 C 
HETATM    9  C5  UNK     1      34.450  -9.756  31.075  1.00  0.00     0.084 A 
HETATM   10  C6  UNK     1      31.508 -10.505  29.095  1.00  0.00     0.055 C 
HETATM   11  C7  UNK     1      32.854  -8.414  28.829  1.00  0.00     0.055 C 
HETATM   12  C8  UNK     1      34.974  -8.401  32.980  1.00  0.00     0.103 A 
HETATM   13  C9  UNK     1      36.334  -8.691  32.839  1.00  0.00    -0.001 A 
HETATM   14  C10 UNK     1      35.806 -10.076  30.936  1.00  0.00     0.039 A 
HETATM   15  C12 UNK     1      36.745  -9.546  31.817  1.00  0.00     0.017 A 
HETATM   16  C15 UNK     1      37.293  -8.096  33.756  1.00  0.00     0.020 A 
HETATM   17  C22 UNK     1      36.888  -7.259  34.715  1.00  0.00     0.083 A 
HETATM   18  C23 UNK     1      35.470  -6.905  34.881  1.00  0.00     0.288 A 
ENDROOT
BRANCH   8  19
HETATM   19  C11 UNK     1      31.877  -8.526  33.381  1.00  0.00     0.104 C 
HETATM   20  N2  UNK     1      31.359  -7.359  33.826  1.00  0.00    -0.365 N 
HETATM   21  H10 UNK     1      31.491  -6.546  33.236  1.00  0.00     0.165 HD
BRANCH  20  22
HETATM   22  C14 UNK     1      30.656  -7.105  35.018  1.00  0.00     0.032 A 
HETATM   23  C20 UNK     1      31.263  -7.339  36.253  1.00  0.00     0.031 A 
HETATM   24  C18 UNK     1      30.567  -7.082  37.435  1.00  0.00     0.031 A 
HETATM   25  C13 UNK     1      29.263  -6.591  37.383  1.00  0.00     0.030 A 
HETATM   26  C19 UNK     1      28.654  -6.356  36.150  1.00  0.00     0.031 A 
HETATM   27  C21 UNK     1      29.349  -6.613  34.969  1.00  0.00     0.031 A 
BRANCH  25  28
HETATM   28  N1  UNK     1      28.559  -6.331  38.578  1.00  0.00    -0.379 N 
BRANCH  28  29
HETATM   29  C16 UNK     1      28.227  -4.971  38.953  1.00  0.00     0.149 C 
BRANCH  29  30
HETATM   30  C24 UNK     1      29.494  -4.152  39.119  1.00  0.00     0.183 C 
BRANCH  30  31
HETATM   31  O4  UNK     1      29.422  -3.407  40.327  1.00  0.00    -0.399 OA
HETATM   32  H26 UNK     1      30.180  -3.667  40.877  1.00  0.00     0.209 HD
ENDBRANCH  30  31
ENDBRANCH  29  30
ENDBRANCH  28  29
BRANCH  28  33
HETATM   33  C17 UNK     1      28.171  -7.420  39.452  1.00  0.00     0.118 C 
HETATM   34  C25 UNK     1      26.921  -8.096  38.921  1.00  0.00     0.026 C 
ENDBRANCH  28  33
ENDBRANCH  25  28
ENDBRANCH  20  22
ENDBRANCH   8  19
TORSDOF 7
ENDMDL
MODEL 10
REMARK VINA RESULT:      -7.3     27.968     31.512
REMARK  7 active torsions:
REMARK  status: ('A' for Active; 'I' for Inactive)
REMARK    1  A    between atoms: C24_31  and  O4_4 
REMARK    2  A    between atoms: C13_20  and  N1_6 
REMARK    3  A    between atoms: C16_23  and  N1_6 
REMARK    4  A    between atoms: C17_24  and  N1_6 
REMARK    5  A    between atoms: C14_21  and  N2_7 
REMARK    6  A    between atoms: C11_18  and  C4_11 
REMARK    7  A    between atoms: C16_23  and  C24_31 
ROOT
HETATM    1  O1  UNK     1      14.317   7.496   8.299  1.00  0.00    -0.332 OA
HETATM    2  O2  UNK     1       9.485   7.615   8.878  1.00  0.00    -0.274 OA
HETATM    3  O3  UNK     1      13.706   8.782  11.618  1.00  0.00    -0.289 OA
HETATM    4  O5  UNK     1       7.209   7.573   9.129  1.00  0.00    -0.260 OA
HETATM    5  C1  UNK     1      14.534   7.540   9.711  1.00  0.00     0.125 C 
HETATM    6  C2  UNK     1      11.906   7.676   8.619  1.00  0.00     0.048 A 
HETATM    7  C3  UNK     1      13.482   8.328  10.499  1.00  0.00     0.196 C 
HETATM    8  C4  UNK     1      12.153   8.474   9.831  1.00  0.00     0.044 C 
HETATM    9  C5  UNK     1      13.030   7.246   7.900  1.00  0.00     0.084 A 
HETATM   10  C6  UNK     1      15.895   8.228   9.891  1.00  0.00     0.055 C 
HETATM   11  C7  UNK     1      14.615   6.111  10.264  1.00  0.00     0.055 C 
HETATM   12  C8  UNK     1      10.645   7.296   8.129  1.00  0.00     0.103 A 
HETATM   13  C9  UNK     1      10.495   6.580   6.937  1.00  0.00    -0.001 A 
HETATM   14  C10 UNK     1      12.895   6.551   6.692  1.00  0.00     0.039 A 
HETATM   15  C12 UNK     1      11.631   6.220   6.211  1.00  0.00     0.017 A 
HETATM   16  C15 UNK     1       9.162   6.223   6.479  1.00  0.00     0.020 A 
HETATM   17  C22 UNK     1       8.085   6.551   7.196  1.00  0.00     0.083 A 
HETATM   18  C23 UNK     1       8.200   7.280   8.470  1.00  0.00     0.288 A 
ENDROOT
BRANCH   8  19
HETATM   19  C11 UNK     1      11.331   9.412  10.323  1.00  0.00     0.104 C 
HETATM   20  N2  UNK     1      10.557  10.277   9.629  1.00  0.00    -0.365 N 
HETATM   21  H10 UNK     1      10.600  10.220   8.618  1.00  0.00     0.165 HD
BRANCH  20  22
HETATM   22  C14 UNK     1       9.688  11.270  10.119  1.00  0.00     0.032 A 
HETATM   23  C20 UNK     1       9.868  12.604   9.749  1.00  0.00     0.031 A 
HETATM   24  C18 UNK     1       9.005  13.588  10.231  1.00  0.00     0.031 A 
HETATM   25  C13 UNK     1       7.958  13.239  11.084  1.00  0.00     0.030 A 
HETATM   26  C19 UNK     1       7.775  11.907  11.455  1.00  0.00     0.031 A 
HETATM   27  C21 UNK     1       8.639  10.923  10.973  1.00  0.00     0.031 A 
BRANCH  25  28
HETATM   28  N1  UNK     1       7.084  14.233  11.571  1.00  0.00    -0.379 N 
BRANCH  28  29
HETATM   29  C16 UNK     1       5.649  14.087  11.421  1.00  0.00     0.149 C 
BRANCH  29  30
HETATM   30  C24 UNK     1       5.292  13.936   9.952  1.00  0.00     0.183 C 
BRANCH  30  31
HETATM   31  O4  UNK     1       5.841  15.021   9.217  1.00  0.00    -0.399 OA
HETATM   32  H26 UNK     1       5.836  15.801   9.798  1.00  0.00     0.209 HD
ENDBRANCH  30  31
ENDBRANCH  29  30
ENDBRANCH  28  29
BRANCH  28  33
HETATM   33  C17 UNK     1       7.609  15.419  12.218  1.00  0.00     0.118 C 
HETATM   34  C25 UNK     1       8.030  15.097  13.638  1.00  0.00     0.026 C 
ENDBRANCH  28  33
ENDBRANCH  25  28
ENDBRANCH  20  22
ENDBRANCH   8  19
TORSDOF 7
ENDMDL
