MODEL 1
REMARK VINA RESULT:      -8.6      0.000      0.000
REMARK  3 active torsions:
REMARK  status: ('A' for Active; 'I' for Inactive)
REMARK    1  A    between atoms: C5_9  and  O2_2 
REMARK    2  A    between atoms: C7_11  and  O3_3 
REMARK    3  A    between atoms: C1_5  and  C3_7 
ROOT
HETATM    1  O1  UNK     1      19.067   0.066  32.814  1.00  0.00    -0.306 OA
HETATM    2  O4  UNK     1      18.408   2.992  30.056  1.00  0.00    -0.284 OA
HETATM    3  C1  UNK     1      18.456   1.260  33.159  1.00  0.00     0.126 A 
HETATM    4  C2  UNK     1      19.239   0.835  30.518  1.00  0.00     0.051 A 
HETATM    5  C4  UNK     1      19.439  -0.125  31.508  1.00  0.00     0.090 A 
HETATM    6  C5  UNK     1      18.213   2.270  32.303  1.00  0.00     0.154 A 
HETATM    7  C6  UNK     1      18.603   2.110  30.881  1.00  0.00     0.221 A 
HETATM    8  C8  UNK     1      19.638   0.585  29.203  1.00  0.00     0.018 A 
HETATM    9  C10 UNK     1      20.042  -1.342  31.189  1.00  0.00     0.038 A 
HETATM   10  C12 UNK     1      20.241  -0.634  28.886  1.00  0.00     0.001 A 
HETATM   11  C13 UNK     1      20.442  -1.596  29.877  1.00  0.00     0.003 A 
ENDROOT
BRANCH   3  12
HETATM   12  C3  UNK     1      18.106   1.336  34.589  1.00  0.00     0.034 A 
HETATM   13  C7  UNK     1      16.959   0.715  35.086  1.00  0.00     0.081 A 
HETATM   14  C11 UNK     1      16.649   0.802  36.443  1.00  0.00     0.038 A 
HETATM   15  C15 UNK     1      17.487   1.509  37.306  1.00  0.00     0.003 A 
HETATM   16  C14 UNK     1      18.633   2.130  36.812  1.00  0.00     0.001 A 
HETATM   17  C9  UNK     1      18.942   2.043  35.454  1.00  0.00     0.017 A 
BRANCH  13  18
HETATM   18  O3  UNK     1      16.123   0.018  34.264  1.00  0.00    -0.355 OA
HETATM   19  C17 UNK     1      15.912  -1.358  34.572  1.00  0.00     0.210 C 
ENDBRANCH  13  18
ENDBRANCH   3  12
BRANCH   6  20
HETATM   20  O2  UNK     1      17.632   3.459  32.686  1.00  0.00    -0.350 OA
HETATM   21  C16 UNK     1      18.601   4.485  32.783  1.00  0.00     0.210 C 
ENDBRANCH   6  20
TORSDOF 3
ENDMDL
MODEL 2
REMARK VINA RESULT:      -8.5      1.907      3.784
REMARK  3 active torsions:
REMARK  status: ('A' for Active; 'I' for Inactive)
REMARK    1  A    between atoms: C5_9  and  O2_2 
REMARK    2  A    between atoms: C7_11  and  O3_3 
REMARK    3  A    between atoms: C1_5  and  C3_7 
ROOT
HETATM    1  O1  UNK     1      18.498   0.239  32.535  1.00  0.00    -0.306 OA
HETATM    2  O4  UNK     1      20.914  -3.035  32.768  1.00  0.00    -0.284 OA
HETATM    3  C1  UNK     1      18.590  -0.512  33.696  1.00  0.00     0.126 A 
HETATM    4  C2  UNK     1      20.102  -1.240  31.471  1.00  0.00     0.051 A 
HETATM    5  C4  UNK     1      19.255  -0.134  31.455  1.00  0.00     0.090 A 
HETATM    6  C5  UNK     1      19.360  -1.605  33.841  1.00  0.00     0.154 A 
HETATM    7  C6  UNK     1      20.192  -2.049  32.697  1.00  0.00     0.221 A 
HETATM    8  C8  UNK     1      20.851  -1.573  30.339  1.00  0.00     0.018 A 
HETATM    9  C10 UNK     1      19.151   0.647  30.304  1.00  0.00     0.038 A 
HETATM   10  C12 UNK     1      20.745  -0.789  29.189  1.00  0.00     0.001 A 
HETATM   11  C13 UNK     1      19.897   0.319  29.171  1.00  0.00     0.003 A 
ENDROOT
BRANCH   3  12
HETATM   12  C3  UNK     1      17.727  -0.004  34.778  1.00  0.00     0.034 A 
HETATM   13  C7  UNK     1      18.220   0.880  35.739  1.00  0.00     0.081 A 
HETATM   14  C11 UNK     1      17.385   1.346  36.755  1.00  0.00     0.038 A 
HETATM   15  C15 UNK     1      16.055   0.929  36.810  1.00  0.00     0.003 A 
HETATM   16  C14 UNK     1      15.560   0.046  35.852  1.00  0.00     0.001 A 
HETATM   17  C9  UNK     1      16.396  -0.420  34.836  1.00  0.00     0.017 A 
BRANCH  13  18
HETATM   18  O3  UNK     1      19.516   1.303  35.708  1.00  0.00    -0.355 OA
HETATM   19  C17 UNK     1      19.769   2.644  36.122  1.00  0.00     0.210 C 
ENDBRANCH  13  18
ENDBRANCH   3  12
BRANCH   6  20
HETATM   20  O2  UNK     1      19.403  -2.348  35.000  1.00  0.00    -0.350 OA
HETATM   21  C16 UNK     1      20.561  -2.040  35.753  1.00  0.00     0.210 C 
ENDBRANCH   6  20
TORSDOF 3
ENDMDL
MODEL 3
REMARK VINA RESULT:      -8.2      0.973      2.034
REMARK  3 active torsions:
REMARK  status: ('A' for Active; 'I' for Inactive)
REMARK    1  A    between atoms: C5_9  and  O2_2 
REMARK    2  A    between atoms: C7_11  and  O3_3 
REMARK    3  A    between atoms: C1_5  and  C3_7 
ROOT
HETATM    1  O1  UNK     1      18.849  -0.254  32.973  1.00  0.00    -0.306 OA
HETATM    2  O4  UNK     1      18.773   2.900  30.395  1.00  0.00    -0.284 OA
HETATM    3  C1  UNK     1      18.255   0.948  33.319  1.00  0.00     0.126 A 
HETATM    4  C2  UNK     1      19.410   0.666  30.798  1.00  0.00     0.051 A 
HETATM    5  C4  UNK     1      19.405  -0.373  31.726  1.00  0.00     0.090 A 
HETATM    6  C5  UNK     1      18.199   2.031  32.521  1.00  0.00     0.154 A 
HETATM    7  C6  UNK     1      18.793   1.950  31.165  1.00  0.00     0.221 A 
HETATM    8  C8  UNK     1      19.992   0.487  29.541  1.00  0.00     0.018 A 
HETATM    9  C10 UNK     1      19.986  -1.600  31.402  1.00  0.00     0.038 A 
HETATM   10  C12 UNK     1      20.571  -0.741  29.219  1.00  0.00     0.001 A 
HETATM   11  C13 UNK     1      20.569  -1.783  30.147  1.00  0.00     0.003 A 
ENDROOT
BRANCH   3  12
HETATM   12  C3  UNK     1      17.695   0.943  34.682  1.00  0.00     0.034 A 
HETATM   13  C7  UNK     1      18.456   1.360  35.776  1.00  0.00     0.081 A 
HETATM   14  C11 UNK     1      17.904   1.345  37.058  1.00  0.00     0.038 A 
HETATM   15  C15 UNK     1      16.592   0.913  37.247  1.00  0.00     0.003 A 
HETATM   16  C14 UNK     1      15.831   0.495  36.156  1.00  0.00     0.001 A 
HETATM   17  C9  UNK     1      16.382   0.510  34.875  1.00  0.00     0.017 A 
BRANCH  13  18
HETATM   18  O3  UNK     1      19.741   1.787  35.619  1.00  0.00    -0.355 OA
HETATM   19  C17 UNK     1      20.129   2.954  36.341  1.00  0.00     0.210 C 
ENDBRANCH  13  18
ENDBRANCH   3  12
BRANCH   6  20
HETATM   20  O2  UNK     1      17.629   3.224  32.909  1.00  0.00    -0.350 OA
HETATM   21  C16 UNK     1      18.623   4.164  33.267  1.00  0.00     0.210 C 
ENDBRANCH   6  20
TORSDOF 3
ENDMDL
MODEL 4
REMARK VINA RESULT:      -8.0     23.606     25.849
REMARK  3 active torsions:
REMARK  status: ('A' for Active; 'I' for Inactive)
REMARK    1  A    between atoms: C5_9  and  O2_2 
REMARK    2  A    between atoms: C7_11  and  O3_3 
REMARK    3  A    between atoms: C1_5  and  C3_7 
ROOT
HETATM    1  O1  UNK     1      12.839   7.358   7.768  1.00  0.00    -0.306 OA
HETATM    2  O4  UNK     1       9.594   8.369  10.016  1.00  0.00    -0.284 OA
HETATM    3  C1  UNK     1      12.975   8.028   8.973  1.00  0.00     0.126 A 
HETATM    4  C2  UNK     1      10.430   7.336   8.068  1.00  0.00     0.051 A 
HETATM    5  C4  UNK     1      11.579   7.022   7.345  1.00  0.00     0.090 A 
HETATM    6  C5  UNK     1      11.949   8.398   9.761  1.00  0.00     0.154 A 
HETATM    7  C6  UNK     1      10.567   8.060   9.341  1.00  0.00     0.221 A 
HETATM    8  C8  UNK     1       9.172   6.967   7.588  1.00  0.00     0.018 A 
HETATM    9  C10 UNK     1      11.476   6.338   6.134  1.00  0.00     0.038 A 
HETATM   10  C12 UNK     1       9.071   6.282   6.376  1.00  0.00     0.001 A 
HETATM   11  C13 UNK     1      10.221   5.968   5.650  1.00  0.00     0.003 A 
ENDROOT
BRANCH   3  12
HETATM   12  C3  UNK     1      14.378   8.328   9.310  1.00  0.00     0.034 A 
HETATM   13  C7  UNK     1      15.132   7.457  10.099  1.00  0.00     0.081 A 
HETATM   14  C11 UNK     1      16.458   7.763  10.406  1.00  0.00     0.038 A 
HETATM   15  C15 UNK     1      17.033   8.939   9.923  1.00  0.00     0.003 A 
HETATM   16  C14 UNK     1      16.281   9.810   9.135  1.00  0.00     0.001 A 
HETATM   17  C9  UNK     1      14.955   9.504   8.829  1.00  0.00     0.017 A 
BRANCH  13  18
HETATM   18  O3  UNK     1      14.595   6.302  10.584  1.00  0.00    -0.355 OA
HETATM   19  C17 UNK     1      15.043   5.083   9.995  1.00  0.00     0.210 C 
ENDBRANCH  13  18
ENDBRANCH   3  12
BRANCH   6  20
HETATM   20  O2  UNK     1      12.117   9.093  10.939  1.00  0.00    -0.350 OA
HETATM   21  C16 UNK     1      11.933  10.481  10.735  1.00  0.00     0.210 C 
ENDBRANCH   6  20
TORSDOF 3
ENDMDL
MODEL 5
REMARK VINA RESULT:      -7.7     23.998     26.193
REMARK  3 active torsions:
REMARK  status: ('A' for Active; 'I' for Inactive)
REMARK    1  A    between atoms: C5_9  and  O2_2 
REMARK    2  A    between atoms: C7_11  and  O3_3 
REMARK    3  A    between atoms: C1_5  and  C3_7 
ROOT
HETATM    1  O1  UNK     1      13.032   8.430   8.094  1.00  0.00    -0.306 OA
HETATM    2  O4  UNK     1      14.818   5.842  10.686  1.00  0.00    -0.284 OA
HETATM    3  C1  UNK     1      12.442   7.223   8.433  1.00  0.00     0.126 A 
HETATM    4  C2  UNK     1      14.897   7.912   9.559  1.00  0.00     0.051 A 
HETATM    5  C4  UNK     1      14.237   8.751   8.664  1.00  0.00     0.090 A 
HETATM    6  C5  UNK     1      12.977   6.320   9.275  1.00  0.00     0.154 A 
HETATM    7  C6  UNK     1      14.281   6.623   9.911  1.00  0.00     0.221 A 
HETATM    8  C8  UNK     1      16.123   8.292  10.110  1.00  0.00     0.018 A 
HETATM    9  C10 UNK     1      14.801   9.978   8.313  1.00  0.00     0.038 A 
HETATM   10  C12 UNK     1      16.685   9.520   9.757  1.00  0.00     0.001 A 
HETATM   11  C13 UNK     1      16.025  10.361   8.860  1.00  0.00     0.003 A 
ENDROOT
BRANCH   3  12
HETATM   12  C3  UNK     1      11.153   7.002   7.753  1.00  0.00     0.034 A 
HETATM   13  C7  UNK     1       9.943   7.276   8.393  1.00  0.00     0.081 A 
HETATM   14  C11 UNK     1       8.735   7.058   7.728  1.00  0.00     0.038 A 
HETATM   15  C15 UNK     1       8.737   6.566   6.423  1.00  0.00     0.003 A 
HETATM   16  C14 UNK     1       9.944   6.291   5.782  1.00  0.00     0.001 A 
HETATM   17  C9  UNK     1      11.151   6.510   6.447  1.00  0.00     0.017 A 
BRANCH  13  18
HETATM   18  O3  UNK     1       9.913   7.757   9.668  1.00  0.00    -0.355 OA
HETATM   19  C17 UNK     1       9.282   9.020   9.869  1.00  0.00     0.210 C 
ENDBRANCH  13  18
ENDBRANCH   3  12
BRANCH   6  20
HETATM   20  O2  UNK     1      12.378   5.114   9.565  1.00  0.00    -0.350 OA
HETATM   21  C16 UNK     1      12.594   4.181   8.524  1.00  0.00     0.210 C 
ENDBRANCH   6  20
TORSDOF 3
ENDMDL
MODEL 6
REMARK VINA RESULT:      -7.6      1.667      3.181
REMARK  3 active torsions:
REMARK  status: ('A' for Active; 'I' for Inactive)
REMARK    1  A    between atoms: C5_9  and  O2_2 
REMARK    2  A    between atoms: C7_11  and  O3_3 
REMARK    3  A    between atoms: C1_5  and  C3_7 
ROOT
HETATM    1  O1  UNK     1      18.688   0.591  32.693  1.00  0.00    -0.306 OA
HETATM    2  O4  UNK     1      20.596  -3.010  32.677  1.00  0.00    -0.284 OA
HETATM    3  C1  UNK     1      18.776  -0.186  33.836  1.00  0.00     0.126 A 
HETATM    4  C2  UNK     1      19.944  -1.090  31.472  1.00  0.00     0.051 A 
HETATM    5  C4  UNK     1      19.275   0.130  31.543  1.00  0.00     0.090 A 
HETATM    6  C5  UNK     1      19.384  -1.385  33.901  1.00  0.00     0.154 A 
HETATM    7  C6  UNK     1      20.027  -1.926  32.680  1.00  0.00     0.221 A 
HETATM    8  C8  UNK     1      20.524  -1.509  30.272  1.00  0.00     0.018 A 
HETATM    9  C10 UNK     1      19.180   0.939  30.410  1.00  0.00     0.038 A 
HETATM   10  C12 UNK     1      20.428  -0.697  29.141  1.00  0.00     0.001 A 
HETATM   11  C13 UNK     1      19.758   0.525  29.210  1.00  0.00     0.003 A 
ENDROOT
BRANCH   3  12
HETATM   12  C3  UNK     1      18.107   0.424  34.999  1.00  0.00     0.034 A 
HETATM   13  C7  UNK     1      16.730   0.291  35.192  1.00  0.00     0.081 A 
HETATM   14  C11 UNK     1      16.119   0.878  36.300  1.00  0.00     0.038 A 
HETATM   15  C15 UNK     1      16.883   1.599  37.217  1.00  0.00     0.003 A 
HETATM   16  C14 UNK     1      18.258   1.734  37.027  1.00  0.00     0.001 A 
HETATM   17  C9  UNK     1      18.869   1.147  35.918  1.00  0.00     0.017 A 
BRANCH  13  18
HETATM   18  O3  UNK     1      15.960  -0.409  34.310  1.00  0.00    -0.355 OA
HETATM   19  C17 UNK     1      15.727  -1.784  34.604  1.00  0.00     0.210 C 
ENDBRANCH  13  18
ENDBRANCH   3  12
BRANCH   6  20
HETATM   20  O2  UNK     1      19.424  -2.147  35.048  1.00  0.00    -0.350 OA
HETATM   21  C16 UNK     1      20.688  -2.045  35.676  1.00  0.00     0.210 C 
ENDBRANCH   6  20
TORSDOF 3
ENDMDL
MODEL 7
REMARK VINA RESULT:      -7.5      2.605      5.419
REMARK  3 active torsions:
REMARK  status: ('A' for Active; 'I' for Inactive)
REMARK    1  A    between atoms: C5_9  and  O2_2 
REMARK    2  A    between atoms: C7_11  and  O3_3 
REMARK    3  A    between atoms: C1_5  and  C3_7 
ROOT
HETATM    1  O1  UNK     1      18.407   4.105  34.507  1.00  0.00    -0.306 OA
HETATM    2  O4  UNK     1      18.193   2.179  30.923  1.00  0.00    -0.284 OA
HETATM    3  C1  UNK     1      18.353   4.804  33.313  1.00  0.00     0.126 A 
HETATM    4  C2  UNK     1      18.296   2.018  33.273  1.00  0.00     0.051 A 
HETATM    5  C4  UNK     1      18.371   2.735  34.465  1.00  0.00     0.090 A 
HETATM    6  C5  UNK     1      18.288   4.235  32.096  1.00  0.00     0.154 A 
HETATM    7  C6  UNK     1      18.253   2.755  32.001  1.00  0.00     0.221 A 
HETATM    8  C8  UNK     1      18.262   0.621  33.291  1.00  0.00     0.018 A 
HETATM    9  C10 UNK     1      18.415   2.059  35.684  1.00  0.00     0.038 A 
HETATM   10  C12 UNK     1      18.305  -0.053  34.512  1.00  0.00     0.001 A 
HETATM   11  C13 UNK     1      18.382   0.664  35.707  1.00  0.00     0.003 A 
ENDROOT
BRANCH   3  12
HETATM   12  C3  UNK     1      18.398   6.266  33.499  1.00  0.00     0.034 A 
HETATM   13  C7  UNK     1      17.275   7.060  33.257  1.00  0.00     0.081 A 
HETATM   14  C11 UNK     1      17.343   8.441  33.440  1.00  0.00     0.038 A 
HETATM   15  C15 UNK     1      18.533   9.031  33.866  1.00  0.00     0.003 A 
HETATM   16  C14 UNK     1      19.656   8.240  34.108  1.00  0.00     0.001 A 
HETATM   17  C9  UNK     1      19.588   6.859  33.925  1.00  0.00     0.017 A 
BRANCH  13  18
HETATM   18  O3  UNK     1      16.100   6.508  32.839  1.00  0.00    -0.355 OA
HETATM   19  C17 UNK     1      15.246   7.329  32.046  1.00  0.00     0.210 C 
ENDBRANCH  13  18
ENDBRANCH   3  12
BRANCH   6  20
HETATM   20  O2  UNK     1      18.269   4.960  30.925  1.00  0.00    -0.350 OA
HETATM   21  C16 UNK     1      19.584   5.203  30.461  1.00  0.00     0.210 C 
ENDBRANCH   6  20
TORSDOF 3
ENDMDL
MODEL 8
REMARK VINA RESULT:      -7.5      3.341      7.117
REMARK  3 active torsions:
REMARK  status: ('A' for Active; 'I' for Inactive)
REMARK    1  A    between atoms: C5_9  and  O2_2 
REMARK    2  A    between atoms: C7_11  and  O3_3 
REMARK    3  A    between atoms: C1_5  and  C3_7 
ROOT
HETATM    1  O1  UNK     1      16.522   5.940  32.383  1.00  0.00    -0.306 OA
HETATM    2  O4  UNK     1      18.950   7.791  35.082  1.00  0.00    -0.284 OA
HETATM    3  C1  UNK     1      17.818   5.507  32.606  1.00  0.00     0.126 A 
HETATM    4  C2  UNK     1      16.835   7.682  34.045  1.00  0.00     0.051 A 
HETATM    5  C4  UNK     1      16.057   7.008  33.106  1.00  0.00     0.090 A 
HETATM    6  C5  UNK     1      18.675   6.073  33.475  1.00  0.00     0.154 A 
HETATM    7  C6  UNK     1      18.217   7.234  34.275  1.00  0.00     0.221 A 
HETATM    8  C8  UNK     1      16.307   8.764  34.754  1.00  0.00     0.018 A 
HETATM    9  C10 UNK     1      14.743   7.414  32.868  1.00  0.00     0.038 A 
HETATM   10  C12 UNK     1      14.993   9.168  34.514  1.00  0.00     0.001 A 
HETATM   11  C13 UNK     1      14.212   8.494  33.573  1.00  0.00     0.003 A 
ENDROOT
BRANCH   3  12
HETATM   12  C3  UNK     1      18.192   4.354  31.767  1.00  0.00     0.034 A 
HETATM   13  C7  UNK     1      18.175   3.054  32.277  1.00  0.00     0.081 A 
HETATM   14  C11 UNK     1      18.533   1.979  31.463  1.00  0.00     0.038 A 
HETATM   15  C15 UNK     1      18.908   2.202  30.138  1.00  0.00     0.003 A 
HETATM   16  C14 UNK     1      18.926   3.499  29.626  1.00  0.00     0.001 A 
HETATM   17  C9  UNK     1      18.568   4.574  30.440  1.00  0.00     0.017 A 
BRANCH  13  18
HETATM   18  O3  UNK     1      17.813   2.809  33.568  1.00  0.00    -0.355 OA
HETATM   19  C17 UNK     1      18.110   1.516  34.089  1.00  0.00     0.210 C 
ENDBRANCH  13  18
ENDBRANCH   3  12
BRANCH   6  20
HETATM   20  O2  UNK     1      19.971   5.637  33.648  1.00  0.00    -0.350 OA
HETATM   21  C16 UNK     1      20.867   6.391  32.855  1.00  0.00     0.210 C 
ENDBRANCH   6  20
TORSDOF 3
ENDMDL
MODEL 9
REMARK VINA RESULT:      -7.4     23.541     26.078
REMARK  3 active torsions:
REMARK  status: ('A' for Active; 'I' for Inactive)
REMARK    1  A    between atoms: C5_9  and  O2_2 
REMARK    2  A    between atoms: C7_11  and  O3_3 
REMARK    3  A    between atoms: C1_5  and  C3_7 
ROOT
HETATM    1  O1  UNK     1      12.943   7.123   7.832  1.00  0.00    -0.306 OA
HETATM    2  O4  UNK     1       9.716   8.410   9.963  1.00  0.00    -0.284 OA
HETATM    3  C1  UNK     1      13.091   7.774   9.045  1.00  0.00     0.126 A 
HETATM    4  C2  UNK     1      10.531   7.314   8.041  1.00  0.00     0.051 A 
HETATM    5  C4  UNK     1      11.675   6.902   7.360  1.00  0.00     0.090 A 
HETATM    6  C5  UNK     1      12.072   8.231   9.797  1.00  0.00     0.154 A 
HETATM    7  C6  UNK     1      10.683   8.019   9.323  1.00  0.00     0.221 A 
HETATM    8  C8  UNK     1       9.264   7.060   7.511  1.00  0.00     0.018 A 
HETATM    9  C10 UNK     1      11.557   6.233   6.141  1.00  0.00     0.038 A 
HETATM   10  C12 UNK     1       9.149   6.390   6.292  1.00  0.00     0.001 A 
HETATM   11  C13 UNK     1      10.293   5.977   5.608  1.00  0.00     0.003 A 
ENDROOT
BRANCH   3  12
HETATM   12  C3  UNK     1      14.501   7.947   9.438  1.00  0.00     0.034 A 
HETATM   13  C7  UNK     1      15.224   9.078   9.053  1.00  0.00     0.081 A 
HETATM   14  C11 UNK     1      16.558   9.219   9.436  1.00  0.00     0.038 A 
HETATM   15  C15 UNK     1      17.171   8.229  10.205  1.00  0.00     0.003 A 
HETATM   16  C14 UNK     1      16.451   7.099  10.590  1.00  0.00     0.001 A 
HETATM   17  C9  UNK     1      15.117   6.958  10.207  1.00  0.00     0.017 A 
BRANCH  13  18
HETATM   18  O3  UNK     1      14.648  10.059   8.301  1.00  0.00    -0.355 OA
HETATM   19  C17 UNK     1      15.435  11.220   8.041  1.00  0.00     0.210 C 
ENDBRANCH  13  18
ENDBRANCH   3  12
BRANCH   6  20
HETATM   20  O2  UNK     1      12.256   8.905  10.985  1.00  0.00    -0.350 OA
HETATM   21  C16 UNK     1      12.156  10.303  10.792  1.00  0.00     0.210 C 
ENDBRANCH   6  20
TORSDOF 3
ENDMDL
MODEL 10
REMARK VINA RESULT:      -7.4     24.507     26.553
REMARK  3 active torsions:
REMARK  status: ('A' for Active; 'I' for Inactive)
REMARK    1  A    between atoms: C5_9  and  O2_2 
REMARK    2  A    between atoms: C7_11  and  O3_3 
REMARK    3  A    between atoms: C1_5  and  C3_7 
ROOT
HETATM    1  O1  UNK     1       7.681   4.213   8.880  1.00  0.00    -0.306 OA
HETATM    2  O4  UNK     1       6.574   6.638  11.961  1.00  0.00    -0.284 OA
HETATM    3  C1  UNK     1       8.256   5.460   9.061  1.00  0.00     0.126 A 
HETATM    4  C2  UNK     1       6.311   4.575  10.850  1.00  0.00     0.051 A 
HETATM    5  C4  UNK     1       6.731   3.795   9.775  1.00  0.00     0.090 A 
HETATM    6  C5  UNK     1       7.935   6.314  10.050  1.00  0.00     0.154 A 
HETATM    7  C6  UNK     1       6.908   5.906  11.039  1.00  0.00     0.221 A 
HETATM    8  C8  UNK     1       5.338   4.097  11.732  1.00  0.00     0.018 A 
HETATM    9  C10 UNK     1       6.179   2.530   9.573  1.00  0.00     0.038 A 
HETATM   10  C12 UNK     1       4.788   2.831  11.528  1.00  0.00     0.001 A 
HETATM   11  C13 UNK     1       5.207   2.048  10.451  1.00  0.00     0.003 A 
ENDROOT
BRANCH   3  12
HETATM   12  C3  UNK     1       9.261   5.785   8.033  1.00  0.00     0.034 A 
HETATM   13  C7  UNK     1      10.627   5.735   8.316  1.00  0.00     0.081 A 
HETATM   14  C11 UNK     1      11.559   6.048   7.326  1.00  0.00     0.038 A 
HETATM   15  C15 UNK     1      11.126   6.412   6.051  1.00  0.00     0.003 A 
HETATM   16  C14 UNK     1       9.762   6.463   5.765  1.00  0.00     0.001 A 
HETATM   17  C9  UNK     1       8.831   6.150   6.756  1.00  0.00     0.017 A 
BRANCH  13  18
HETATM   18  O3  UNK     1      11.076   5.383   9.555  1.00  0.00    -0.355 OA
HETATM   19  C17 UNK     1      12.482   5.461   9.779  1.00  0.00     0.210 C 
ENDBRANCH  13  18
ENDBRANCH   3  12
BRANCH   6  20
HETATM   20  O2  UNK     1       8.504   7.561  10.183  1.00  0.00    -0.350 OA
HETATM   21  C16 UNK     1       7.748   8.536   9.489  1.00  0.00     0.210 C 
ENDBRANCH   6  20
TORSDOF 3
ENDMDL
