MODEL 1
REMARK VINA RESULT:      -9.2      0.000      0.000
REMARK  6 active torsions:
REMARK  status: ('A' for Active; 'I' for Inactive)
REMARK    1  A    between atoms: C13_19  and  O2_2 
REMARK    2  A    between atoms: C9_15  and  O2_2 
REMARK       I    between atoms: C21_27  and  N1_5 
REMARK    3  A    between atoms: N1_5  and  N2_6 
REMARK    4  A    between atoms: C17_23  and  C7_13 
REMARK    5  A    between atoms: C10_16  and  C9_15 
REMARK    6  A    between atoms: C14_20  and  C21_27 
ROOT
HETATM    1  O4  UNK     1      21.270  -3.515  32.351  1.00  0.00    -0.266 OA
HETATM    2  N1  UNK     1      20.331  -2.225  34.029  1.00  0.00    -0.243 N 
HETATM    3  C21 UNK     1      20.671  -2.507  32.719  1.00  0.00     0.271 C 
HETATM    4  H20 UNK     1      19.886  -1.362  34.326  1.00  0.00     0.192 HD
ENDROOT
BRANCH   2   5
HETATM    5  N2  UNK     1      20.673  -3.113  34.992  1.00  0.00    -0.183 NA
HETATM    6  C17 UNK     1      19.748  -3.974  35.267  1.00  0.00     0.156 C 
BRANCH   6   7
HETATM    7  C7  UNK     1      19.921  -5.017  36.279  1.00  0.00     0.056 A 
HETATM    8  C11 UNK     1      20.361  -4.649  37.488  1.00  0.00     0.159 A 
HETATM    9  O1  UNK     1      20.582  -5.484  38.558  1.00  0.00    -0.321 OA
HETATM   10  C2  UNK     1      20.333  -6.823  38.382  1.00  0.00     0.089 A 
HETATM   11  C1  UNK     1      19.870  -7.355  37.177  1.00  0.00     0.049 A 
HETATM   12  C6  UNK     1      20.561  -7.662  39.474  1.00  0.00     0.039 A 
HETATM   13  C4  UNK     1      19.634  -8.726  37.057  1.00  0.00     0.025 A 
HETATM   14  C5  UNK     1      19.636  -6.448  36.037  1.00  0.00     0.198 A 
HETATM   15  C3  UNK     1      19.863  -9.562  38.150  1.00  0.00    -0.061 A 
HETATM   16  C12 UNK     1      19.613 -11.028  38.030  1.00  0.00     0.048 C 
HETATM   17  C8  UNK     1      20.325  -9.032  39.355  1.00  0.00     0.009 A 
HETATM   18  O3  UNK     1      19.232  -6.859  34.958  1.00  0.00    -0.286 OA
ENDBRANCH   6   7
ENDBRANCH   2   5
BRANCH   3  19
HETATM   19  C14 UNK     1      20.286  -1.482  31.715  1.00  0.00     0.033 A 
HETATM   20  C18 UNK     1      20.811  -1.566  30.442  1.00  0.00     0.020 A 
HETATM   21  C15 UNK     1      20.451  -0.601  29.501  1.00  0.00     0.038 A 
HETATM   22  C13 UNK     1      19.573   0.424  29.852  1.00  0.00     0.068 A 
HETATM   23  C16 UNK     1      19.056   0.485  31.147  1.00  0.00     0.038 A 
HETATM   24  C19 UNK     1      19.417  -0.478  32.088  1.00  0.00     0.020 A 
BRANCH  22  25
HETATM   25  O2  UNK     1      19.222   1.365  28.934  1.00  0.00    -0.351 OA
BRANCH  25  26
HETATM   26  C9  UNK     1      18.157   2.248  29.285  1.00  0.00     0.175 C 
BRANCH  26  27
HETATM   27  C10 UNK     1      18.713   3.656  29.426  1.00  0.00     0.022 C 
HETATM   28  C20 UNK     1      18.778   4.096  30.877  1.00  0.00     0.007 C 
ENDBRANCH  26  27
ENDBRANCH  25  26
ENDBRANCH  22  25
ENDBRANCH   3  19
TORSDOF 6
ENDMDL
MODEL 2
REMARK VINA RESULT:      -8.7      6.044     10.326
REMARK  6 active torsions:
REMARK  status: ('A' for Active; 'I' for Inactive)
REMARK    1  A    between atoms: C13_19  and  O2_2 
REMARK    2  A    between atoms: C9_15  and  O2_2 
REMARK       I    between atoms: C21_27  and  N1_5 
REMARK    3  A    between atoms: N1_5  and  N2_6 
REMARK    4  A    between atoms: C17_23  and  C7_13 
REMARK    5  A    between atoms: C10_16  and  C9_15 
REMARK    6  A    between atoms: C14_20  and  C21_27 
ROOT
HETATM    1  O4  UNK     1      19.628   6.813  32.620  1.00  0.00    -0.266 OA
HETATM    2  N1  UNK     1      17.669   5.800  31.917  1.00  0.00    -0.243 N 
HETATM    3  C21 UNK     1      18.401   6.765  32.581  1.00  0.00     0.271 C 
HETATM    4  H20 UNK     1      16.656   5.740  31.940  1.00  0.00     0.192 HD
ENDROOT
BRANCH   2   5
HETATM    5  N2  UNK     1      18.334   4.827  31.251  1.00  0.00    -0.183 NA
HETATM    6  C17 UNK     1      17.942   3.629  31.539  1.00  0.00     0.156 C 
BRANCH   6   7
HETATM    7  C7  UNK     1      18.536   2.439  30.927  1.00  0.00     0.056 A 
HETATM    8  C11 UNK     1      18.740   2.452  29.605  1.00  0.00     0.159 A 
HETATM    9  O1  UNK     1      19.285   1.432  28.860  1.00  0.00    -0.321 OA
HETATM   10  C2  UNK     1      19.656   0.288  29.523  1.00  0.00     0.089 A 
HETATM   11  C1  UNK     1      19.503   0.129  30.901  1.00  0.00     0.049 A 
HETATM   12  C6  UNK     1      20.207  -0.742  28.758  1.00  0.00     0.039 A 
HETATM   13  C4  UNK     1      19.900  -1.057  31.522  1.00  0.00     0.025 A 
HETATM   14  C5  UNK     1      18.919   1.231  31.689  1.00  0.00     0.198 A 
HETATM   15  C3  UNK     1      20.451  -2.085  30.754  1.00  0.00    -0.061 A 
HETATM   16  C12 UNK     1      20.877  -3.356  31.409  1.00  0.00     0.048 C 
HETATM   17  C8  UNK     1      20.604  -1.927  29.376  1.00  0.00     0.009 A 
HETATM   18  O3  UNK     1      18.762   1.147  32.900  1.00  0.00    -0.286 OA
ENDBRANCH   6   7
ENDBRANCH   2   5
BRANCH   3  19
HETATM   19  C14 UNK     1      17.610   7.791  33.310  1.00  0.00     0.033 A 
HETATM   20  C18 UNK     1      16.353   7.459  33.771  1.00  0.00     0.020 A 
HETATM   21  C15 UNK     1      15.610   8.423  34.452  1.00  0.00     0.038 A 
HETATM   22  C13 UNK     1      16.140   9.696  34.659  1.00  0.00     0.068 A 
HETATM   23  C16 UNK     1      17.415  10.005  34.183  1.00  0.00     0.038 A 
HETATM   24  C19 UNK     1      18.158   9.043  33.501  1.00  0.00     0.020 A 
BRANCH  22  25
HETATM   25  O2  UNK     1      15.415  10.636  35.323  1.00  0.00    -0.351 OA
BRANCH  25  26
HETATM   26  C9  UNK     1      14.054  10.805  34.928  1.00  0.00     0.175 C 
BRANCH  26  27
HETATM   27  C10 UNK     1      14.019  11.438  33.546  1.00  0.00     0.022 C 
HETATM   28  C20 UNK     1      12.669  11.258  32.877  1.00  0.00     0.007 C 
ENDBRANCH  26  27
ENDBRANCH  25  26
ENDBRANCH  22  25
ENDBRANCH   3  19
TORSDOF 6
ENDMDL
MODEL 3
REMARK VINA RESULT:      -8.7      2.534     10.924
REMARK  6 active torsions:
REMARK  status: ('A' for Active; 'I' for Inactive)
REMARK    1  A    between atoms: C13_19  and  O2_2 
REMARK    2  A    between atoms: C9_15  and  O2_2 
REMARK       I    between atoms: C21_27  and  N1_5 
REMARK    3  A    between atoms: N1_5  and  N2_6 
REMARK    4  A    between atoms: C17_23  and  C7_13 
REMARK    5  A    between atoms: C10_16  and  C9_15 
REMARK    6  A    between atoms: C14_20  and  C21_27 
ROOT
HETATM    1  O4  UNK     1      20.418  -3.844  34.712  1.00  0.00    -0.266 OA
HETATM    2  N1  UNK     1      19.704  -2.460  36.424  1.00  0.00    -0.243 N 
HETATM    3  C21 UNK     1      20.042  -3.679  35.870  1.00  0.00     0.271 C 
HETATM    4  H20 UNK     1      19.340  -2.344  37.365  1.00  0.00     0.192 HD
ENDROOT
BRANCH   2   5
HETATM    5  N2  UNK     1      19.788  -1.351  35.651  1.00  0.00    -0.183 NA
HETATM    6  C17 UNK     1      18.652  -0.947  35.184  1.00  0.00     0.156 C 
BRANCH   6   7
HETATM    7  C7  UNK     1      18.531   0.233  34.327  1.00  0.00     0.056 A 
HETATM    8  C11 UNK     1      18.532   0.047  33.002  1.00  0.00     0.159 A 
HETATM    9  O1  UNK     1      18.428   1.030  32.046  1.00  0.00    -0.321 OA
HETATM   10  C2  UNK     1      18.311   2.328  32.478  1.00  0.00     0.089 A 
HETATM   11  C1  UNK     1      18.294   2.677  33.830  1.00  0.00     0.049 A 
HETATM   12  C6  UNK     1      18.206   3.319  31.500  1.00  0.00     0.039 A 
HETATM   13  C4  UNK     1      18.172   4.015  34.211  1.00  0.00     0.025 A 
HETATM   14  C5  UNK     1      18.406   1.613  34.845  1.00  0.00     0.198 A 
HETATM   15  C3  UNK     1      18.067   5.003  33.230  1.00  0.00    -0.061 A 
HETATM   16  C12 UNK     1      17.937   6.435  33.628  1.00  0.00     0.048 C 
HETATM   17  C8  UNK     1      18.084   4.656  31.879  1.00  0.00     0.009 A 
HETATM   18  O3  UNK     1      18.397   1.860  36.044  1.00  0.00    -0.286 OA
ENDBRANCH   6   7
ENDBRANCH   2   5
BRANCH   3  19
HETATM   19  C14 UNK     1      19.906  -4.857  36.766  1.00  0.00     0.033 A 
HETATM   20  C18 UNK     1      18.848  -5.721  36.575  1.00  0.00     0.020 A 
HETATM   21  C15 UNK     1      18.720  -6.825  37.418  1.00  0.00     0.038 A 
HETATM   22  C13 UNK     1      19.653  -7.042  38.431  1.00  0.00     0.068 A 
HETATM   23  C16 UNK     1      20.715  -6.153  38.602  1.00  0.00     0.038 A 
HETATM   24  C19 UNK     1      20.843  -5.049  37.761  1.00  0.00     0.020 A 
BRANCH  22  25
HETATM   25  O2  UNK     1      19.528  -8.119  39.253  1.00  0.00    -0.351 OA
BRANCH  25  26
HETATM   26  C9  UNK     1      20.670  -8.962  39.397  1.00  0.00     0.175 C 
BRANCH  26  27
HETATM   27  C10 UNK     1      20.731  -9.912  38.211  1.00  0.00     0.022 C 
HETATM   28  C20 UNK     1      19.453 -10.718  38.067  1.00  0.00     0.007 C 
ENDBRANCH  26  27
ENDBRANCH  25  26
ENDBRANCH  22  25
ENDBRANCH   3  19
TORSDOF 6
ENDMDL
MODEL 4
REMARK VINA RESULT:      -8.6      2.809     10.590
REMARK  6 active torsions:
REMARK  status: ('A' for Active; 'I' for Inactive)
REMARK    1  A    between atoms: C13_19  and  O2_2 
REMARK    2  A    between atoms: C9_15  and  O2_2 
REMARK       I    between atoms: C21_27  and  N1_5 
REMARK    3  A    between atoms: N1_5  and  N2_6 
REMARK    4  A    between atoms: C17_23  and  C7_13 
REMARK    5  A    between atoms: C10_16  and  C9_15 
REMARK    6  A    between atoms: C14_20  and  C21_27 
ROOT
HETATM    1  O4  UNK     1      21.291  -4.034  36.862  1.00  0.00    -0.266 OA
HETATM    2  N1  UNK     1      19.026  -3.585  36.689  1.00  0.00    -0.243 N 
HETATM    3  C21 UNK     1      20.119  -4.391  36.950  1.00  0.00     0.271 C 
HETATM    4  H20 UNK     1      18.064  -3.908  36.711  1.00  0.00     0.192 HD
ENDROOT
BRANCH   2   5
HETATM    5  N2  UNK     1      19.243  -2.304  36.309  1.00  0.00    -0.183 NA
HETATM    6  C17 UNK     1      18.204  -1.720  35.806  1.00  0.00     0.156 C 
BRANCH   6   7
HETATM    7  C7  UNK     1      18.232  -0.335  35.335  1.00  0.00     0.056 A 
HETATM    8  C11 UNK     1      18.217   0.639  36.252  1.00  0.00     0.159 A 
HETATM    9  O1  UNK     1      18.238   1.990  35.999  1.00  0.00    -0.321 OA
HETATM   10  C2  UNK     1      18.279   2.391  34.686  1.00  0.00     0.089 A 
HETATM   11  C1  UNK     1      18.299   1.489  33.620  1.00  0.00     0.049 A 
HETATM   12  C6  UNK     1      18.300   3.764  34.439  1.00  0.00     0.039 A 
HETATM   13  C4  UNK     1      18.340   1.955  32.304  1.00  0.00     0.025 A 
HETATM   14  C5  UNK     1      18.276   0.042  33.905  1.00  0.00     0.198 A 
HETATM   15  C3  UNK     1      18.361   3.329  32.061  1.00  0.00    -0.061 A 
HETATM   16  C12 UNK     1      18.405   3.835  30.658  1.00  0.00     0.048 C 
HETATM   17  C8  UNK     1      18.341   4.231  33.125  1.00  0.00     0.009 A 
HETATM   18  O3  UNK     1      18.292  -0.793  33.011  1.00  0.00    -0.286 OA
ENDBRANCH   6   7
ENDBRANCH   2   5
BRANCH   3  19
HETATM   19  C14 UNK     1      19.811  -5.791  37.341  1.00  0.00     0.033 A 
HETATM   20  C18 UNK     1      20.348  -6.289  38.511  1.00  0.00     0.020 A 
HETATM   21  C15 UNK     1      20.061  -7.604  38.876  1.00  0.00     0.038 A 
HETATM   22  C13 UNK     1      19.243  -8.391  38.066  1.00  0.00     0.068 A 
HETATM   23  C16 UNK     1      18.712  -7.862  36.889  1.00  0.00     0.038 A 
HETATM   24  C19 UNK     1      18.999  -6.548  36.523  1.00  0.00     0.020 A 
BRANCH  22  25
HETATM   25  O2  UNK     1      18.963  -9.674  38.422  1.00  0.00    -0.351 OA
BRANCH  25  26
HETATM   26  C9  UNK     1      19.388 -10.703  37.529  1.00  0.00     0.175 C 
BRANCH  26  27
HETATM   27  C10 UNK     1      20.905 -10.670  37.427  1.00  0.00     0.022 C 
HETATM   28  C20 UNK     1      21.371 -10.485  35.995  1.00  0.00     0.007 C 
ENDBRANCH  26  27
ENDBRANCH  25  26
ENDBRANCH  22  25
ENDBRANCH   3  19
TORSDOF 6
ENDMDL
MODEL 5
REMARK VINA RESULT:      -8.5      2.607      3.161
REMARK  6 active torsions:
REMARK  status: ('A' for Active; 'I' for Inactive)
REMARK    1  A    between atoms: C13_19  and  O2_2 
REMARK    2  A    between atoms: C9_15  and  O2_2 
REMARK       I    between atoms: C21_27  and  N1_5 
REMARK    3  A    between atoms: N1_5  and  N2_6 
REMARK    4  A    between atoms: C17_23  and  C7_13 
REMARK    5  A    between atoms: C10_16  and  C9_15 
REMARK    6  A    between atoms: C14_20  and  C21_27 
ROOT
HETATM    1  O4  UNK     1      18.303  -0.562  37.434  1.00  0.00    -0.266 OA
HETATM    2  N1  UNK     1      18.937  -1.924  35.673  1.00  0.00    -0.243 N 
HETATM    3  C21 UNK     1      18.553  -0.725  36.242  1.00  0.00     0.271 C 
HETATM    4  H20 UNK     1      19.086  -2.058  34.677  1.00  0.00     0.192 HD
ENDROOT
BRANCH   2   5
HETATM    5  N2  UNK     1      19.053  -3.012  36.470  1.00  0.00    -0.183 NA
HETATM    6  C17 UNK     1      20.172  -3.646  36.336  1.00  0.00     0.156 C 
BRANCH   6   7
HETATM    7  C7  UNK     1      20.491  -4.848  37.107  1.00  0.00     0.056 A 
HETATM    8  C11 UNK     1      21.566  -4.815  37.902  1.00  0.00     0.159 A 
HETATM    9  O1  UNK     1      22.018  -5.842  38.697  1.00  0.00    -0.321 OA
HETATM   10  C2  UNK     1      21.309  -7.018  38.683  1.00  0.00     0.089 A 
HETATM   11  C1  UNK     1      20.165  -7.201  37.902  1.00  0.00     0.049 A 
HETATM   12  C6  UNK     1      21.775  -8.055  39.492  1.00  0.00     0.039 A 
HETATM   13  C4  UNK     1      19.483  -8.420  37.928  1.00  0.00     0.025 A 
HETATM   14  C5  UNK     1      19.690  -6.091  37.055  1.00  0.00     0.198 A 
HETATM   15  C3  UNK     1      19.953  -9.454  38.739  1.00  0.00    -0.061 A 
HETATM   16  C12 UNK     1      19.230 -10.760  38.772  1.00  0.00     0.048 C 
HETATM   17  C8  UNK     1      21.095  -9.272  39.518  1.00  0.00     0.009 A 
HETATM   18  O3  UNK     1      18.695  -6.196  36.352  1.00  0.00    -0.286 OA
ENDBRANCH   6   7
ENDBRANCH   2   5
BRANCH   3  19
HETATM   19  C14 UNK     1      18.424   0.424  35.308  1.00  0.00     0.033 A 
HETATM   20  C18 UNK     1      18.305   0.173  33.957  1.00  0.00     0.020 A 
HETATM   21  C15 UNK     1      18.186   1.251  33.080  1.00  0.00     0.038 A 
HETATM   22  C13 UNK     1      18.186   2.555  33.574  1.00  0.00     0.068 A 
HETATM   23  C16 UNK     1      18.307   2.781  34.945  1.00  0.00     0.038 A 
HETATM   24  C19 UNK     1      18.427   1.704  35.822  1.00  0.00     0.020 A 
BRANCH  22  25
HETATM   25  O2  UNK     1      18.071   3.608  32.719  1.00  0.00    -0.351 OA
BRANCH  25  26
HETATM   26  C9  UNK     1      18.288   4.910  33.259  1.00  0.00     0.175 C 
BRANCH  26  27
HETATM   27  C10 UNK     1      19.128   5.715  32.280  1.00  0.00     0.022 C 
HETATM   28  C20 UNK     1      19.223   5.036  30.926  1.00  0.00     0.007 C 
ENDBRANCH  26  27
ENDBRANCH  25  26
ENDBRANCH  22  25
ENDBRANCH   3  19
TORSDOF 6
ENDMDL
MODEL 6
REMARK VINA RESULT:      -8.4      2.674      3.410
REMARK  6 active torsions:
REMARK  status: ('A' for Active; 'I' for Inactive)
REMARK    1  A    between atoms: C13_19  and  O2_2 
REMARK    2  A    between atoms: C9_15  and  O2_2 
REMARK       I    between atoms: C21_27  and  N1_5 
REMARK    3  A    between atoms: N1_5  and  N2_6 
REMARK    4  A    between atoms: C17_23  and  C7_13 
REMARK    5  A    between atoms: C10_16  and  C9_15 
REMARK    6  A    between atoms: C14_20  and  C21_27 
ROOT
HETATM    1  O4  UNK     1      18.550  -1.471  37.031  1.00  0.00    -0.266 OA
HETATM    2  N1  UNK     1      20.122  -1.970  35.406  1.00  0.00    -0.243 N 
HETATM    3  C21 UNK     1      19.144  -1.190  35.992  1.00  0.00     0.271 C 
HETATM    4  H20 UNK     1      20.564  -1.755  34.518  1.00  0.00     0.192 HD
ENDROOT
BRANCH   2   5
HETATM    5  N2  UNK     1      20.467  -3.134  36.006  1.00  0.00    -0.183 NA
HETATM    6  C17 UNK     1      19.795  -4.159  35.595  1.00  0.00     0.156 C 
BRANCH   6   7
HETATM    7  C7  UNK     1      20.017  -5.507  36.120  1.00  0.00     0.056 A 
HETATM    8  C11 UNK     1      19.749  -5.728  37.412  1.00  0.00     0.159 A 
HETATM    9  O1  UNK     1      19.896  -6.922  38.077  1.00  0.00    -0.321 OA
HETATM   10  C2  UNK     1      20.360  -7.997  37.360  1.00  0.00     0.089 A 
HETATM   11  C1  UNK     1      20.683  -7.919  36.003  1.00  0.00     0.049 A 
HETATM   12  C6  UNK     1      20.506  -9.205  38.043  1.00  0.00     0.039 A 
HETATM   13  C4  UNK     1      21.151  -9.046  35.325  1.00  0.00     0.025 A 
HETATM   14  C5  UNK     1      20.520  -6.632  35.302  1.00  0.00     0.198 A 
HETATM   15  C3  UNK     1      21.295 -10.252  36.011  1.00  0.00    -0.061 A 
HETATM   16  C12 UNK     1      21.796 -11.461  35.294  1.00  0.00     0.048 C 
HETATM   17  C8  UNK     1      20.974 -10.332  37.367  1.00  0.00     0.009 A 
HETATM   18  O3  UNK     1      20.787  -6.505  34.114  1.00  0.00    -0.286 OA
ENDBRANCH   6   7
ENDBRANCH   2   5
BRANCH   3  19
HETATM   19  C14 UNK     1      18.797   0.062  35.271  1.00  0.00     0.033 A 
HETATM   20  C18 UNK     1      18.803   1.255  35.966  1.00  0.00     0.020 A 
HETATM   21  C15 UNK     1      18.475   2.430  35.289  1.00  0.00     0.038 A 
HETATM   22  C13 UNK     1      18.151   2.387  33.933  1.00  0.00     0.068 A 
HETATM   23  C16 UNK     1      18.154   1.168  33.254  1.00  0.00     0.038 A 
HETATM   24  C19 UNK     1      18.480  -0.007  33.931  1.00  0.00     0.020 A 
BRANCH  22  25
HETATM   25  O2  UNK     1      17.831   3.533  33.273  1.00  0.00    -0.351 OA
BRANCH  25  26
HETATM   26  C9  UNK     1      18.502   4.725  33.680  1.00  0.00     0.175 C 
BRANCH  26  27
HETATM   27  C10 UNK     1      18.532   5.695  32.509  1.00  0.00     0.022 C 
HETATM   28  C20 UNK     1      19.828   6.485  32.464  1.00  0.00     0.007 C 
ENDBRANCH  26  27
ENDBRANCH  25  26
ENDBRANCH  22  25
ENDBRANCH   3  19
TORSDOF 6
ENDMDL
MODEL 7
REMARK VINA RESULT:      -8.2      3.766     10.484
REMARK  6 active torsions:
REMARK  status: ('A' for Active; 'I' for Inactive)
REMARK    1  A    between atoms: C13_19  and  O2_2 
REMARK    2  A    between atoms: C9_15  and  O2_2 
REMARK       I    between atoms: C21_27  and  N1_5 
REMARK    3  A    between atoms: N1_5  and  N2_6 
REMARK    4  A    between atoms: C17_23  and  C7_13 
REMARK    5  A    between atoms: C10_16  and  C9_15 
REMARK    6  A    between atoms: C14_20  and  C21_27 
ROOT
HETATM    1  O4  UNK     1      18.299  -7.603  36.758  1.00  0.00    -0.266 OA
HETATM    2  N1  UNK     1      20.100  -6.224  36.293  1.00  0.00    -0.243 N 
HETATM    3  C21 UNK     1      19.483  -7.448  36.470  1.00  0.00     0.271 C 
HETATM    4  H20 UNK     1      21.092  -6.109  36.111  1.00  0.00     0.192 HD
ENDROOT
BRANCH   2   5
HETATM    5  N2  UNK     1      19.361  -5.099  36.444  1.00  0.00    -0.183 NA
HETATM    6  C17 UNK     1      20.055  -4.008  36.435  1.00  0.00     0.156 C 
BRANCH   6   7
HETATM    7  C7  UNK     1      19.443  -2.687  36.584  1.00  0.00     0.056 A 
HETATM    8  C11 UNK     1      18.804  -2.419  37.728  1.00  0.00     0.159 A 
HETATM    9  O1  UNK     1      18.172  -1.239  38.046  1.00  0.00    -0.321 OA
HETATM   10  C2  UNK     1      18.193  -0.234  37.110  1.00  0.00     0.089 A 
HETATM   11  C1  UNK     1      18.822  -0.368  35.870  1.00  0.00     0.049 A 
HETATM   12  C6  UNK     1      17.549   0.959  37.441  1.00  0.00     0.039 A 
HETATM   13  C4  UNK     1      18.810   0.689  34.958  1.00  0.00     0.025 A 
HETATM   14  C5  UNK     1      19.496  -1.638  35.543  1.00  0.00     0.198 A 
HETATM   15  C3  UNK     1      18.166   1.881  35.292  1.00  0.00    -0.061 A 
HETATM   16  C12 UNK     1      18.149   3.014  34.322  1.00  0.00     0.048 C 
HETATM   17  C8  UNK     1      17.537   2.015  36.530  1.00  0.00     0.009 A 
HETATM   18  O3  UNK     1      20.063  -1.811  34.472  1.00  0.00    -0.286 OA
ENDBRANCH   6   7
ENDBRANCH   2   5
BRANCH   3  19
HETATM   19  C14 UNK     1      20.355  -8.641  36.312  1.00  0.00     0.033 A 
HETATM   20  C18 UNK     1      20.337  -9.614  37.289  1.00  0.00     0.020 A 
HETATM   21  C15 UNK     1      21.158 -10.732  37.141  1.00  0.00     0.038 A 
HETATM   22  C13 UNK     1      21.977 -10.854  36.019  1.00  0.00     0.068 A 
HETATM   23  C16 UNK     1      21.975  -9.855  35.045  1.00  0.00     0.038 A 
HETATM   24  C19 UNK     1      21.156  -8.737  35.192  1.00  0.00     0.020 A 
BRANCH  22  25
HETATM   25  O2  UNK     1      22.778 -11.944  35.875  1.00  0.00    -0.351 OA
BRANCH  25  26
HETATM   26  C9  UNK     1      24.173 -11.705  35.693  1.00  0.00     0.175 C 
BRANCH  26  27
HETATM   27  C10 UNK     1      24.956 -12.704  36.531  1.00  0.00     0.022 C 
HETATM   28  C20 UNK     1      24.618 -14.137  36.163  1.00  0.00     0.007 C 
ENDBRANCH  26  27
ENDBRANCH  25  26
ENDBRANCH  22  25
ENDBRANCH   3  19
TORSDOF 6
ENDMDL
MODEL 8
REMARK VINA RESULT:      -8.2      2.717      3.644
REMARK  6 active torsions:
REMARK  status: ('A' for Active; 'I' for Inactive)
REMARK    1  A    between atoms: C13_19  and  O2_2 
REMARK    2  A    between atoms: C9_15  and  O2_2 
REMARK       I    between atoms: C21_27  and  N1_5 
REMARK    3  A    between atoms: N1_5  and  N2_6 
REMARK    4  A    between atoms: C17_23  and  C7_13 
REMARK    5  A    between atoms: C10_16  and  C9_15 
REMARK    6  A    between atoms: C14_20  and  C21_27 
ROOT
HETATM    1  O4  UNK     1      17.969  -0.293  37.237  1.00  0.00    -0.266 OA
HETATM    2  N1  UNK     1      19.278  -1.491  35.750  1.00  0.00    -0.243 N 
HETATM    3  C21 UNK     1      18.539  -0.395  36.153  1.00  0.00     0.271 C 
HETATM    4  H20 UNK     1      19.696  -1.587  34.830  1.00  0.00     0.192 HD
ENDROOT
BRANCH   2   5
HETATM    5  N2  UNK     1      19.396  -2.540  36.598  1.00  0.00    -0.183 NA
HETATM    6  C17 UNK     1      19.483  -3.688  36.009  1.00  0.00     0.156 C 
BRANCH   6   7
HETATM    7  C7  UNK     1      19.616  -4.943  36.749  1.00  0.00     0.056 A 
HETATM    8  C11 UNK     1      18.601  -5.813  36.695  1.00  0.00     0.159 A 
HETATM    9  O1  UNK     1      18.547  -7.035  37.323  1.00  0.00    -0.321 OA
HETATM   10  C2  UNK     1      19.631  -7.411  38.078  1.00  0.00     0.089 A 
HETATM   11  C1  UNK     1      20.764  -6.608  38.227  1.00  0.00     0.049 A 
HETATM   12  C6  UNK     1      19.568  -8.653  38.711  1.00  0.00     0.039 A 
HETATM   13  C4  UNK     1      21.837  -7.043  39.008  1.00  0.00     0.025 A 
HETATM   14  C5  UNK     1      20.809  -5.299  37.548  1.00  0.00     0.198 A 
HETATM   15  C3  UNK     1      21.770  -8.286  39.639  1.00  0.00    -0.061 A 
HETATM   16  C12 UNK     1      22.912  -8.757  40.476  1.00  0.00     0.048 C 
HETATM   17  C8  UNK     1      20.639  -9.088  39.491  1.00  0.00     0.009 A 
HETATM   18  O3  UNK     1      21.775  -4.555  37.644  1.00  0.00    -0.286 OA
ENDBRANCH   6   7
ENDBRANCH   2   5
BRANCH   3  19
HETATM   19  C14 UNK     1      18.431   0.710  35.166  1.00  0.00     0.033 A 
HETATM   20  C18 UNK     1      18.436   2.013  35.622  1.00  0.00     0.020 A 
HETATM   21  C15 UNK     1      18.332   3.050  34.695  1.00  0.00     0.038 A 
HETATM   22  C13 UNK     1      18.227   2.763  33.335  1.00  0.00     0.068 A 
HETATM   23  C16 UNK     1      18.225   1.437  32.900  1.00  0.00     0.038 A 
HETATM   24  C19 UNK     1      18.328   0.400  33.826  1.00  0.00     0.020 A 
BRANCH  22  25
HETATM   25  O2  UNK     1      18.126   3.775  32.431  1.00  0.00    -0.351 OA
BRANCH  25  26
HETATM   26  C9  UNK     1      18.157   5.107  32.942  1.00  0.00     0.175 C 
BRANCH  26  27
HETATM   27  C10 UNK     1      19.405   5.804  32.422  1.00  0.00     0.022 C 
HETATM   28  C20 UNK     1      19.333   6.051  30.926  1.00  0.00     0.007 C 
ENDBRANCH  26  27
ENDBRANCH  25  26
ENDBRANCH  22  25
ENDBRANCH   3  19
TORSDOF 6
ENDMDL
MODEL 9
REMARK VINA RESULT:      -8.2      7.245     10.420
REMARK  6 active torsions:
REMARK  status: ('A' for Active; 'I' for Inactive)
REMARK    1  A    between atoms: C13_19  and  O2_2 
REMARK    2  A    between atoms: C9_15  and  O2_2 
REMARK       I    between atoms: C21_27  and  N1_5 
REMARK    3  A    between atoms: N1_5  and  N2_6 
REMARK    4  A    between atoms: C17_23  and  C7_13 
REMARK    5  A    between atoms: C10_16  and  C9_15 
REMARK    6  A    between atoms: C14_20  and  C21_27 
ROOT
HETATM    1  O4  UNK     1      23.956  -5.798  39.057  1.00  0.00    -0.266 OA
HETATM    2  N1  UNK     1      24.039  -8.095  38.788  1.00  0.00    -0.243 N 
HETATM    3  C21 UNK     1      23.404  -6.868  38.813  1.00  0.00     0.271 C 
HETATM    4  H20 UNK     1      23.561  -8.979  38.641  1.00  0.00     0.192 HD
ENDROOT
BRANCH   2   5
HETATM    5  N2  UNK     1      25.368  -8.142  39.047  1.00  0.00    -0.183 NA
HETATM    6  C17 UNK     1      26.110  -8.162  37.988  1.00  0.00     0.156 C 
BRANCH   6   7
HETATM    7  C7  UNK     1      27.571  -8.213  38.053  1.00  0.00     0.056 A 
HETATM    8  C11 UNK     1      28.154  -9.417  38.096  1.00  0.00     0.159 A 
HETATM    9  O1  UNK     1      29.506  -9.660  38.159  1.00  0.00    -0.321 OA
HETATM   10  C2  UNK     1      30.347  -8.575  38.182  1.00  0.00     0.089 A 
HETATM   11  C1  UNK     1      29.885  -7.258  38.143  1.00  0.00     0.049 A 
HETATM   12  C6  UNK     1      31.717  -8.832  38.246  1.00  0.00     0.039 A 
HETATM   13  C4  UNK     1      30.788  -6.193  38.169  1.00  0.00     0.025 A 
HETATM   14  C5  UNK     1      28.432  -7.011  38.074  1.00  0.00     0.198 A 
HETATM   15  C3  UNK     1      32.157  -6.454  38.233  1.00  0.00    -0.061 A 
HETATM   16  C12 UNK     1      33.129  -5.322  38.261  1.00  0.00     0.048 C 
HETATM   17  C8  UNK     1      32.621  -7.770  38.272  1.00  0.00     0.009 A 
HETATM   18  O3  UNK     1      27.971  -5.878  38.039  1.00  0.00    -0.286 OA
ENDBRANCH   6   7
ENDBRANCH   2   5
BRANCH   3  19
HETATM   19  C14 UNK     1      21.943  -6.890  38.543  1.00  0.00     0.033 A 
HETATM   20  C18 UNK     1      21.203  -7.973  38.967  1.00  0.00     0.020 A 
HETATM   21  C15 UNK     1      19.832  -7.994  38.711  1.00  0.00     0.038 A 
HETATM   22  C13 UNK     1      19.232  -6.931  38.038  1.00  0.00     0.068 A 
HETATM   23  C16 UNK     1      20.003  -5.846  37.620  1.00  0.00     0.038 A 
HETATM   24  C19 UNK     1      21.374  -5.825  37.875  1.00  0.00     0.020 A 
BRANCH  22  25
HETATM   25  O2  UNK     1      17.894  -6.951  37.788  1.00  0.00    -0.351 OA
BRANCH  25  26
HETATM   26  C9  UNK     1      17.451  -6.333  36.580  1.00  0.00     0.175 C 
BRANCH  26  27
HETATM   27  C10 UNK     1      17.384  -7.386  35.485  1.00  0.00     0.022 C 
HETATM   28  C20 UNK     1      16.030  -7.403  34.799  1.00  0.00     0.007 C 
ENDBRANCH  26  27
ENDBRANCH  25  26
ENDBRANCH  22  25
ENDBRANCH   3  19
TORSDOF 6
ENDMDL
MODEL 10
REMARK VINA RESULT:      -8.0      8.738     15.234
REMARK  6 active torsions:
REMARK  status: ('A' for Active; 'I' for Inactive)
REMARK    1  A    between atoms: C13_19  and  O2_2 
REMARK    2  A    between atoms: C9_15  and  O2_2 
REMARK       I    between atoms: C21_27  and  N1_5 
REMARK    3  A    between atoms: N1_5  and  N2_6 
REMARK    4  A    between atoms: C17_23  and  C7_13 
REMARK    5  A    between atoms: C10_16  and  C9_15 
REMARK    6  A    between atoms: C14_20  and  C21_27 
ROOT
HETATM    1  O4  UNK     1      18.323   7.904  33.198  1.00  0.00    -0.266 OA
HETATM    2  N1  UNK     1      16.381   7.906  31.939  1.00  0.00    -0.243 N 
HETATM    3  C21 UNK     1      17.593   7.389  32.355  1.00  0.00     0.271 C 
HETATM    4  H20 UNK     1      15.814   7.500  31.201  1.00  0.00     0.192 HD
ENDROOT
BRANCH   2   5
HETATM    5  N2  UNK     1      15.947   9.064  32.490  1.00  0.00    -0.183 NA
HETATM    6  C17 UNK     1      14.787   8.977  33.055  1.00  0.00     0.156 C 
BRANCH   6   7
HETATM    7  C7  UNK     1      14.143  10.117  33.707  1.00  0.00     0.056 A 
HETATM    8  C11 UNK     1      13.195  10.774  33.029  1.00  0.00     0.159 A 
HETATM    9  O1  UNK     1      12.485  11.863  33.477  1.00  0.00    -0.321 OA
HETATM   10  C2  UNK     1      12.765  12.330  34.738  1.00  0.00     0.089 A 
HETATM   11  C1  UNK     1      13.728  11.747  35.564  1.00  0.00     0.049 A 
HETATM   12  C6  UNK     1      12.039  13.436  35.183  1.00  0.00     0.039 A 
HETATM   13  C4  UNK     1      13.970  12.265  36.838  1.00  0.00     0.025 A 
HETATM   14  C5  UNK     1      14.482  10.579  35.071  1.00  0.00     0.198 A 
HETATM   15  C3  UNK     1      13.242  13.371  37.281  1.00  0.00    -0.061 A 
HETATM   16  C12 UNK     1      13.494  13.931  38.640  1.00  0.00     0.048 C 
HETATM   17  C8  UNK     1      12.280  13.954  36.456  1.00  0.00     0.009 A 
HETATM   18  O3  UNK     1      15.337  10.029  35.752  1.00  0.00    -0.286 OA
ENDBRANCH   6   7
ENDBRANCH   2   5
BRANCH   3  19
HETATM   19  C14 UNK     1      18.020   6.128  31.695  1.00  0.00     0.033 A 
HETATM   20  C18 UNK     1      18.710   6.200  30.503  1.00  0.00     0.020 A 
HETATM   21  C15 UNK     1      19.109   5.016  29.882  1.00  0.00     0.038 A 
HETATM   22  C13 UNK     1      18.810   3.787  30.468  1.00  0.00     0.068 A 
HETATM   23  C16 UNK     1      18.111   3.741  31.675  1.00  0.00     0.038 A 
HETATM   24  C19 UNK     1      17.711   4.924  32.295  1.00  0.00     0.020 A 
BRANCH  22  25
HETATM   25  O2  UNK     1      19.198   2.632  29.863  1.00  0.00    -0.351 OA
BRANCH  25  26
HETATM   26  C9  UNK     1      18.245   1.992  29.014  1.00  0.00     0.175 C 
BRANCH  26  27
HETATM   27  C10 UNK     1      18.799   0.643  28.583  1.00  0.00     0.022 C 
HETATM   28  C20 UNK     1      20.052   0.273  29.356  1.00  0.00     0.007 C 
ENDBRANCH  26  27
ENDBRANCH  25  26
ENDBRANCH  22  25
ENDBRANCH   3  19
TORSDOF 6
ENDMDL
