MODEL 1
REMARK VINA RESULT:      -8.9      0.000      0.000
REMARK  10 active torsions:
REMARK  status: ('A' for Active; 'I' for Inactive)
REMARK    1  A    between atoms: C12_18  and  O1_1 
REMARK    2  A    between atoms: C16_22  and  O1_1 
REMARK    3  A    between atoms: C13_19  and  O2_2 
REMARK    4  A    between atoms: C21_27  and  O2_2 
REMARK    5  A    between atoms: C20_26  and  O4_4 
REMARK    6  A    between atoms: C25_31  and  O4_4 
REMARK    7  A    between atoms: C1_7  and  C2_8 
REMARK    8  A    between atoms: C6_12  and  C9_15 
REMARK    9  A    between atoms: C13_19  and  C9_15 
REMARK   10  A    between atoms: C21_27  and  C25_31 
ROOT
HETATM    1  O3  UNK     1      19.795  -1.947  34.699  1.00  0.00    -0.319 OA
HETATM    2  O5  UNK     1      18.439  -1.364  38.506  1.00  0.00    -0.284 OA
HETATM    3  C16 UNK     1      19.746  -2.652  37.012  1.00  0.00     0.149 A 
HETATM    4  C17 UNK     1      18.459  -0.640  36.254  1.00  0.00     0.051 A 
HETATM    5  C18 UNK     1      18.957  -0.894  34.975  1.00  0.00     0.092 A 
HETATM    6  C19 UNK     1      18.843  -1.533  37.363  1.00  0.00     0.220 A 
HETATM    7  C20 UNK     1      17.758   1.023  34.131  1.00  0.00     0.072 A 
HETATM    8  C22 UNK     1      18.608  -0.063  33.911  1.00  0.00     0.075 A 
HETATM    9  C23 UNK     1      20.143  -2.772  35.741  1.00  0.00     0.184 A 
HETATM   10  C24 UNK     1      17.609   0.446  36.477  1.00  0.00     0.021 A 
HETATM   11  C26 UNK     1      17.262   1.276  35.411  1.00  0.00     0.038 A 
ENDROOT
BRANCH   3  12
HETATM   12  O1  UNK     1      20.149  -3.531  37.989  1.00  0.00    -0.305 OA
BRANCH  12  13
HETATM   13  C12 UNK     1      20.431  -4.810  37.596  1.00  0.00     0.076 A 
HETATM   14  C10 UNK     1      21.592  -5.437  38.046  1.00  0.00     0.038 A 
HETATM   15  C7  UNK     1      21.880  -6.742  37.646  1.00  0.00     0.011 A 
HETATM   16  C2  UNK     1      21.007  -7.419  36.794  1.00  0.00    -0.050 A 
HETATM   17  C8  UNK     1      19.846  -6.791  36.343  1.00  0.00     0.011 A 
HETATM   18  C11 UNK     1      19.558  -5.487  36.744  1.00  0.00     0.038 A 
BRANCH  16  19
HETATM   19  C1  UNK     1      21.314  -8.814  36.365  1.00  0.00    -0.024 C 
HETATM   20  C3  UNK     1      22.708  -9.275  36.894  1.00  0.00     0.019 C 
HETATM   21  C4  UNK     1      21.338  -8.935  34.810  1.00  0.00     0.019 C 
HETATM   22  C5  UNK     1      20.303  -9.904  36.852  1.00  0.00     0.019 C 
ENDBRANCH  16  19
ENDBRANCH  12  13
ENDBRANCH   3  12
BRANCH   7  23
HETATM   23  O4  UNK     1      17.416   1.838  33.095  1.00  0.00    -0.341 OA
BRANCH  23  24
HETATM   24  C25 UNK     1      18.182   3.029  32.926  1.00  0.00     0.286 C 
BRANCH  24  25
HETATM   25  C21 UNK     1      18.316   3.316  31.454  1.00  0.00     0.283 C 
HETATM   26  O6  UNK     1      18.846   4.311  30.979  1.00  0.00    -0.263 OA
BRANCH  25  27
HETATM   27  O2  UNK     1      17.754   2.291  30.749  1.00  0.00    -0.320 OA
BRANCH  27  28
HETATM   28  C13 UNK     1      18.596   1.689  29.759  1.00  0.00     0.179 C 
BRANCH  28  29
HETATM   29  C9  UNK     1      19.607   0.790  30.459  1.00  0.00     0.031 C 
BRANCH  29  30
HETATM   30  C6  UNK     1      20.234  -0.270  29.540  1.00  0.00    -0.021 C 
HETATM   31  C14 UNK     1      19.415  -0.497  28.268  1.00  0.00     0.009 C 
HETATM   32  C15 UNK     1      20.388  -1.590  30.298  1.00  0.00     0.009 C 
ENDBRANCH  29  30
ENDBRANCH  28  29
ENDBRANCH  27  28
ENDBRANCH  25  27
ENDBRANCH  24  25
ENDBRANCH  23  24
ENDBRANCH   7  23
TORSDOF 10
ENDMDL
MODEL 2
REMARK VINA RESULT:      -8.8      1.641      3.175
REMARK  10 active torsions:
REMARK  status: ('A' for Active; 'I' for Inactive)
REMARK    1  A    between atoms: C12_18  and  O1_1 
REMARK    2  A    between atoms: C16_22  and  O1_1 
REMARK    3  A    between atoms: C13_19  and  O2_2 
REMARK    4  A    between atoms: C21_27  and  O2_2 
REMARK    5  A    between atoms: C20_26  and  O4_4 
REMARK    6  A    between atoms: C25_31  and  O4_4 
REMARK    7  A    between atoms: C1_7  and  C2_8 
REMARK    8  A    between atoms: C6_12  and  C9_15 
REMARK    9  A    between atoms: C13_19  and  C9_15 
REMARK   10  A    between atoms: C21_27  and  C25_31 
ROOT
HETATM    1  O3  UNK     1      20.527  -3.170  33.978  1.00  0.00    -0.319 OA
HETATM    2  O5  UNK     1      18.702  -1.333  37.134  1.00  0.00    -0.284 OA
HETATM    3  C16 UNK     1      20.056  -3.108  36.349  1.00  0.00     0.149 A 
HETATM    4  C17 UNK     1      19.138  -1.357  34.810  1.00  0.00     0.051 A 
HETATM    5  C18 UNK     1      19.786  -2.032  33.774  1.00  0.00     0.092 A 
HETATM    6  C19 UNK     1      19.247  -1.879  36.185  1.00  0.00     0.220 A 
HETATM    7  C20 UNK     1      18.956  -0.404  32.198  1.00  0.00     0.072 A 
HETATM    8  C22 UNK     1      19.696  -1.556  32.466  1.00  0.00     0.075 A 
HETATM    9  C23 UNK     1      20.619  -3.647  35.264  1.00  0.00     0.184 A 
HETATM   10  C24 UNK     1      18.396  -0.203  34.544  1.00  0.00     0.021 A 
HETATM   11  C26 UNK     1      18.309   0.271  33.235  1.00  0.00     0.038 A 
ENDROOT
BRANCH   3  12
HETATM   12  O1  UNK     1      20.206  -3.659  37.599  1.00  0.00    -0.305 OA
BRANCH  12  13
HETATM   13  C12 UNK     1      20.186  -5.024  37.683  1.00  0.00     0.076 A 
HETATM   14  C10 UNK     1      21.277  -5.704  38.223  1.00  0.00     0.038 A 
HETATM   15  C7  UNK     1      21.258  -7.097  38.308  1.00  0.00     0.011 A 
HETATM   16  C2  UNK     1      20.148  -7.808  37.853  1.00  0.00    -0.050 A 
HETATM   17  C8  UNK     1      19.057  -7.127  37.312  1.00  0.00     0.011 A 
HETATM   18  C11 UNK     1      19.076  -5.735  37.228  1.00  0.00     0.038 A 
BRANCH  16  19
HETATM   19  C1  UNK     1      20.126  -9.296  37.944  1.00  0.00    -0.024 C 
HETATM   20  C3  UNK     1      18.888  -9.890  37.204  1.00  0.00     0.019 C 
HETATM   21  C4  UNK     1      20.060  -9.772  39.429  1.00  0.00     0.019 C 
HETATM   22  C5  UNK     1      21.367 -10.025  37.330  1.00  0.00     0.019 C 
ENDBRANCH  16  19
ENDBRANCH  12  13
ENDBRANCH   3  12
BRANCH   7  23
HETATM   23  O4  UNK     1      18.867   0.064  30.922  1.00  0.00    -0.341 OA
BRANCH  23  24
HETATM   24  C25 UNK     1      19.111   1.455  30.723  1.00  0.00     0.286 C 
BRANCH  24  25
HETATM   25  C21 UNK     1      17.902   2.073  30.072  1.00  0.00     0.283 C 
HETATM   26  O6  UNK     1      17.475   1.778  28.964  1.00  0.00    -0.263 OA
BRANCH  25  27
HETATM   27  O2  UNK     1      17.370   3.004  30.916  1.00  0.00    -0.320 OA
BRANCH  27  28
HETATM   28  C13 UNK     1      18.309   3.677  31.763  1.00  0.00     0.179 C 
BRANCH  28  29
HETATM   29  C9  UNK     1      17.803   5.089  32.027  1.00  0.00     0.031 C 
BRANCH  29  30
HETATM   30  C6  UNK     1      18.754   6.190  31.533  1.00  0.00    -0.021 C 
HETATM   31  C14 UNK     1      19.683   5.702  30.420  1.00  0.00     0.009 C 
HETATM   32  C15 UNK     1      19.585   6.723  32.703  1.00  0.00     0.009 C 
ENDBRANCH  29  30
ENDBRANCH  28  29
ENDBRANCH  27  28
ENDBRANCH  25  27
ENDBRANCH  24  25
ENDBRANCH  23  24
ENDBRANCH   7  23
TORSDOF 10
ENDMDL
MODEL 3
REMARK VINA RESULT:      -8.7      2.060     10.175
REMARK  10 active torsions:
REMARK  status: ('A' for Active; 'I' for Inactive)
REMARK    1  A    between atoms: C12_18  and  O1_1 
REMARK    2  A    between atoms: C16_22  and  O1_1 
REMARK    3  A    between atoms: C13_19  and  O2_2 
REMARK    4  A    between atoms: C21_27  and  O2_2 
REMARK    5  A    between atoms: C20_26  and  O4_4 
REMARK    6  A    between atoms: C25_31  and  O4_4 
REMARK    7  A    between atoms: C1_7  and  C2_8 
REMARK    8  A    between atoms: C6_12  and  C9_15 
REMARK    9  A    between atoms: C13_19  and  C9_15 
REMARK   10  A    between atoms: C21_27  and  C25_31 
ROOT
HETATM    1  O3  UNK     1      19.622  -1.400  33.656  1.00  0.00    -0.319 OA
HETATM    2  O5  UNK     1      17.071   0.357  36.317  1.00  0.00    -0.284 OA
HETATM    3  C16 UNK     1      17.920   0.257  34.111  1.00  0.00     0.149 A 
HETATM    4  C17 UNK     1      18.734  -1.277  35.917  1.00  0.00     0.051 A 
HETATM    5  C18 UNK     1      19.583  -1.835  34.959  1.00  0.00     0.092 A 
HETATM    6  C19 UNK     1      17.837  -0.174  35.524  1.00  0.00     0.220 A 
HETATM    7  C20 UNK     1      20.444  -3.362  36.618  1.00  0.00     0.072 A 
HETATM    8  C22 UNK     1      20.439  -2.879  35.308  1.00  0.00     0.075 A 
HETATM    9  C23 UNK     1      18.783  -0.371  33.305  1.00  0.00     0.184 A 
HETATM   10  C24 UNK     1      18.737  -1.759  37.228  1.00  0.00     0.021 A 
HETATM   11  C26 UNK     1      19.594  -2.804  37.574  1.00  0.00     0.038 A 
ENDROOT
BRANCH   3  12
HETATM   12  O1  UNK     1      17.118   1.280  33.665  1.00  0.00    -0.305 OA
BRANCH  12  13
HETATM   13  C12 UNK     1      17.740   2.440  33.292  1.00  0.00     0.076 A 
HETATM   14  C10 UNK     1      17.955   2.711  31.941  1.00  0.00     0.038 A 
HETATM   15  C7  UNK     1      18.590   3.894  31.560  1.00  0.00     0.011 A 
HETATM   16  C2  UNK     1      19.008   4.804  32.530  1.00  0.00    -0.050 A 
HETATM   17  C8  UNK     1      18.793   4.532  33.881  1.00  0.00     0.011 A 
HETATM   18  C11 UNK     1      18.158   3.351  34.262  1.00  0.00     0.038 A 
BRANCH  16  19
HETATM   19  C1  UNK     1      19.687   6.069  32.124  1.00  0.00    -0.024 C 
HETATM   20  C3  UNK     1      18.852   7.318  32.543  1.00  0.00     0.019 C 
HETATM   21  C4  UNK     1      19.885   6.133  30.577  1.00  0.00     0.019 C 
HETATM   22  C5  UNK     1      21.109   6.294  32.734  1.00  0.00     0.019 C 
ENDBRANCH  16  19
ENDBRANCH  12  13
ENDBRANCH   3  12
BRANCH   7  23
HETATM   23  O4  UNK     1      21.278  -4.382  36.962  1.00  0.00    -0.341 OA
BRANCH  23  24
HETATM   24  C25 UNK     1      20.776  -5.348  37.884  1.00  0.00     0.286 C 
BRANCH  24  25
HETATM   25  C21 UNK     1      20.132  -6.469  37.111  1.00  0.00     0.283 C 
HETATM   26  O6  UNK     1      19.121  -7.067  37.455  1.00  0.00    -0.263 OA
BRANCH  25  27
HETATM   27  O2  UNK     1      20.858  -6.701  35.979  1.00  0.00    -0.320 OA
BRANCH  27  28
HETATM   28  C13 UNK     1      20.673  -7.989  35.381  1.00  0.00     0.179 C 
BRANCH  28  29
HETATM   29  C9  UNK     1      21.822  -8.894  35.807  1.00  0.00     0.031 C 
BRANCH  29  30
HETATM   30  C6  UNK     1      21.474 -10.391  35.780  1.00  0.00    -0.021 C 
HETATM   31  C14 UNK     1      20.628 -10.814  36.982  1.00  0.00     0.009 C 
HETATM   32  C15 UNK     1      22.759 -11.222  35.733  1.00  0.00     0.009 C 
ENDBRANCH  29  30
ENDBRANCH  28  29
ENDBRANCH  27  28
ENDBRANCH  25  27
ENDBRANCH  24  25
ENDBRANCH  23  24
ENDBRANCH   7  23
TORSDOF 10
ENDMDL
MODEL 4
REMARK VINA RESULT:      -8.6      4.904     11.703
REMARK  10 active torsions:
REMARK  status: ('A' for Active; 'I' for Inactive)
REMARK    1  A    between atoms: C12_18  and  O1_1 
REMARK    2  A    between atoms: C16_22  and  O1_1 
REMARK    3  A    between atoms: C13_19  and  O2_2 
REMARK    4  A    between atoms: C21_27  and  O2_2 
REMARK    5  A    between atoms: C20_26  and  O4_4 
REMARK    6  A    between atoms: C25_31  and  O4_4 
REMARK    7  A    between atoms: C1_7  and  C2_8 
REMARK    8  A    between atoms: C6_12  and  C9_15 
REMARK    9  A    between atoms: C13_19  and  C9_15 
REMARK   10  A    between atoms: C21_27  and  C25_31 
ROOT
HETATM    1  O3  UNK     1      18.193   3.812  33.747  1.00  0.00    -0.319 OA
HETATM    2  O5  UNK     1      19.594   7.047  31.687  1.00  0.00    -0.284 OA
HETATM    3  C16 UNK     1      18.945   6.110  33.761  1.00  0.00     0.149 A 
HETATM    4  C17 UNK     1      18.864   4.799  31.628  1.00  0.00     0.051 A 
HETATM    5  C18 UNK     1      18.387   3.730  32.390  1.00  0.00     0.092 A 
HETATM    6  C19 UNK     1      19.174   6.075  32.299  1.00  0.00     0.220 A 
HETATM    7  C20 UNK     1      18.264   2.370  30.399  1.00  0.00     0.072 A 
HETATM    8  C22 UNK     1      18.087   2.513  31.776  1.00  0.00     0.075 A 
HETATM    9  C23 UNK     1      18.484   5.008  34.359  1.00  0.00     0.184 A 
HETATM   10  C24 UNK     1      19.042   4.657  30.250  1.00  0.00     0.021 A 
HETATM   11  C26 UNK     1      18.742   3.440  29.639  1.00  0.00     0.038 A 
ENDROOT
BRANCH   3  12
HETATM   12  O1  UNK     1      19.209   7.264  34.461  1.00  0.00    -0.305 OA
BRANCH  12  13
HETATM   13  C12 UNK     1      18.251   8.239  34.437  1.00  0.00     0.076 A 
HETATM   14  C10 UNK     1      18.591   9.541  34.074  1.00  0.00     0.038 A 
HETATM   15  C7  UNK     1      17.614  10.536  34.049  1.00  0.00     0.011 A 
HETATM   16  C2  UNK     1      16.297  10.229  34.389  1.00  0.00    -0.050 A 
HETATM   17  C8  UNK     1      15.957   8.925  34.753  1.00  0.00     0.011 A 
HETATM   18  C11 UNK     1      16.933   7.931  34.776  1.00  0.00     0.038 A 
BRANCH  16  19
HETATM   19  C1  UNK     1      15.251  11.291  34.363  1.00  0.00    -0.024 C 
HETATM   20  C3  UNK     1      14.584  11.463  35.763  1.00  0.00     0.019 C 
HETATM   21  C4  UNK     1      14.121  10.949  33.343  1.00  0.00     0.019 C 
HETATM   22  C5  UNK     1      15.753  12.718  33.963  1.00  0.00     0.019 C 
ENDBRANCH  16  19
ENDBRANCH  12  13
ENDBRANCH   3  12
BRANCH   7  23
HETATM   23  O4  UNK     1      17.974   1.184  29.797  1.00  0.00    -0.341 OA
BRANCH  23  24
HETATM   24  C25 UNK     1      18.141   1.117  28.382  1.00  0.00     0.286 C 
BRANCH  24  25
HETATM   25  C21 UNK     1      19.024  -0.057  28.052  1.00  0.00     0.283 C 
HETATM   26  O6  UNK     1      18.686  -1.021  27.377  1.00  0.00    -0.263 OA
BRANCH  25  27
HETATM   27  O2  UNK     1      20.248   0.133  28.625  1.00  0.00    -0.320 OA
BRANCH  27  28
HETATM   28  C13 UNK     1      20.755  -0.974  29.379  1.00  0.00     0.179 C 
BRANCH  28  29
HETATM   29  C9  UNK     1      20.653  -0.642  30.862  1.00  0.00     0.031 C 
BRANCH  29  30
HETATM   30  C6  UNK     1      19.895  -1.698  31.683  1.00  0.00    -0.021 C 
HETATM   31  C14 UNK     1      18.850  -1.076  32.610  1.00  0.00     0.009 C 
HETATM   32  C15 UNK     1      20.886  -2.528  32.503  1.00  0.00     0.009 C 
ENDBRANCH  29  30
ENDBRANCH  28  29
ENDBRANCH  27  28
ENDBRANCH  25  27
ENDBRANCH  24  25
ENDBRANCH  23  24
ENDBRANCH   7  23
TORSDOF 10
ENDMDL
MODEL 5
REMARK VINA RESULT:      -8.6     11.339     14.893
REMARK  10 active torsions:
REMARK  status: ('A' for Active; 'I' for Inactive)
REMARK    1  A    between atoms: C12_18  and  O1_1 
REMARK    2  A    between atoms: C16_22  and  O1_1 
REMARK    3  A    between atoms: C13_19  and  O2_2 
REMARK    4  A    between atoms: C21_27  and  O2_2 
REMARK    5  A    between atoms: C20_26  and  O4_4 
REMARK    6  A    between atoms: C25_31  and  O4_4 
REMARK    7  A    between atoms: C1_7  and  C2_8 
REMARK    8  A    between atoms: C6_12  and  C9_15 
REMARK    9  A    between atoms: C13_19  and  C9_15 
REMARK   10  A    between atoms: C21_27  and  C25_31 
ROOT
HETATM    1  O3  UNK     1      33.170  -6.710  38.018  1.00  0.00    -0.319 OA
HETATM    2  O5  UNK     1      33.524  -3.646  35.342  1.00  0.00    -0.284 OA
HETATM    3  C16 UNK     1      34.463  -5.592  36.307  1.00  0.00     0.149 A 
HETATM    4  C17 UNK     1      32.227  -4.707  37.011  1.00  0.00     0.051 A 
HETATM    5  C18 UNK     1      32.167  -5.778  37.906  1.00  0.00     0.092 A 
HETATM    6  C19 UNK     1      33.412  -4.562  36.145  1.00  0.00     0.220 A 
HETATM    7  C20 UNK     1      30.006  -5.017  38.666  1.00  0.00     0.072 A 
HETATM    8  C22 UNK     1      31.056  -5.934  38.735  1.00  0.00     0.075 A 
HETATM    9  C23 UNK     1      34.269  -6.562  37.207  1.00  0.00     0.184 A 
HETATM   10  C24 UNK     1      31.178  -3.788  36.941  1.00  0.00     0.021 A 
HETATM   11  C26 UNK     1      30.068  -3.948  37.770  1.00  0.00     0.038 A 
ENDROOT
BRANCH   3  12
HETATM   12  O1  UNK     1      35.600  -5.528  35.538  1.00  0.00    -0.305 OA
BRANCH  12  13
HETATM   13  C12 UNK     1      35.813  -6.552  34.657  1.00  0.00     0.076 A 
HETATM   14  C10 UNK     1      34.871  -6.824  33.665  1.00  0.00     0.038 A 
HETATM   15  C7  UNK     1      35.087  -7.869  32.766  1.00  0.00     0.011 A 
HETATM   16  C2  UNK     1      36.245  -8.641  32.859  1.00  0.00    -0.050 A 
HETATM   17  C8  UNK     1      37.186  -8.369  33.852  1.00  0.00     0.011 A 
HETATM   18  C11 UNK     1      36.971  -7.324  34.750  1.00  0.00     0.038 A 
BRANCH  16  19
HETATM   19  C1  UNK     1      36.477  -9.758  31.899  1.00  0.00    -0.024 C 
HETATM   20  C3  UNK     1      36.140  -9.327  30.438  1.00  0.00     0.019 C 
HETATM   21  C4  UNK     1      35.586 -10.993  32.241  1.00  0.00     0.019 C 
HETATM   22  C5  UNK     1      37.942 -10.304  31.845  1.00  0.00     0.019 C 
ENDBRANCH  16  19
ENDBRANCH  12  13
ENDBRANCH   3  12
BRANCH   7  23
HETATM   23  O4  UNK     1      28.920  -5.167  39.472  1.00  0.00    -0.341 OA
BRANCH  23  24
HETATM   24  C25 UNK     1      28.140  -6.349  39.298  1.00  0.00     0.286 C 
BRANCH  24  25
HETATM   25  C21 UNK     1      26.876  -5.993  38.562  1.00  0.00     0.283 C 
HETATM   26  O6  UNK     1      26.179  -5.015  38.798  1.00  0.00    -0.263 OA
BRANCH  25  27
HETATM   27  O2  UNK     1      26.642  -6.934  37.601  1.00  0.00    -0.320 OA
BRANCH  27  28
HETATM   28  C13 UNK     1      27.808  -7.548  37.042  1.00  0.00     0.179 C 
BRANCH  28  29
HETATM   29  C9  UNK     1      28.067  -6.945  35.667  1.00  0.00     0.031 C 
BRANCH  29  30
HETATM   30  C6  UNK     1      29.556  -6.724  35.358  1.00  0.00    -0.021 C 
HETATM   31  C14 UNK     1      29.790  -6.252  33.923  1.00  0.00     0.009 C 
HETATM   32  C15 UNK     1      30.336  -8.017  35.611  1.00  0.00     0.009 C 
ENDBRANCH  29  30
ENDBRANCH  28  29
ENDBRANCH  27  28
ENDBRANCH  25  27
ENDBRANCH  24  25
ENDBRANCH  23  24
ENDBRANCH   7  23
TORSDOF 10
ENDMDL
MODEL 6
REMARK VINA RESULT:      -8.4      1.631      3.519
REMARK  10 active torsions:
REMARK  status: ('A' for Active; 'I' for Inactive)
REMARK    1  A    between atoms: C12_18  and  O1_1 
REMARK    2  A    between atoms: C16_22  and  O1_1 
REMARK    3  A    between atoms: C13_19  and  O2_2 
REMARK    4  A    between atoms: C21_27  and  O2_2 
REMARK    5  A    between atoms: C20_26  and  O4_4 
REMARK    6  A    between atoms: C25_31  and  O4_4 
REMARK    7  A    between atoms: C1_7  and  C2_8 
REMARK    8  A    between atoms: C6_12  and  C9_15 
REMARK    9  A    between atoms: C13_19  and  C9_15 
REMARK   10  A    between atoms: C21_27  and  C25_31 
ROOT
HETATM    1  O3  UNK     1      18.101  -0.792  34.562  1.00  0.00    -0.319 OA
HETATM    2  O5  UNK     1      21.355  -3.234  34.903  1.00  0.00    -0.284 OA
HETATM    3  C16 UNK     1      19.480  -2.226  35.936  1.00  0.00     0.149 A 
HETATM    4  C17 UNK     1      20.035  -1.838  33.524  1.00  0.00     0.051 A 
HETATM    5  C18 UNK     1      18.908  -1.015  33.474  1.00  0.00     0.092 A 
HETATM    6  C19 UNK     1      20.381  -2.501  34.795  1.00  0.00     0.220 A 
HETATM    7  C20 UNK     1      19.345  -0.566  31.143  1.00  0.00     0.072 A 
HETATM    8  C22 UNK     1      18.561  -0.377  32.282  1.00  0.00     0.075 A 
HETATM    9  C23 UNK     1      18.436  -1.415  35.740  1.00  0.00     0.184 A 
HETATM   10  C24 UNK     1      20.820  -2.028  32.385  1.00  0.00     0.021 A 
HETATM   11  C26 UNK     1      20.471  -1.390  31.195  1.00  0.00     0.038 A 
ENDROOT
BRANCH   3  12
HETATM   12  O1  UNK     1      19.734  -2.806  37.157  1.00  0.00    -0.305 OA
BRANCH  12  13
HETATM   13  C12 UNK     1      19.888  -4.164  37.180  1.00  0.00     0.076 A 
HETATM   14  C10 UNK     1      21.041  -4.726  37.728  1.00  0.00     0.038 A 
HETATM   15  C7  UNK     1      21.198  -6.112  37.752  1.00  0.00     0.011 A 
HETATM   16  C2  UNK     1      20.203  -6.936  37.227  1.00  0.00    -0.050 A 
HETATM   17  C8  UNK     1      19.050  -6.373  36.678  1.00  0.00     0.011 A 
HETATM   18  C11 UNK     1      18.892  -4.988  36.655  1.00  0.00     0.038 A 
BRANCH  16  19
HETATM   19  C1  UNK     1      20.370  -8.417  37.252  1.00  0.00    -0.024 C 
HETATM   20  C3  UNK     1      21.362  -8.893  36.146  1.00  0.00     0.019 C 
HETATM   21  C4  UNK     1      19.011  -9.144  37.008  1.00  0.00     0.019 C 
HETATM   22  C5  UNK     1      20.923  -9.008  38.590  1.00  0.00     0.019 C 
ENDBRANCH  16  19
ENDBRANCH  12  13
ENDBRANCH   3  12
BRANCH   7  23
HETATM   23  O4  UNK     1      19.009   0.054  29.978  1.00  0.00    -0.341 OA
BRANCH  23  24
HETATM   24  C25 UNK     1      19.353   1.432  29.854  1.00  0.00     0.286 C 
BRANCH  24  25
HETATM   25  C21 UNK     1      18.140   2.197  29.394  1.00  0.00     0.283 C 
HETATM   26  O6  UNK     1      17.786   2.316  28.228  1.00  0.00    -0.263 OA
BRANCH  25  27
HETATM   27  O2  UNK     1      17.509   2.726  30.483  1.00  0.00    -0.320 OA
BRANCH  27  28
HETATM   28  C13 UNK     1      18.368   3.300  31.474  1.00  0.00     0.179 C 
BRANCH  28  29
HETATM   29  C9  UNK     1      17.821   4.669  31.860  1.00  0.00     0.031 C 
BRANCH  29  30
HETATM   30  C6  UNK     1      18.671   5.842  31.347  1.00  0.00    -0.021 C 
HETATM   31  C14 UNK     1      19.686   5.408  30.288  1.00  0.00     0.009 C 
HETATM   32  C15 UNK     1      19.398   6.508  32.518  1.00  0.00     0.009 C 
ENDBRANCH  29  30
ENDBRANCH  28  29
ENDBRANCH  27  28
ENDBRANCH  25  27
ENDBRANCH  24  25
ENDBRANCH  23  24
ENDBRANCH   7  23
TORSDOF 10
ENDMDL
MODEL 7
REMARK VINA RESULT:      -8.3      4.091     11.813
REMARK  10 active torsions:
REMARK  status: ('A' for Active; 'I' for Inactive)
REMARK    1  A    between atoms: C12_18  and  O1_1 
REMARK    2  A    between atoms: C16_22  and  O1_1 
REMARK    3  A    between atoms: C13_19  and  O2_2 
REMARK    4  A    between atoms: C21_27  and  O2_2 
REMARK    5  A    between atoms: C20_26  and  O4_4 
REMARK    6  A    between atoms: C25_31  and  O4_4 
REMARK    7  A    between atoms: C1_7  and  C2_8 
REMARK    8  A    between atoms: C6_12  and  C9_15 
REMARK    9  A    between atoms: C13_19  and  C9_15 
REMARK   10  A    between atoms: C21_27  and  C25_31 
ROOT
HETATM    1  O3  UNK     1      17.949   3.770  33.455  1.00  0.00    -0.319 OA
HETATM    2  O5  UNK     1      19.134   4.551  29.626  1.00  0.00    -0.284 OA
HETATM    3  C16 UNK     1      18.397   5.387  31.714  1.00  0.00     0.149 A 
HETATM    4  C17 UNK     1      18.707   2.936  31.300  1.00  0.00     0.051 A 
HETATM    5  C18 UNK     1      18.294   2.736  32.619  1.00  0.00     0.092 A 
HETATM    6  C19 UNK     1      18.780   4.311  30.773  1.00  0.00     0.220 A 
HETATM    7  C20 UNK     1      18.555   0.353  32.336  1.00  0.00     0.072 A 
HETATM    8  C22 UNK     1      18.217   1.444  33.139  1.00  0.00     0.075 A 
HETATM    9  C23 UNK     1      18.020   5.046  32.950  1.00  0.00     0.184 A 
HETATM   10  C24 UNK     1      19.046   1.846  30.495  1.00  0.00     0.021 A 
HETATM   11  C26 UNK     1      18.969   0.555  31.018  1.00  0.00     0.038 A 
ENDROOT
BRANCH   3  12
HETATM   12  O1  UNK     1      18.436   6.697  31.299  1.00  0.00    -0.305 OA
BRANCH  12  13
HETATM   13  C12 UNK     1      17.602   7.576  31.934  1.00  0.00     0.076 A 
HETATM   14  C10 UNK     1      18.063   8.307  33.028  1.00  0.00     0.038 A 
HETATM   15  C7  UNK     1      17.213   9.203  33.676  1.00  0.00     0.011 A 
HETATM   16  C2  UNK     1      15.902   9.367  33.230  1.00  0.00    -0.050 A 
HETATM   17  C8  UNK     1      15.441   8.634  32.136  1.00  0.00     0.011 A 
HETATM   18  C11 UNK     1      16.291   7.739  31.488  1.00  0.00     0.038 A 
BRANCH  16  19
HETATM   19  C1  UNK     1      14.992  10.324  33.922  1.00  0.00    -0.024 C 
HETATM   20  C3  UNK     1      15.603  11.759  33.959  1.00  0.00     0.019 C 
HETATM   21  C4  UNK     1      14.727   9.888  35.397  1.00  0.00     0.019 C 
HETATM   22  C5  UNK     1      13.576  10.490  33.278  1.00  0.00     0.019 C 
ENDBRANCH  16  19
ENDBRANCH  12  13
ENDBRANCH   3  12
BRANCH   7  23
HETATM   23  O4  UNK     1      18.483  -0.910  32.840  1.00  0.00    -0.341 OA
BRANCH  23  24
HETATM   24  C25 UNK     1      19.659  -1.712  32.753  1.00  0.00     0.286 C 
BRANCH  24  25
HETATM   25  C21 UNK     1      19.988  -2.243  34.123  1.00  0.00     0.283 C 
HETATM   26  O6  UNK     1      20.476  -3.341  34.351  1.00  0.00    -0.263 OA
BRANCH  25  27
HETATM   27  O2  UNK     1      19.655  -1.303  35.056  1.00  0.00    -0.320 OA
BRANCH  27  28
HETATM   28  C13 UNK     1      19.127  -1.813  36.285  1.00  0.00     0.179 C 
BRANCH  28  29
HETATM   29  C9  UNK     1      17.646  -1.467  36.362  1.00  0.00     0.031 C 
BRANCH  29  30
HETATM   30  C6  UNK     1      17.359   0.042  36.313  1.00  0.00    -0.021 C 
HETATM   31  C14 UNK     1      17.604   0.727  37.658  1.00  0.00     0.009 C 
HETATM   32  C15 UNK     1      15.916   0.283  35.865  1.00  0.00     0.009 C 
ENDBRANCH  29  30
ENDBRANCH  28  29
ENDBRANCH  27  28
ENDBRANCH  25  27
ENDBRANCH  24  25
ENDBRANCH  23  24
ENDBRANCH   7  23
TORSDOF 10
ENDMDL
MODEL 8
REMARK VINA RESULT:      -8.3     11.242     15.148
REMARK  10 active torsions:
REMARK  status: ('A' for Active; 'I' for Inactive)
REMARK    1  A    between atoms: C12_18  and  O1_1 
REMARK    2  A    between atoms: C16_22  and  O1_1 
REMARK    3  A    between atoms: C13_19  and  O2_2 
REMARK    4  A    between atoms: C21_27  and  O2_2 
REMARK    5  A    between atoms: C20_26  and  O4_4 
REMARK    6  A    between atoms: C25_31  and  O4_4 
REMARK    7  A    between atoms: C1_7  and  C2_8 
REMARK    8  A    between atoms: C6_12  and  C9_15 
REMARK    9  A    between atoms: C13_19  and  C9_15 
REMARK   10  A    between atoms: C21_27  and  C25_31 
ROOT
HETATM    1  O3  UNK     1      33.224  -6.719  38.061  1.00  0.00    -0.319 OA
HETATM    2  O5  UNK     1      33.820  -3.708  35.367  1.00  0.00    -0.284 OA
HETATM    3  C16 UNK     1      34.622  -5.693  36.375  1.00  0.00     0.149 A 
HETATM    4  C17 UNK     1      32.423  -4.677  37.010  1.00  0.00     0.051 A 
HETATM    5  C18 UNK     1      32.279  -5.733  37.913  1.00  0.00     0.092 A 
HETATM    6  C19 UNK     1      33.636  -4.608  36.175  1.00  0.00     0.220 A 
HETATM    7  C20 UNK     1      30.145  -4.845  38.607  1.00  0.00     0.072 A 
HETATM    8  C22 UNK     1      31.139  -5.818  38.713  1.00  0.00     0.075 A 
HETATM    9  C23 UNK     1      34.351  -6.641  37.278  1.00  0.00     0.184 A 
HETATM   10  C24 UNK     1      31.428  -3.702  36.903  1.00  0.00     0.021 A 
HETATM   11  C26 UNK     1      30.290  -3.790  37.704  1.00  0.00     0.038 A 
ENDROOT
BRANCH   3  12
HETATM   12  O1  UNK     1      35.782  -5.701  35.636  1.00  0.00    -0.305 OA
BRANCH  12  13
HETATM   13  C12 UNK     1      35.900  -6.668  34.676  1.00  0.00     0.076 A 
HETATM   14  C10 UNK     1      37.024  -7.494  34.654  1.00  0.00     0.038 A 
HETATM   15  C7  UNK     1      37.146  -8.480  33.675  1.00  0.00     0.011 A 
HETATM   16  C2  UNK     1      36.144  -8.640  32.718  1.00  0.00    -0.050 A 
HETATM   17  C8  UNK     1      35.020  -7.813  32.740  1.00  0.00     0.011 A 
HETATM   18  C11 UNK     1      34.898  -6.828  33.719  1.00  0.00     0.038 A 
BRANCH  16  19
HETATM   19  C1  UNK     1      36.273  -9.693  31.671  1.00  0.00    -0.024 C 
HETATM   20  C3  UNK     1      35.825  -9.161  30.274  1.00  0.00     0.019 C 
HETATM   21  C4  UNK     1      35.390 -10.936  32.006  1.00  0.00     0.019 C 
HETATM   22  C5  UNK     1      37.717 -10.256  31.458  1.00  0.00     0.019 C 
ENDBRANCH  16  19
ENDBRANCH  12  13
ENDBRANCH   3  12
BRANCH   7  23
HETATM   23  O4  UNK     1      29.031  -4.925  39.386  1.00  0.00    -0.341 OA
BRANCH  23  24
HETATM   24  C25 UNK     1      28.243  -6.109  39.270  1.00  0.00     0.286 C 
BRANCH  24  25
HETATM   25  C21 UNK     1      26.943  -5.764  38.594  1.00  0.00     0.283 C 
HETATM   26  O6  UNK     1      26.186  -4.869  38.945  1.00  0.00    -0.263 OA
BRANCH  25  27
HETATM   27  O2  UNK     1      26.755  -6.606  37.536  1.00  0.00    -0.320 OA
BRANCH  27  28
HETATM   28  C13 UNK     1      27.816  -7.537  37.294  1.00  0.00     0.179 C 
BRANCH  28  29
HETATM   29  C9  UNK     1      27.231  -8.943  37.247  1.00  0.00     0.031 C 
BRANCH  29  30
HETATM   30  C6  UNK     1      27.646  -9.826  38.434  1.00  0.00    -0.021 C 
HETATM   31  C14 UNK     1      26.825  -9.535  39.692  1.00  0.00     0.009 C 
HETATM   32  C15 UNK     1      29.135  -9.630  38.731  1.00  0.00     0.009 C 
ENDBRANCH  29  30
ENDBRANCH  28  29
ENDBRANCH  27  28
ENDBRANCH  25  27
ENDBRANCH  24  25
ENDBRANCH  23  24
ENDBRANCH   7  23
TORSDOF 10
ENDMDL
MODEL 9
REMARK VINA RESULT:      -8.3     26.075     28.483
REMARK  10 active torsions:
REMARK  status: ('A' for Active; 'I' for Inactive)
REMARK    1  A    between atoms: C12_18  and  O1_1 
REMARK    2  A    between atoms: C16_22  and  O1_1 
REMARK    3  A    between atoms: C13_19  and  O2_2 
REMARK    4  A    between atoms: C21_27  and  O2_2 
REMARK    5  A    between atoms: C20_26  and  O4_4 
REMARK    6  A    between atoms: C25_31  and  O4_4 
REMARK    7  A    between atoms: C1_7  and  C2_8 
REMARK    8  A    between atoms: C6_12  and  C9_15 
REMARK    9  A    between atoms: C13_19  and  C9_15 
REMARK   10  A    between atoms: C21_27  and  C25_31 
ROOT
HETATM    1  O3  UNK     1      10.565   4.494   9.966  1.00  0.00    -0.319 OA
HETATM    2  O5  UNK     1       8.735   6.871   7.196  1.00  0.00    -0.284 OA
HETATM    3  C16 UNK     1       8.526   5.417   9.051  1.00  0.00     0.149 A 
HETATM    4  C17 UNK     1      10.753   5.990   8.058  1.00  0.00     0.051 A 
HETATM    5  C18 UNK     1      11.317   5.162   9.031  1.00  0.00     0.092 A 
HETATM    6  C19 UNK     1       9.289   6.160   8.024  1.00  0.00     0.220 A 
HETATM    7  C20 UNK     1      13.516   5.640   8.157  1.00  0.00     0.072 A 
HETATM    8  C22 UNK     1      12.700   4.986   9.082  1.00  0.00     0.075 A 
HETATM    9  C23 UNK     1       9.201   4.660   9.921  1.00  0.00     0.184 A 
HETATM   10  C24 UNK     1      11.568   6.645   7.132  1.00  0.00     0.021 A 
HETATM   11  C26 UNK     1      12.950   6.467   7.186  1.00  0.00     0.038 A 
ENDROOT
BRANCH   3  12
HETATM   12  O1  UNK     1       7.155   5.522   9.086  1.00  0.00    -0.305 OA
BRANCH  12  13
HETATM   13  C12 UNK     1       6.589   5.870  10.282  1.00  0.00     0.076 A 
HETATM   14  C10 UNK     1       5.764   4.967  10.951  1.00  0.00     0.038 A 
HETATM   15  C7  UNK     1       5.185   5.322  12.170  1.00  0.00     0.011 A 
HETATM   16  C2  UNK     1       5.432   6.580  12.719  1.00  0.00    -0.050 A 
HETATM   17  C8  UNK     1       6.257   7.483  12.048  1.00  0.00     0.011 A 
HETATM   18  C11 UNK     1       6.836   7.128  10.831  1.00  0.00     0.038 A 
BRANCH  16  19
HETATM   19  C1  UNK     1       4.815   6.960  14.022  1.00  0.00    -0.024 C 
HETATM   20  C3  UNK     1       4.222   5.715  14.752  1.00  0.00     0.019 C 
HETATM   21  C4  UNK     1       3.654   7.984  13.820  1.00  0.00     0.019 C 
HETATM   22  C5  UNK     1       5.782   7.627  15.054  1.00  0.00     0.019 C 
ENDBRANCH  16  19
ENDBRANCH  12  13
ENDBRANCH   3  12
BRANCH   7  23
HETATM   23  O4  UNK     1      14.866   5.471   8.205  1.00  0.00    -0.341 OA
BRANCH  23  24
HETATM   24  C25 UNK     1      15.431   5.112   9.465  1.00  0.00     0.286 C 
BRANCH  24  25
HETATM   25  C21 UNK     1      16.052   6.335  10.086  1.00  0.00     0.283 C 
HETATM   26  O6  UNK     1      17.142   6.799   9.781  1.00  0.00    -0.263 OA
BRANCH  25  27
HETATM   27  O2  UNK     1      15.203   6.832  11.032  1.00  0.00    -0.320 OA
BRANCH  27  28
HETATM   28  C13 UNK     1      15.534   8.130  11.537  1.00  0.00     0.179 C 
BRANCH  28  29
HETATM   29  C9  UNK     1      14.392   9.086  11.215  1.00  0.00     0.031 C 
BRANCH  29  30
HETATM   30  C6  UNK     1      13.721   8.814   9.860  1.00  0.00    -0.021 C 
HETATM   31  C14 UNK     1      14.454   9.488   8.700  1.00  0.00     0.009 C 
HETATM   32  C15 UNK     1      12.266   9.287   9.897  1.00  0.00     0.009 C 
ENDBRANCH  29  30
ENDBRANCH  28  29
ENDBRANCH  27  28
ENDBRANCH  25  27
ENDBRANCH  24  25
ENDBRANCH  23  24
ENDBRANCH   7  23
TORSDOF 10
ENDMDL
MODEL 10
REMARK VINA RESULT:      -8.3     10.960     14.789
REMARK  10 active torsions:
REMARK  status: ('A' for Active; 'I' for Inactive)
REMARK    1  A    between atoms: C12_18  and  O1_1 
REMARK    2  A    between atoms: C16_22  and  O1_1 
REMARK    3  A    between atoms: C13_19  and  O2_2 
REMARK    4  A    between atoms: C21_27  and  O2_2 
REMARK    5  A    between atoms: C20_26  and  O4_4 
REMARK    6  A    between atoms: C25_31  and  O4_4 
REMARK    7  A    between atoms: C1_7  and  C2_8 
REMARK    8  A    between atoms: C6_12  and  C9_15 
REMARK    9  A    between atoms: C13_19  and  C9_15 
REMARK   10  A    between atoms: C21_27  and  C25_31 
ROOT
HETATM    1  O3  UNK     1      32.995  -6.988  38.010  1.00  0.00    -0.319 OA
HETATM    2  O5  UNK     1      33.671  -3.769  35.591  1.00  0.00    -0.284 OA
HETATM    3  C16 UNK     1      34.433  -5.843  36.439  1.00  0.00     0.149 A 
HETATM    4  C17 UNK     1      32.235  -4.855  37.124  1.00  0.00     0.051 A 
HETATM    5  C18 UNK     1      32.065  -5.981  37.932  1.00  0.00     0.092 A 
HETATM    6  C19 UNK     1      33.463  -4.732  36.317  1.00  0.00     0.220 A 
HETATM    7  C20 UNK     1      29.930  -5.126  38.667  1.00  0.00     0.072 A 
HETATM    8  C22 UNK     1      30.911  -6.118  38.705  1.00  0.00     0.075 A 
HETATM    9  C23 UNK     1      34.135  -6.860  37.253  1.00  0.00     0.184 A 
HETATM   10  C24 UNK     1      31.255  -3.861  37.085  1.00  0.00     0.021 A 
HETATM   11  C26 UNK     1      30.102  -4.001  37.858  1.00  0.00     0.038 A 
ENDROOT
BRANCH   3  12
HETATM   12  O1  UNK     1      35.604  -5.804  35.719  1.00  0.00    -0.305 OA
BRANCH  12  13
HETATM   13  C12 UNK     1      35.765  -6.748  34.743  1.00  0.00     0.076 A 
HETATM   14  C10 UNK     1      36.947  -7.484  34.675  1.00  0.00     0.038 A 
HETATM   15  C7  UNK     1      37.113  -8.447  33.679  1.00  0.00     0.011 A 
HETATM   16  C2  UNK     1      36.096  -8.674  32.752  1.00  0.00    -0.050 A 
HETATM   17  C8  UNK     1      34.914  -7.936  32.820  1.00  0.00     0.011 A 
HETATM   18  C11 UNK     1      34.748  -6.975  33.816  1.00  0.00     0.038 A 
BRANCH  16  19
HETATM   19  C1  UNK     1      36.272  -9.703  31.687  1.00  0.00    -0.024 C 
HETATM   20  C3  UNK     1      37.729 -10.260  31.674  1.00  0.00     0.019 C 
HETATM   21  C4  UNK     1      35.983  -9.109  30.273  1.00  0.00     0.019 C 
HETATM   22  C5  UNK     1      35.347 -10.959  31.808  1.00  0.00     0.019 C 
ENDBRANCH  16  19
ENDBRANCH  12  13
ENDBRANCH   3  12
BRANCH   7  23
HETATM   23  O4  UNK     1      28.803  -5.257  39.419  1.00  0.00    -0.341 OA
BRANCH  23  24
HETATM   24  C25 UNK     1      28.040  -6.449  39.241  1.00  0.00     0.286 C 
BRANCH  24  25
HETATM   25  C21 UNK     1      26.710  -6.089  38.633  1.00  0.00     0.283 C 
HETATM   26  O6  UNK     1      26.173  -4.993  38.719  1.00  0.00    -0.263 OA
BRANCH  25  27
HETATM   27  O2  UNK     1      26.212  -7.178  37.978  1.00  0.00    -0.320 OA
BRANCH  27  28
HETATM   28  C13 UNK     1      25.586  -8.164  38.807  1.00  0.00     0.179 C 
BRANCH  28  29
HETATM   29  C9  UNK     1      24.110  -8.246  38.439  1.00  0.00     0.031 C 
BRANCH  29  30
HETATM   30  C6  UNK     1      23.180  -7.566  39.455  1.00  0.00    -0.021 C 
HETATM   31  C14 UNK     1      21.909  -8.376  39.715  1.00  0.00     0.009 C 
HETATM   32  C15 UNK     1      22.808  -6.165  38.963  1.00  0.00     0.009 C 
ENDBRANCH  29  30
ENDBRANCH  28  29
ENDBRANCH  27  28
ENDBRANCH  25  27
ENDBRANCH  24  25
ENDBRANCH  23  24
ENDBRANCH   7  23
TORSDOF 10
ENDMDL
