MODEL 1
REMARK VINA RESULT:      -9.6      0.000      0.000
REMARK  5 active torsions:
REMARK  status: ('A' for Active; 'I' for Inactive)
REMARK    1  A    between atoms: C16_23  and  O3_3 
REMARK    2  A    between atoms: C17_24  and  O4_4 
REMARK       I    between atoms: C15_22  and  N1_6 
REMARK    3  A    between atoms: N1_6  and  N2_7 
REMARK    4  A    between atoms: C11_18  and  C7_14 
REMARK    5  A    between atoms: C12_19  and  C15_22 
ROOT
HETATM    1  O5  UNK     1      17.168   2.795  30.784  1.00  0.00    -0.266 OA
HETATM    2  N1  UNK     1      19.181   3.835  30.424  1.00  0.00    -0.243 N 
HETATM    3  C15 UNK     1      18.355   2.719  30.461  1.00  0.00     0.271 C 
HETATM    4  H12 UNK     1      20.174   3.799  30.221  1.00  0.00     0.192 HD
ENDROOT
BRANCH   2   5
HETATM    5  N2  UNK     1      18.659   5.042  30.756  1.00  0.00    -0.183 NA
HETATM    6  C11 UNK     1      18.863   5.384  31.986  1.00  0.00     0.156 C 
BRANCH   6   7
HETATM    7  C7  UNK     1      18.379   6.649  32.540  1.00  0.00     0.056 A 
HETATM    8  C5  UNK     1      16.967   7.086  32.470  1.00  0.00     0.198 A 
HETATM    9  C1  UNK     1      16.664   8.393  33.083  1.00  0.00     0.049 A 
HETATM   10  O2  UNK     1      16.101   6.407  31.936  1.00  0.00    -0.286 OA
HETATM   11  C2  UNK     1      17.699   9.120  33.677  1.00  0.00     0.089 A 
HETATM   12  C4  UNK     1      15.363   8.899  33.074  1.00  0.00     0.025 A 
HETATM   13  O1  UNK     1      18.996   8.670  33.716  1.00  0.00    -0.321 OA
HETATM   14  C6  UNK     1      17.436  10.359  34.262  1.00  0.00     0.039 A 
HETATM   15  C9  UNK     1      19.264   7.450  33.141  1.00  0.00     0.159 A 
HETATM   16  C8  UNK     1      16.137  10.867  34.253  1.00  0.00     0.009 A 
HETATM   17  C3  UNK     1      15.103  10.139  33.661  1.00  0.00    -0.061 A 
HETATM   18  C10 UNK     1      13.717  10.690  33.654  1.00  0.00     0.048 C 
ENDBRANCH   6   7
ENDBRANCH   2   5
BRANCH   3  19
HETATM   19  C12 UNK     1      18.995   1.441  30.117  1.00  0.00     0.039 A 
HETATM   20  C13 UNK     1      19.834   0.829  31.036  1.00  0.00     0.053 A 
HETATM   21  C17 UNK     1      20.441  -0.383  30.709  1.00  0.00     0.069 A 
HETATM   22  C18 UNK     1      20.201  -0.970  29.466  1.00  0.00     0.073 A 
HETATM   23  C16 UNK     1      19.355  -0.345  28.550  1.00  0.00     0.069 A 
HETATM   24  C14 UNK     1      18.748   0.868  28.878  1.00  0.00     0.053 A 
BRANCH  21  25
HETATM   25  O4  UNK     1      21.267  -0.994  31.602  1.00  0.00    -0.361 OA
HETATM   26  H14 UNK     1      21.962  -1.469  31.116  1.00  0.00     0.217 HD
ENDBRANCH  21  25
BRANCH  23  27
HETATM   27  O3  UNK     1      19.121  -0.918  27.338  1.00  0.00    -0.361 OA
HETATM   28  H13 UNK     1      18.339  -1.492  27.405  1.00  0.00     0.217 HD
ENDBRANCH  23  27
ENDBRANCH   3  19
TORSDOF 5
ENDMDL
MODEL 2
REMARK VINA RESULT:      -9.4     13.763     19.998
REMARK  5 active torsions:
REMARK  status: ('A' for Active; 'I' for Inactive)
REMARK    1  A    between atoms: C16_23  and  O3_3 
REMARK    2  A    between atoms: C17_24  and  O4_4 
REMARK       I    between atoms: C15_22  and  N1_6 
REMARK    3  A    between atoms: N1_6  and  N2_7 
REMARK    4  A    between atoms: C11_18  and  C7_14 
REMARK    5  A    between atoms: C12_19  and  C15_22 
ROOT
HETATM    1  O5  UNK     1      17.494  -1.232  17.342  1.00  0.00    -0.266 OA
HETATM    2  N1  UNK     1      19.648  -1.148  16.555  1.00  0.00    -0.243 N 
HETATM    3  C15 UNK     1      18.634  -0.770  17.426  1.00  0.00     0.271 C 
HETATM    4  H12 UNK     1      20.578  -0.745  16.558  1.00  0.00     0.192 HD
ENDROOT
BRANCH   2   5
HETATM    5  N2  UNK     1      19.368  -2.054  15.585  1.00  0.00    -0.183 NA
HETATM    6  C11 UNK     1      19.852  -3.232  15.810  1.00  0.00     0.156 C 
BRANCH   6   7
HETATM    7  C7  UNK     1      19.661  -4.349  14.883  1.00  0.00     0.056 A 
HETATM    8  C5  UNK     1      20.664  -5.416  14.671  1.00  0.00     0.198 A 
HETATM    9  C1  UNK     1      20.298  -6.461  13.697  1.00  0.00     0.049 A 
HETATM   10  O2  UNK     1      21.733  -5.433  15.266  1.00  0.00    -0.286 OA
HETATM   11  C2  UNK     1      19.063  -6.383  13.050  1.00  0.00     0.089 A 
HETATM   12  C4  UNK     1      21.171  -7.515  13.422  1.00  0.00     0.025 A 
HETATM   13  O1  UNK     1      18.165  -5.371  13.282  1.00  0.00    -0.321 OA
HETATM   14  C6  UNK     1      18.696  -7.360  12.124  1.00  0.00     0.039 A 
HETATM   15  C9  UNK     1      18.518  -4.403  14.193  1.00  0.00     0.159 A 
HETATM   16  C8  UNK     1      19.568  -8.414  11.848  1.00  0.00     0.009 A 
HETATM   17  C3  UNK     1      20.801  -8.492  12.495  1.00  0.00    -0.061 A 
HETATM   18  C10 UNK     1      21.728  -9.621  12.194  1.00  0.00     0.048 C 
ENDBRANCH   6   7
ENDBRANCH   2   5
BRANCH   3  19
HETATM   19  C12 UNK     1      19.002   0.236  18.433  1.00  0.00     0.039 A 
HETATM   20  C13 UNK     1      19.262  -0.166  19.734  1.00  0.00     0.053 A 
HETATM   21  C17 UNK     1      19.612   0.789  20.689  1.00  0.00     0.069 A 
HETATM   22  C18 UNK     1      19.698   2.134  20.332  1.00  0.00     0.073 A 
HETATM   23  C16 UNK     1      19.435   2.526  19.019  1.00  0.00     0.069 A 
HETATM   24  C14 UNK     1      19.085   1.571  18.064  1.00  0.00     0.053 A 
BRANCH  21  25
HETATM   25  O4  UNK     1      19.869   0.407  21.971  1.00  0.00    -0.361 OA
HETATM   26  H14 UNK     1      19.809   1.186  22.550  1.00  0.00     0.217 HD
ENDBRANCH  21  25
BRANCH  23  27
HETATM   27  O3  UNK     1      19.520   3.839  18.670  1.00  0.00    -0.361 OA
HETATM   28  H13 UNK     1      20.047   3.917  17.857  1.00  0.00     0.217 HD
ENDBRANCH  23  27
ENDBRANCH   3  19
TORSDOF 5
ENDMDL
MODEL 3
REMARK VINA RESULT:      -9.4      1.849      9.655
REMARK  5 active torsions:
REMARK  status: ('A' for Active; 'I' for Inactive)
REMARK    1  A    between atoms: C16_23  and  O3_3 
REMARK    2  A    between atoms: C17_24  and  O4_4 
REMARK       I    between atoms: C15_22  and  N1_6 
REMARK    3  A    between atoms: N1_6  and  N2_7 
REMARK    4  A    between atoms: C11_18  and  C7_14 
REMARK    5  A    between atoms: C12_19  and  C15_22 
ROOT
HETATM    1  O5  UNK     1      19.350   5.947  33.528  1.00  0.00    -0.266 OA
HETATM    2  N1  UNK     1      17.363   5.151  32.702  1.00  0.00    -0.243 N 
HETATM    3  C15 UNK     1      18.160   6.137  33.268  1.00  0.00     0.271 C 
HETATM    4  H12 UNK     1      16.369   5.254  32.531  1.00  0.00     0.192 HD
ENDROOT
BRANCH   2   5
HETATM    5  N2  UNK     1      17.917   3.943  32.430  1.00  0.00    -0.183 NA
HETATM    6  C11 UNK     1      18.008   3.677  31.168  1.00  0.00     0.156 C 
BRANCH   6   7
HETATM    7  C7  UNK     1      18.576   2.425  30.668  1.00  0.00     0.056 A 
HETATM    8  C5  UNK     1      18.980   1.303  31.543  1.00  0.00     0.198 A 
HETATM    9  C1  UNK     1      19.534   0.119  30.860  1.00  0.00     0.049 A 
HETATM   10  O2  UNK     1      18.863   1.351  32.759  1.00  0.00    -0.286 OA
HETATM   11  C2  UNK     1      19.642   0.127  29.467  1.00  0.00     0.089 A 
HETATM   12  C4  UNK     1      19.946  -0.997  31.591  1.00  0.00     0.025 A 
HETATM   13  O1  UNK     1      19.253   1.196  28.698  1.00  0.00    -0.321 OA
HETATM   14  C6  UNK     1      20.165  -0.981  28.800  1.00  0.00     0.039 A 
HETATM   15  C9  UNK     1      18.737   2.293  29.347  1.00  0.00     0.159 A 
HETATM   16  C8  UNK     1      20.577  -2.097  29.529  1.00  0.00     0.009 A 
HETATM   17  C3  UNK     1      20.468  -2.105  30.920  1.00  0.00    -0.061 A 
HETATM   18  C10 UNK     1      20.912  -3.301  31.693  1.00  0.00     0.048 C 
ENDBRANCH   6   7
ENDBRANCH   2   5
BRANCH   3  19
HETATM   19  C12 UNK     1      17.486   7.411  33.561  1.00  0.00     0.039 A 
HETATM   20  C13 UNK     1      16.139   7.409  33.891  1.00  0.00     0.053 A 
HETATM   21  C17 UNK     1      15.501   8.618  34.169  1.00  0.00     0.069 A 
HETATM   22  C18 UNK     1      16.216   9.814  34.114  1.00  0.00     0.073 A 
HETATM   23  C16 UNK     1      17.571   9.802  33.781  1.00  0.00     0.069 A 
HETATM   24  C14 UNK     1      18.210   8.593  33.503  1.00  0.00     0.053 A 
BRANCH  21  25
HETATM   25  O4  UNK     1      14.178   8.630  34.494  1.00  0.00    -0.361 OA
HETATM   26  H14 UNK     1      14.063   9.119  35.326  1.00  0.00     0.217 HD
ENDBRANCH  21  25
BRANCH  23  27
HETATM   27  O3  UNK     1      18.270  10.969  33.728  1.00  0.00    -0.361 OA
HETATM   28  H13 UNK     1      17.671  11.684  33.454  1.00  0.00     0.217 HD
ENDBRANCH  23  27
ENDBRANCH   3  19
TORSDOF 5
ENDMDL
MODEL 4
REMARK VINA RESULT:      -9.4      0.749      1.916
REMARK  5 active torsions:
REMARK  status: ('A' for Active; 'I' for Inactive)
REMARK    1  A    between atoms: C16_23  and  O3_3 
REMARK    2  A    between atoms: C17_24  and  O4_4 
REMARK       I    between atoms: C15_22  and  N1_6 
REMARK    3  A    between atoms: N1_6  and  N2_7 
REMARK    4  A    between atoms: C11_18  and  C7_14 
REMARK    5  A    between atoms: C12_19  and  C15_22 
ROOT
HETATM    1  O5  UNK     1      17.187   2.802  30.779  1.00  0.00    -0.266 OA
HETATM    2  N1  UNK     1      19.195   3.827  30.356  1.00  0.00    -0.243 N 
HETATM    3  C15 UNK     1      18.370   2.714  30.445  1.00  0.00     0.271 C 
HETATM    4  H12 UNK     1      20.186   3.784  30.142  1.00  0.00     0.192 HD
ENDROOT
BRANCH   2   5
HETATM    5  N2  UNK     1      18.676   5.046  30.648  1.00  0.00    -0.183 NA
HETATM    6  C11 UNK     1      18.263   5.164  31.867  1.00  0.00     0.156 C 
BRANCH   6   7
HETATM    7  C7  UNK     1      17.669   6.400  32.380  1.00  0.00     0.056 A 
HETATM    8  C5  UNK     1      18.464   7.549  32.865  1.00  0.00     0.198 A 
HETATM    9  C1  UNK     1      17.693   8.711  33.345  1.00  0.00     0.049 A 
HETATM   10  O2  UNK     1      19.688   7.540  32.867  1.00  0.00    -0.286 OA
HETATM   11  C2  UNK     1      16.298   8.658  33.316  1.00  0.00     0.089 A 
HETATM   12  C4  UNK     1      18.344   9.850  33.823  1.00  0.00     0.025 A 
HETATM   13  O1  UNK     1      15.605   7.565  32.856  1.00  0.00    -0.321 OA
HETATM   14  C6  UNK     1      15.547   9.744  33.767  1.00  0.00     0.039 A 
HETATM   15  C9  UNK     1      16.336   6.489  32.410  1.00  0.00     0.159 A 
HETATM   16  C8  UNK     1      16.197  10.883  34.245  1.00  0.00     0.009 A 
HETATM   17  C3  UNK     1      17.591  10.936  34.273  1.00  0.00    -0.061 A 
HETATM   18  C10 UNK     1      18.278  12.156  34.787  1.00  0.00     0.048 C 
ENDBRANCH   6   7
ENDBRANCH   2   5
BRANCH   3  19
HETATM   19  C12 UNK     1      19.007   1.424  30.141  1.00  0.00     0.039 A 
HETATM   20  C13 UNK     1      19.806   0.816  31.098  1.00  0.00     0.053 A 
HETATM   21  C17 UNK     1      20.409  -0.408  30.810  1.00  0.00     0.069 A 
HETATM   22  C18 UNK     1      20.207  -1.011  29.568  1.00  0.00     0.073 A 
HETATM   23  C16 UNK     1      19.400  -0.390  28.614  1.00  0.00     0.069 A 
HETATM   24  C14 UNK     1      18.797   0.835  28.903  1.00  0.00     0.053 A 
BRANCH  21  25
HETATM   25  O4  UNK     1      21.196  -1.015  31.741  1.00  0.00    -0.361 OA
HETATM   26  H14 UNK     1      21.221  -0.465  32.541  1.00  0.00     0.217 HD
ENDBRANCH  21  25
BRANCH  23  27
HETATM   27  O3  UNK     1      19.202  -0.978  27.403  1.00  0.00    -0.361 OA
HETATM   28  H13 UNK     1      18.248  -1.004  27.216  1.00  0.00     0.217 HD
ENDBRANCH  23  27
ENDBRANCH   3  19
TORSDOF 5
ENDMDL
MODEL 5
REMARK VINA RESULT:      -9.3     13.769     20.046
REMARK  5 active torsions:
REMARK  status: ('A' for Active; 'I' for Inactive)
REMARK    1  A    between atoms: C16_23  and  O3_3 
REMARK    2  A    between atoms: C17_24  and  O4_4 
REMARK       I    between atoms: C15_22  and  N1_6 
REMARK    3  A    between atoms: N1_6  and  N2_7 
REMARK    4  A    between atoms: C11_18  and  C7_14 
REMARK    5  A    between atoms: C12_19  and  C15_22 
ROOT
HETATM    1  O5  UNK     1      17.483  -1.293  17.334  1.00  0.00    -0.266 OA
HETATM    2  N1  UNK     1      19.615  -1.137  16.500  1.00  0.00    -0.243 N 
HETATM    3  C15 UNK     1      18.608  -0.793  17.393  1.00  0.00     0.271 C 
HETATM    4  H12 UNK     1      20.531  -0.703  16.483  1.00  0.00     0.192 HD
ENDROOT
BRANCH   2   5
HETATM    5  N2  UNK     1      19.344  -2.053  15.536  1.00  0.00    -0.183 NA
HETATM    6  C11 UNK     1      19.732  -3.252  15.825  1.00  0.00     0.156 C 
BRANCH   6   7
HETATM    7  C7  UNK     1      19.534  -4.382  14.917  1.00  0.00     0.056 A 
HETATM    8  C5  UNK     1      20.569  -5.403  14.644  1.00  0.00     0.198 A 
HETATM    9  C1  UNK     1      20.189  -6.470  13.699  1.00  0.00     0.049 A 
HETATM   10  O2  UNK     1      21.673  -5.368  15.169  1.00  0.00    -0.286 OA
HETATM   11  C2  UNK     1      18.912  -6.453  13.134  1.00  0.00     0.089 A 
HETATM   12  C4  UNK     1      21.090  -7.486  13.372  1.00  0.00     0.025 A 
HETATM   13  O1  UNK     1      17.986  -5.481  13.419  1.00  0.00    -0.321 OA
HETATM   14  C6  UNK     1      18.531  -7.451  12.236  1.00  0.00     0.039 A 
HETATM   15  C9  UNK     1      18.352  -4.492  14.302  1.00  0.00     0.159 A 
HETATM   16  C8  UNK     1      19.431  -8.466  11.908  1.00  0.00     0.009 A 
HETATM   17  C3  UNK     1      20.706  -8.484  12.474  1.00  0.00    -0.061 A 
HETATM   18  C10 UNK     1      21.662  -9.571  12.117  1.00  0.00     0.048 C 
ENDBRANCH   6   7
ENDBRANCH   2   5
BRANCH   3  19
HETATM   19  C12 UNK     1      18.964   0.225  18.392  1.00  0.00     0.039 A 
HETATM   20  C13 UNK     1      19.008   1.561  18.020  1.00  0.00     0.053 A 
HETATM   21  C17 UNK     1      19.345   2.526  18.968  1.00  0.00     0.069 A 
HETATM   22  C18 UNK     1      19.635   2.145  20.278  1.00  0.00     0.073 A 
HETATM   23  C16 UNK     1      19.588   0.799  20.641  1.00  0.00     0.069 A 
HETATM   24  C14 UNK     1      19.250  -0.167  19.691  1.00  0.00     0.053 A 
BRANCH  21  25
HETATM   25  O4  UNK     1      19.391   3.840  18.616  1.00  0.00    -0.361 OA
HETATM   26  H14 UNK     1      19.741   4.355  19.362  1.00  0.00     0.217 HD
ENDBRANCH  21  25
BRANCH  23  27
HETATM   27  O3  UNK     1      19.870   0.427  21.919  1.00  0.00    -0.361 OA
HETATM   28  H13 UNK     1      19.224  -0.241  22.205  1.00  0.00     0.217 HD
ENDBRANCH  23  27
ENDBRANCH   3  19
TORSDOF 5
ENDMDL
MODEL 6
REMARK VINA RESULT:      -9.3      7.411     12.653
REMARK  5 active torsions:
REMARK  status: ('A' for Active; 'I' for Inactive)
REMARK    1  A    between atoms: C16_23  and  O3_3 
REMARK    2  A    between atoms: C17_24  and  O4_4 
REMARK       I    between atoms: C15_22  and  N1_6 
REMARK    3  A    between atoms: N1_6  and  N2_7 
REMARK    4  A    between atoms: C11_18  and  C7_14 
REMARK    5  A    between atoms: C12_19  and  C15_22 
ROOT
HETATM    1  O5  UNK     1      21.249  -3.421  32.319  1.00  0.00    -0.266 OA
HETATM    2  N1  UNK     1      20.260  -2.222  34.007  1.00  0.00    -0.243 N 
HETATM    3  C15 UNK     1      20.608  -2.431  32.679  1.00  0.00     0.271 C 
HETATM    4  H12 UNK     1      19.785  -1.392  34.345  1.00  0.00     0.192 HD
ENDROOT
BRANCH   2   5
HETATM    5  N2  UNK     1      20.641  -3.139  34.931  1.00  0.00    -0.183 NA
HETATM    6  C11 UNK     1      19.682  -3.904  35.341  1.00  0.00     0.156 C 
BRANCH   6   7
HETATM    7  C7  UNK     1      19.887  -4.956  36.337  1.00  0.00     0.056 A 
HETATM    8  C5  UNK     1      19.566  -6.380  36.101  1.00  0.00     0.198 A 
HETATM    9  C1  UNK     1      19.840  -7.298  37.222  1.00  0.00     0.049 A 
HETATM   10  O2  UNK     1      19.103  -6.776  35.040  1.00  0.00    -0.286 OA
HETATM   11  C2  UNK     1      20.370  -6.783  38.407  1.00  0.00     0.089 A 
HETATM   12  C4  UNK     1      19.576  -8.664  37.105  1.00  0.00     0.025 A 
HETATM   13  O1  UNK     1      20.650  -5.450  38.578  1.00  0.00    -0.321 OA
HETATM   14  C6  UNK     1      20.635  -7.632  39.481  1.00  0.00     0.039 A 
HETATM   15  C9  UNK     1      20.391  -4.605  37.525  1.00  0.00     0.159 A 
HETATM   16  C8  UNK     1      20.371  -8.998  39.366  1.00  0.00     0.009 A 
HETATM   17  C3  UNK     1      19.843  -9.512  38.181  1.00  0.00    -0.061 A 
HETATM   18  C10 UNK     1      19.562 -10.973  38.066  1.00  0.00     0.048 C 
ENDBRANCH   6   7
ENDBRANCH   2   5
BRANCH   3  19
HETATM   19  C12 UNK     1      20.186  -1.383  31.737  1.00  0.00     0.039 A 
HETATM   20  C13 UNK     1      20.532  -1.489  30.399  1.00  0.00     0.053 A 
HETATM   21  C17 UNK     1      20.132  -0.495  29.507  1.00  0.00     0.069 A 
HETATM   22  C18 UNK     1      19.388   0.593  29.962  1.00  0.00     0.073 A 
HETATM   23  C16 UNK     1      19.044   0.688  31.311  1.00  0.00     0.069 A 
HETATM   24  C14 UNK     1      19.446  -0.307  32.204  1.00  0.00     0.053 A 
BRANCH  21  25
HETATM   25  O4  UNK     1      20.466  -0.587  28.190  1.00  0.00    -0.361 OA
HETATM   26  H14 UNK     1      20.643   0.304  27.846  1.00  0.00     0.217 HD
ENDBRANCH  21  25
BRANCH  23  27
HETATM   27  O3  UNK     1      18.318   1.749  31.756  1.00  0.00    -0.361 OA
HETATM   28  H13 UNK     1      18.877   2.545  31.738  1.00  0.00     0.217 HD
ENDBRANCH  23  27
ENDBRANCH   3  19
TORSDOF 5
ENDMDL
MODEL 7
REMARK VINA RESULT:      -9.3      7.413     12.609
REMARK  5 active torsions:
REMARK  status: ('A' for Active; 'I' for Inactive)
REMARK    1  A    between atoms: C16_23  and  O3_3 
REMARK    2  A    between atoms: C17_24  and  O4_4 
REMARK       I    between atoms: C15_22  and  N1_6 
REMARK    3  A    between atoms: N1_6  and  N2_7 
REMARK    4  A    between atoms: C11_18  and  C7_14 
REMARK    5  A    between atoms: C12_19  and  C15_22 
ROOT
HETATM    1  O5  UNK     1      21.254  -3.417  32.307  1.00  0.00    -0.266 OA
HETATM    2  N1  UNK     1      20.257  -2.232  34.001  1.00  0.00    -0.243 N 
HETATM    3  C15 UNK     1      20.607  -2.432  32.672  1.00  0.00     0.271 C 
HETATM    4  H12 UNK     1      19.778  -1.407  34.344  1.00  0.00     0.192 HD
ENDROOT
BRANCH   2   5
HETATM    5  N2  UNK     1      20.643  -3.152  34.921  1.00  0.00    -0.183 NA
HETATM    6  C11 UNK     1      19.683  -3.909  35.344  1.00  0.00     0.156 C 
BRANCH   6   7
HETATM    7  C7  UNK     1      19.893  -4.962  36.337  1.00  0.00     0.056 A 
HETATM    8  C5  UNK     1      19.569  -6.386  36.102  1.00  0.00     0.198 A 
HETATM    9  C1  UNK     1      19.848  -7.305  37.220  1.00  0.00     0.049 A 
HETATM   10  O2  UNK     1      19.098  -6.780  35.044  1.00  0.00    -0.286 OA
HETATM   11  C2  UNK     1      20.385  -6.792  38.403  1.00  0.00     0.089 A 
HETATM   12  C4  UNK     1      19.581  -8.671  37.103  1.00  0.00     0.025 A 
HETATM   13  O1  UNK     1      20.669  -5.459  38.573  1.00  0.00    -0.321 OA
HETATM   14  C6  UNK     1      20.656  -7.643  39.475  1.00  0.00     0.039 A 
HETATM   15  C9  UNK     1      20.405  -4.613  37.522  1.00  0.00     0.159 A 
HETATM   16  C8  UNK     1      20.389  -9.007  39.359  1.00  0.00     0.009 A 
HETATM   17  C3  UNK     1      19.853  -9.520  38.178  1.00  0.00    -0.061 A 
HETATM   18  C10 UNK     1      19.570 -10.980  38.062  1.00  0.00     0.048 C 
ENDBRANCH   6   7
ENDBRANCH   2   5
BRANCH   3  19
HETATM   19  C12 UNK     1      20.180  -1.382  31.736  1.00  0.00     0.039 A 
HETATM   20  C13 UNK     1      19.452  -0.301  32.210  1.00  0.00     0.053 A 
HETATM   21  C17 UNK     1      19.047   0.695  31.321  1.00  0.00     0.069 A 
HETATM   22  C18 UNK     1      19.375   0.599  29.969  1.00  0.00     0.073 A 
HETATM   23  C16 UNK     1      20.108  -0.493  29.504  1.00  0.00     0.069 A 
HETATM   24  C14 UNK     1      20.513  -1.490  30.394  1.00  0.00     0.053 A 
BRANCH  21  25
HETATM   25  O4  UNK     1      18.332   1.762  31.774  1.00  0.00    -0.361 OA
HETATM   26  H14 UNK     1      17.640   1.445  32.378  1.00  0.00     0.217 HD
ENDBRANCH  21  25
BRANCH  23  27
HETATM   27  O3  UNK     1      20.429  -0.587  28.185  1.00  0.00    -0.361 OA
HETATM   28  H13 UNK     1      20.727  -1.493  27.995  1.00  0.00     0.217 HD
ENDBRANCH  23  27
ENDBRANCH   3  19
TORSDOF 5
ENDMDL
MODEL 8
REMARK VINA RESULT:      -9.3     13.769     19.685
REMARK  5 active torsions:
REMARK  status: ('A' for Active; 'I' for Inactive)
REMARK    1  A    between atoms: C16_23  and  O3_3 
REMARK    2  A    between atoms: C17_24  and  O4_4 
REMARK       I    between atoms: C15_22  and  N1_6 
REMARK    3  A    between atoms: N1_6  and  N2_7 
REMARK    4  A    between atoms: C11_18  and  C7_14 
REMARK    5  A    between atoms: C12_19  and  C15_22 
ROOT
HETATM    1  O5  UNK     1      17.472  -1.189  17.422  1.00  0.00    -0.266 OA
HETATM    2  N1  UNK     1      19.364  -0.627  16.252  1.00  0.00    -0.243 N 
HETATM    3  C15 UNK     1      18.516  -0.537  17.348  1.00  0.00     0.271 C 
HETATM    4  H12 UNK     1      20.198  -0.062  16.132  1.00  0.00     0.192 HD
ENDROOT
BRANCH   2   5
HETATM    5  N2  UNK     1      19.028  -1.461  15.236  1.00  0.00    -0.183 NA
HETATM    6  C11 UNK     1      19.335  -2.699  15.448  1.00  0.00     0.156 C 
BRANCH   6   7
HETATM    7  C7  UNK     1      19.057  -3.755  14.473  1.00  0.00     0.056 A 
HETATM    8  C5  UNK     1      18.157  -4.898  14.741  1.00  0.00     0.198 A 
HETATM    9  C1  UNK     1      17.997  -5.865  13.639  1.00  0.00     0.049 A 
HETATM   10  O2  UNK     1      17.579  -5.036  15.810  1.00  0.00    -0.286 OA
HETATM   11  C2  UNK     1      18.686  -5.651  12.443  1.00  0.00     0.089 A 
HETATM   12  C4  UNK     1      17.170  -6.981  13.784  1.00  0.00     0.025 A 
HETATM   13  O1  UNK     1      19.512  -4.572  12.243  1.00  0.00    -0.321 OA
HETATM   14  C6  UNK     1      18.551  -6.554  11.387  1.00  0.00     0.039 A 
HETATM   15  C9  UNK     1      19.651  -3.678  13.278  1.00  0.00     0.159 A 
HETATM   16  C8  UNK     1      17.725  -7.669  11.532  1.00  0.00     0.009 A 
HETATM   17  C3  UNK     1      17.037  -7.882  12.726  1.00  0.00    -0.061 A 
HETATM   18  C10 UNK     1      16.156  -9.077  12.873  1.00  0.00     0.048 C 
ENDBRANCH   6   7
ENDBRANCH   2   5
BRANCH   3  19
HETATM   19  C12 UNK     1      18.929   0.407  18.397  1.00  0.00     0.039 A 
HETATM   20  C13 UNK     1      19.171  -0.063  19.679  1.00  0.00     0.053 A 
HETATM   21  C17 UNK     1      19.563   0.832  20.674  1.00  0.00     0.069 A 
HETATM   22  C18 UNK     1      19.710   2.187  20.376  1.00  0.00     0.073 A 
HETATM   23  C16 UNK     1      19.465   2.647  19.082  1.00  0.00     0.069 A 
HETATM   24  C14 UNK     1      19.072   1.751  18.086  1.00  0.00     0.053 A 
BRANCH  21  25
HETATM   25  O4  UNK     1      19.804   0.384  21.938  1.00  0.00    -0.361 OA
HETATM   26  H14 UNK     1      19.068   0.653  22.513  1.00  0.00     0.217 HD
ENDBRANCH  21  25
BRANCH  23  27
HETATM   27  O3  UNK     1      19.609   3.968  18.790  1.00  0.00    -0.361 OA
HETATM   28  H13 UNK     1      20.213   4.372  19.436  1.00  0.00     0.217 HD
ENDBRANCH  23  27
ENDBRANCH   3  19
TORSDOF 5
ENDMDL
MODEL 9
REMARK VINA RESULT:      -9.3      1.052      2.652
REMARK  5 active torsions:
REMARK  status: ('A' for Active; 'I' for Inactive)
REMARK    1  A    between atoms: C16_23  and  O3_3 
REMARK    2  A    between atoms: C17_24  and  O4_4 
REMARK       I    between atoms: C15_22  and  N1_6 
REMARK    3  A    between atoms: N1_6  and  N2_7 
REMARK    4  A    between atoms: C11_18  and  C7_14 
REMARK    5  A    between atoms: C12_19  and  C15_22 
ROOT
HETATM    1  O5  UNK     1      18.150   3.581  29.174  1.00  0.00    -0.266 OA
HETATM    2  N1  UNK     1      17.936   3.043  31.394  1.00  0.00    -0.243 N 
HETATM    3  C15 UNK     1      18.346   2.783  30.093  1.00  0.00     0.271 C 
HETATM    4  H12 UNK     1      18.028   2.385  32.160  1.00  0.00     0.192 HD
ENDROOT
BRANCH   2   5
HETATM    5  N2  UNK     1      17.302   4.214  31.655  1.00  0.00    -0.183 NA
HETATM    6  C11 UNK     1      18.025   5.073  32.296  1.00  0.00     0.156 C 
BRANCH   6   7
HETATM    7  C7  UNK     1      17.524   6.395  32.672  1.00  0.00     0.056 A 
HETATM    8  C5  UNK     1      18.397   7.510  33.102  1.00  0.00     0.198 A 
HETATM    9  C1  UNK     1      17.713   8.771  33.444  1.00  0.00     0.049 A 
HETATM   10  O2  UNK     1      19.613   7.395  33.170  1.00  0.00    -0.286 OA
HETATM   11  C2  UNK     1      16.322   8.837  33.346  1.00  0.00     0.089 A 
HETATM   12  C4  UNK     1      18.443   9.886  33.860  1.00  0.00     0.025 A 
HETATM   13  O1  UNK     1      15.554   7.772  32.942  1.00  0.00    -0.321 OA
HETATM   14  C6  UNK     1      15.654  10.018  33.666  1.00  0.00     0.039 A 
HETATM   15  C9  UNK     1      16.204   6.603  32.625  1.00  0.00     0.159 A 
HETATM   16  C8  UNK     1      16.382  11.134  34.083  1.00  0.00     0.009 A 
HETATM   17  C3  UNK     1      17.772  11.068  34.179  1.00  0.00    -0.061 A 
HETATM   18  C10 UNK     1      18.543  12.264  34.626  1.00  0.00     0.048 C 
ENDBRANCH   6   7
ENDBRANCH   2   5
BRANCH   3  19
HETATM   19  C12 UNK     1      19.002   1.484  29.880  1.00  0.00     0.039 A 
HETATM   20  C13 UNK     1      18.816   0.816  28.679  1.00  0.00     0.053 A 
HETATM   21  C17 UNK     1      19.438  -0.416  28.477  1.00  0.00     0.069 A 
HETATM   22  C18 UNK     1      20.240  -0.965  29.478  1.00  0.00     0.073 A 
HETATM   23  C16 UNK     1      20.420  -0.282  30.681  1.00  0.00     0.069 A 
HETATM   24  C14 UNK     1      19.797   0.950  30.883  1.00  0.00     0.053 A 
BRANCH  21  25
HETATM   25  O4  UNK     1      19.264  -1.083  27.303  1.00  0.00    -0.361 OA
HETATM   26  H14 UNK     1      18.341  -1.381  27.243  1.00  0.00     0.217 HD
ENDBRANCH  21  25
BRANCH  23  27
HETATM   27  O3  UNK     1      21.203  -0.817  31.657  1.00  0.00    -0.361 OA
HETATM   28  H13 UNK     1      21.345  -0.150  32.350  1.00  0.00     0.217 HD
ENDBRANCH  23  27
ENDBRANCH   3  19
TORSDOF 5
ENDMDL
MODEL 10
REMARK VINA RESULT:      -9.3     15.078     20.539
REMARK  5 active torsions:
REMARK  status: ('A' for Active; 'I' for Inactive)
REMARK    1  A    between atoms: C16_23  and  O3_3 
REMARK    2  A    between atoms: C17_24  and  O4_4 
REMARK       I    between atoms: C15_22  and  N1_6 
REMARK    3  A    between atoms: N1_6  and  N2_7 
REMARK    4  A    between atoms: C11_18  and  C7_14 
REMARK    5  A    between atoms: C12_19  and  C15_22 
ROOT
HETATM    1  O5  UNK     1      17.665  -1.394  17.246  1.00  0.00    -0.266 OA
HETATM    2  N1  UNK     1      19.361  -0.465  16.010  1.00  0.00    -0.243 N 
HETATM    3  C15 UNK     1      18.592  -0.586  17.160  1.00  0.00     0.271 C 
HETATM    4  H12 UNK     1      20.090   0.228  15.885  1.00  0.00     0.192 HD
ENDROOT
BRANCH   2   5
HETATM    5  N2  UNK     1      19.077  -1.265  14.952  1.00  0.00    -0.183 NA
HETATM    6  C11 UNK     1      19.949  -1.207  13.999  1.00  0.00     0.156 C 
BRANCH   6   7
HETATM    7  C7  UNK     1      19.824  -1.992  12.771  1.00  0.00     0.056 A 
HETATM    8  C5  UNK     1      20.700  -1.813  11.592  1.00  0.00     0.198 A 
HETATM    9  C1  UNK     1      20.425  -2.695  10.443  1.00  0.00     0.049 A 
HETATM   10  O2  UNK     1      21.600  -0.984  11.569  1.00  0.00    -0.286 OA
HETATM   11  C2  UNK     1      19.383  -3.620  10.532  1.00  0.00     0.089 A 
HETATM   12  C4  UNK     1      21.194  -2.610   9.280  1.00  0.00     0.025 A 
HETATM   13  O1  UNK     1      18.596  -3.748  11.650  1.00  0.00    -0.321 OA
HETATM   14  C6  UNK     1      19.104  -4.464   9.457  1.00  0.00     0.039 A 
HETATM   15  C9  UNK     1      18.864  -2.920  12.715  1.00  0.00     0.159 A 
HETATM   16  C8  UNK     1      19.870  -4.380   8.294  1.00  0.00     0.009 A 
HETATM   17  C3  UNK     1      20.912  -3.457   8.206  1.00  0.00    -0.061 A 
HETATM   18  C10 UNK     1      21.727  -3.372   6.959  1.00  0.00     0.048 C 
ENDBRANCH   6   7
ENDBRANCH   2   5
BRANCH   3  19
HETATM   19  C12 UNK     1      18.938   0.331  18.256  1.00  0.00     0.039 A 
HETATM   20  C13 UNK     1      19.035   1.691  18.003  1.00  0.00     0.053 A 
HETATM   21  C17 UNK     1      19.363   2.560  19.043  1.00  0.00     0.069 A 
HETATM   22  C18 UNK     1      19.591   2.060  20.326  1.00  0.00     0.073 A 
HETATM   23  C16 UNK     1      19.490   0.690  20.568  1.00  0.00     0.069 A 
HETATM   24  C14 UNK     1      19.162  -0.180  19.527  1.00  0.00     0.053 A 
BRANCH  21  25
HETATM   25  O4  UNK     1      19.461   3.898  18.808  1.00  0.00    -0.361 OA
HETATM   26  H14 UNK     1      19.702   4.038  17.877  1.00  0.00     0.217 HD
ENDBRANCH  21  25
BRANCH  23  27
HETATM   27  O3  UNK     1      19.711   0.201  21.819  1.00  0.00    -0.361 OA
HETATM   28  H13 UNK     1      20.181   0.872  22.342  1.00  0.00     0.217 HD
ENDBRANCH  23  27
ENDBRANCH   3  19
TORSDOF 5
ENDMDL
