MODEL 1
REMARK VINA RESULT:      -9.3      0.000      0.000
REMARK  4 active torsions:
REMARK  status: ('A' for Active; 'I' for Inactive)
REMARK    1  A    between atoms: C3_7  and  O1_1 
REMARK    2  A    between atoms: C6_10  and  O1_1 
REMARK    3  A    between atoms: C4_8  and  C9_13 
REMARK    4  A    between atoms: C6_10  and  C9_13 
ROOT
HETATM    1  O2  UNK     1      19.964  -1.219  32.639  1.00  0.00    -0.275 OA
HETATM    2  O4  UNK     1      20.632  -2.910  34.032  1.00  0.00    -0.260 OA
HETATM    3  C1  UNK     1      20.270  -1.473  30.238  1.00  0.00    -0.002 A 
HETATM    4  C2  UNK     1      19.838  -0.721  31.327  1.00  0.00     0.092 A 
HETATM    5  C3  UNK     1      19.132   1.061  29.880  1.00  0.00     0.072 A 
HETATM    6  C5  UNK     1      19.271   0.542  31.166  1.00  0.00     0.075 A 
HETATM    7  C7  UNK     1      20.127  -0.945  28.952  1.00  0.00     0.017 A 
HETATM    8  C8  UNK     1      19.559   0.320  28.777  1.00  0.00     0.038 A 
HETATM    9  C13 UNK     1      20.853  -2.782  30.478  1.00  0.00     0.020 A 
HETATM   10  C16 UNK     1      20.970  -3.247  31.726  1.00  0.00     0.083 A 
HETATM   11  C18 UNK     1      20.518  -2.469  32.894  1.00  0.00     0.288 A 
ENDROOT
BRANCH   5  12
HETATM   12  O1  UNK     1      18.582   2.293  29.699  1.00  0.00    -0.344 OA
BRANCH  12  13
HETATM   13  C6  UNK     1      18.326   3.068  30.869  1.00  0.00     0.259 C 
BRANCH  13  14
HETATM   14  C9  UNK     1      18.802   4.493  30.663  1.00  0.00     0.183 C 
HETATM   15  O3  UNK     1      19.099   4.919  29.550  1.00  0.00    -0.290 OA
BRANCH  14  16
HETATM   16  C4  UNK     1      18.909   5.392  31.849  1.00  0.00     0.012 A 
HETATM   17  C11 UNK     1      20.073   6.103  32.035  1.00  0.00     0.016 A 
HETATM   18  C14 UNK     1      20.173   6.943  33.144  1.00  0.00     0.007 A 
HETATM   19  C10 UNK     1      19.106   7.052  34.035  1.00  0.00    -0.062 A 
HETATM   20  C15 UNK     1      17.940   6.318  33.819  1.00  0.00     0.007 A 
HETATM   21  C17 UNK     1      19.213   7.950  35.222  1.00  0.00     0.048 C 
HETATM   22  C12 UNK     1      17.840   5.477  32.711  1.00  0.00     0.016 A 
ENDBRANCH  14  16
ENDBRANCH  13  14
ENDBRANCH  12  13
ENDBRANCH   5  12
TORSDOF 4
ENDMDL
MODEL 2
REMARK VINA RESULT:      -9.3      2.304      7.989
REMARK  4 active torsions:
REMARK  status: ('A' for Active; 'I' for Inactive)
REMARK    1  A    between atoms: C3_7  and  O1_1 
REMARK    2  A    between atoms: C6_10  and  O1_1 
REMARK    3  A    between atoms: C4_8  and  C9_13 
REMARK    4  A    between atoms: C6_10  and  C9_13 
ROOT
HETATM    1  O2  UNK     1      17.380   6.811  33.843  1.00  0.00    -0.275 OA
HETATM    2  O4  UNK     1      16.790   8.059  35.672  1.00  0.00    -0.260 OA
HETATM    3  C1  UNK     1      19.673   6.909  33.034  1.00  0.00    -0.002 A 
HETATM    4  C2  UNK     1      18.376   6.413  32.930  1.00  0.00     0.092 A 
HETATM    5  C3  UNK     1      18.978   5.098  31.012  1.00  0.00     0.072 A 
HETATM    6  C5  UNK     1      18.014   5.512  31.929  1.00  0.00     0.075 A 
HETATM    7  C7  UNK     1      20.634   6.489  32.110  1.00  0.00     0.017 A 
HETATM    8  C8  UNK     1      20.284   5.586  31.102  1.00  0.00     0.038 A 
HETATM    9  C13 UNK     1      19.981   7.846  34.101  1.00  0.00     0.020 A 
HETATM   10  C16 UNK     1      19.031   8.220  34.962  1.00  0.00     0.083 A 
HETATM   11  C18 UNK     1      17.651   7.707  34.872  1.00  0.00     0.288 A 
ENDROOT
BRANCH   5  12
HETATM   12  O1  UNK     1      18.647   4.221  30.027  1.00  0.00    -0.344 OA
BRANCH  12  13
HETATM   13  C6  UNK     1      18.212   2.923  30.431  1.00  0.00     0.259 C 
BRANCH  13  14
HETATM   14  C9  UNK     1      18.484   1.917  29.329  1.00  0.00     0.183 C 
HETATM   15  O3  UNK     1      18.173   2.139  28.162  1.00  0.00    -0.290 OA
BRANCH  14  16
HETATM   16  C4  UNK     1      19.146   0.629  29.683  1.00  0.00     0.012 A 
HETATM   17  C11 UNK     1      19.262   0.289  31.012  1.00  0.00     0.016 A 
HETATM   18  C14 UNK     1      19.881  -0.917  31.343  1.00  0.00     0.007 A 
HETATM   19  C10 UNK     1      20.365  -1.751  30.336  1.00  0.00    -0.062 A 
HETATM   20  C15 UNK     1      20.232  -1.379  28.998  1.00  0.00     0.007 A 
HETATM   21  C17 UNK     1      21.028  -3.040  30.689  1.00  0.00     0.048 C 
HETATM   22  C12 UNK     1      19.615  -0.174  28.667  1.00  0.00     0.016 A 
ENDBRANCH  14  16
ENDBRANCH  13  14
ENDBRANCH  12  13
ENDBRANCH   5  12
TORSDOF 4
ENDMDL
MODEL 3
REMARK VINA RESULT:      -9.2      2.419      8.260
REMARK  4 active torsions:
REMARK  status: ('A' for Active; 'I' for Inactive)
REMARK    1  A    between atoms: C3_7  and  O1_1 
REMARK    2  A    between atoms: C6_10  and  O1_1 
REMARK    3  A    between atoms: C4_8  and  C9_13 
REMARK    4  A    between atoms: C6_10  and  C9_13 
ROOT
HETATM    1  O2  UNK     1      17.252   7.848  32.891  1.00  0.00    -0.275 OA
HETATM    2  O4  UNK     1      16.384   9.491  34.231  1.00  0.00    -0.260 OA
HETATM    3  C1  UNK     1      19.608   7.276  33.095  1.00  0.00    -0.002 A 
HETATM    4  C2  UNK     1      18.366   7.081  32.497  1.00  0.00     0.092 A 
HETATM    5  C3  UNK     1      19.260   5.356  31.085  1.00  0.00     0.072 A 
HETATM    6  C5  UNK     1      18.177   6.130  31.495  1.00  0.00     0.075 A 
HETATM    7  C7  UNK     1      20.690   6.496  32.678  1.00  0.00     0.017 A 
HETATM    8  C8  UNK     1      20.513   5.539  31.675  1.00  0.00     0.038 A 
HETATM    9  C13 UNK     1      19.735   8.285  34.133  1.00  0.00     0.020 A 
HETATM   10  C16 UNK     1      18.674   9.009  34.500  1.00  0.00     0.083 A 
HETATM   11  C18 UNK     1      17.349   8.819  33.882  1.00  0.00     0.288 A 
ENDROOT
BRANCH   5  12
HETATM   12  O1  UNK     1      19.099   4.423  30.108  1.00  0.00    -0.344 OA
BRANCH  12  13
HETATM   13  C6  UNK     1      18.292   3.289  30.420  1.00  0.00     0.259 C 
BRANCH  13  14
HETATM   14  C9  UNK     1      18.407   2.251  29.320  1.00  0.00     0.183 C 
HETATM   15  O3  UNK     1      17.988   2.464  28.185  1.00  0.00    -0.290 OA
BRANCH  14  16
HETATM   16  C4  UNK     1      19.045   0.940  29.635  1.00  0.00     0.012 A 
HETATM   17  C11 UNK     1      19.453   0.137  28.593  1.00  0.00     0.016 A 
HETATM   18  C14 UNK     1      20.050  -1.089  28.888  1.00  0.00     0.007 A 
HETATM   19  C10 UNK     1      20.225  -1.477  30.216  1.00  0.00    -0.062 A 
HETATM   20  C15 UNK     1      19.801  -0.641  31.249  1.00  0.00     0.007 A 
HETATM   21  C17 UNK     1      20.863  -2.788  30.532  1.00  0.00     0.048 C 
HETATM   22  C12 UNK     1      19.204   0.583  30.955  1.00  0.00     0.016 A 
ENDBRANCH  14  16
ENDBRANCH  13  14
ENDBRANCH  12  13
ENDBRANCH   5  12
TORSDOF 4
ENDMDL
MODEL 4
REMARK VINA RESULT:      -9.1      1.112      1.323
REMARK  4 active torsions:
REMARK  status: ('A' for Active; 'I' for Inactive)
REMARK    1  A    between atoms: C3_7  and  O1_1 
REMARK    2  A    between atoms: C6_10  and  O1_1 
REMARK    3  A    between atoms: C4_8  and  C9_13 
REMARK    4  A    between atoms: C6_10  and  C9_13 
ROOT
HETATM    1  O2  UNK     1      20.047  -0.833  32.337  1.00  0.00    -0.275 OA
HETATM    2  O4  UNK     1      20.854  -2.832  33.113  1.00  0.00    -0.260 OA
HETATM    3  C1  UNK     1      19.819  -0.502  29.937  1.00  0.00    -0.002 A 
HETATM    4  C2  UNK     1      19.689  -0.027  31.239  1.00  0.00     0.092 A 
HETATM    5  C3  UNK     1      18.842   2.074  30.440  1.00  0.00     0.072 A 
HETATM    6  C5  UNK     1      19.205   1.253  31.506  1.00  0.00     0.075 A 
HETATM    7  C7  UNK     1      19.452   0.327  28.874  1.00  0.00     0.017 A 
HETATM    8  C8  UNK     1      18.965   1.612  29.128  1.00  0.00     0.038 A 
HETATM    9  C13 UNK     1      20.330  -1.847  29.730  1.00  0.00     0.020 A 
HETATM   10  C16 UNK     1      20.669  -2.605  30.777  1.00  0.00     0.083 A 
HETATM   11  C18 UNK     1      20.539  -2.123  32.164  1.00  0.00     0.288 A 
ENDROOT
BRANCH   5  12
HETATM   12  O1  UNK     1      18.368   3.327  30.678  1.00  0.00    -0.344 OA
BRANCH  12  13
HETATM   13  C6  UNK     1      18.753   4.352  29.763  1.00  0.00     0.259 C 
BRANCH  13  14
HETATM   14  C9  UNK     1      19.500   5.450  30.495  1.00  0.00     0.183 C 
HETATM   15  O3  UNK     1      20.598   5.849  30.115  1.00  0.00    -0.290 OA
BRANCH  14  16
HETATM   16  C4  UNK     1      18.877   6.054  31.709  1.00  0.00     0.012 A 
HETATM   17  C11 UNK     1      19.570   6.011  32.898  1.00  0.00     0.016 A 
HETATM   18  C14 UNK     1      18.987   6.576  34.032  1.00  0.00     0.007 A 
HETATM   19  C10 UNK     1      17.728   7.170  33.947  1.00  0.00    -0.062 A 
HETATM   20  C15 UNK     1      17.051   7.198  32.727  1.00  0.00     0.007 A 
HETATM   21  C17 UNK     1      17.104   7.774  35.160  1.00  0.00     0.048 C 
HETATM   22  C12 UNK     1      17.633   6.633  31.594  1.00  0.00     0.016 A 
ENDBRANCH  14  16
ENDBRANCH  13  14
ENDBRANCH  12  13
ENDBRANCH   5  12
TORSDOF 4
ENDMDL
MODEL 5
REMARK VINA RESULT:      -9.0      1.716      2.273
REMARK  4 active torsions:
REMARK  status: ('A' for Active; 'I' for Inactive)
REMARK    1  A    between atoms: C3_7  and  O1_1 
REMARK    2  A    between atoms: C6_10  and  O1_1 
REMARK    3  A    between atoms: C4_8  and  C9_13 
REMARK    4  A    between atoms: C6_10  and  C9_13 
ROOT
HETATM    1  O2  UNK     1      19.902  -0.694  31.949  1.00  0.00    -0.275 OA
HETATM    2  O4  UNK     1      20.957  -2.716  32.170  1.00  0.00    -0.260 OA
HETATM    3  C1  UNK     1      19.542   0.215  29.721  1.00  0.00    -0.002 A 
HETATM    4  C2  UNK     1      19.413   0.320  31.103  1.00  0.00     0.092 A 
HETATM    5  C3  UNK     1      18.305   2.441  30.889  1.00  0.00     0.072 A 
HETATM    6  C5  UNK     1      18.801   1.422  31.700  1.00  0.00     0.075 A 
HETATM    7  C7  UNK     1      19.042   1.241  28.915  1.00  0.00     0.017 A 
HETATM    8  C8  UNK     1      18.426   2.350  29.500  1.00  0.00     0.038 A 
HETATM    9  C13 UNK     1      20.191  -0.961  29.165  1.00  0.00     0.020 A 
HETATM   10  C16 UNK     1      20.654  -1.918  29.975  1.00  0.00     0.083 A 
HETATM   11  C18 UNK     1      20.527  -1.828  31.441  1.00  0.00     0.288 A 
ENDROOT
BRANCH   5  12
HETATM   12  O1  UNK     1      17.706   3.525  31.450  1.00  0.00    -0.344 OA
BRANCH  12  13
HETATM   13  C6  UNK     1      18.514   4.685  31.647  1.00  0.00     0.259 C 
BRANCH  13  14
HETATM   14  C9  UNK     1      18.390   5.167  33.080  1.00  0.00     0.183 C 
HETATM   15  O3  UNK     1      18.246   4.382  34.014  1.00  0.00    -0.290 OA
BRANCH  14  16
HETATM   16  C4  UNK     1      18.446   6.632  33.351  1.00  0.00     0.012 A 
HETATM   17  C11 UNK     1      19.591   7.158  33.906  1.00  0.00     0.016 A 
HETATM   18  C14 UNK     1      19.643   8.529  34.159  1.00  0.00     0.007 A 
HETATM   19  C10 UNK     1      18.549   9.337  33.849  1.00  0.00    -0.062 A 
HETATM   20  C15 UNK     1      17.403   8.774  33.288  1.00  0.00     0.007 A 
HETATM   21  C17 UNK     1      18.603  10.803  34.121  1.00  0.00     0.048 C 
HETATM   22  C12 UNK     1      17.351   7.404  33.035  1.00  0.00     0.016 A 
ENDBRANCH  14  16
ENDBRANCH  13  14
ENDBRANCH  12  13
ENDBRANCH   5  12
TORSDOF 4
ENDMDL
MODEL 6
REMARK VINA RESULT:      -8.6     22.485     24.823
REMARK  4 active torsions:
REMARK  status: ('A' for Active; 'I' for Inactive)
REMARK    1  A    between atoms: C3_7  and  O1_1 
REMARK    2  A    between atoms: C6_10  and  O1_1 
REMARK    3  A    between atoms: C4_8  and  C9_13 
REMARK    4  A    between atoms: C6_10  and  C9_13 
ROOT
HETATM    1  O2  UNK     1       9.642   5.574   8.694  1.00  0.00    -0.275 OA
HETATM    2  O4  UNK     1       7.483   5.562   7.929  1.00  0.00    -0.260 OA
HETATM    3  C1  UNK     1      11.438   6.148   7.156  1.00  0.00    -0.002 A 
HETATM    4  C2  UNK     1      11.011   5.776   8.427  1.00  0.00     0.092 A 
HETATM    5  C3  UNK     1      13.269   5.785   9.244  1.00  0.00     0.072 A 
HETATM    6  C5  UNK     1      11.909   5.591   9.477  1.00  0.00     0.075 A 
HETATM    7  C7  UNK     1      12.804   6.341   6.931  1.00  0.00     0.017 A 
HETATM    8  C8  UNK     1      13.715   6.159   7.975  1.00  0.00     0.038 A 
HETATM    9  C13 UNK     1      10.448   6.324   6.107  1.00  0.00     0.020 A 
HETATM   10  C16 UNK     1       9.152   6.129   6.367  1.00  0.00     0.083 A 
HETATM   11  C18 UNK     1       8.676   5.736   7.706  1.00  0.00     0.288 A 
ENDROOT
BRANCH   5  12
HETATM   12  O1  UNK     1      14.163   5.609  10.254  1.00  0.00    -0.344 OA
BRANCH  12  13
HETATM   13  C6  UNK     1      15.452   6.200  10.092  1.00  0.00     0.259 C 
BRANCH  13  14
HETATM   14  C9  UNK     1      15.477   7.576  10.729  1.00  0.00     0.183 C 
HETATM   15  O3  UNK     1      15.213   7.742  11.917  1.00  0.00    -0.290 OA
BRANCH  14  16
HETATM   16  C4  UNK     1      15.829   8.751   9.881  1.00  0.00     0.012 A 
HETATM   17  C11 UNK     1      14.847   9.321   9.101  1.00  0.00     0.016 A 
HETATM   18  C14 UNK     1      15.177  10.420   8.308  1.00  0.00     0.007 A 
HETATM   19  C10 UNK     1      16.478  10.922   8.319  1.00  0.00    -0.062 A 
HETATM   20  C15 UNK     1      17.450  10.323   9.121  1.00  0.00     0.007 A 
HETATM   21  C17 UNK     1      16.831  12.098   7.471  1.00  0.00     0.048 C 
HETATM   22  C12 UNK     1      17.121   9.224   9.912  1.00  0.00     0.016 A 
ENDBRANCH  14  16
ENDBRANCH  13  14
ENDBRANCH  12  13
ENDBRANCH   5  12
TORSDOF 4
ENDMDL
MODEL 7
REMARK VINA RESULT:      -8.6      5.416      8.785
REMARK  4 active torsions:
REMARK  status: ('A' for Active; 'I' for Inactive)
REMARK    1  A    between atoms: C3_7  and  O1_1 
REMARK    2  A    between atoms: C6_10  and  O1_1 
REMARK    3  A    between atoms: C4_8  and  C9_13 
REMARK    4  A    between atoms: C6_10  and  C9_13 
ROOT
HETATM    1  O2  UNK     1      20.928  -8.314  34.937  1.00  0.00    -0.275 OA
HETATM    2  O4  UNK     1      21.714 -10.340  34.211  1.00  0.00    -0.260 OA
HETATM    3  C1  UNK     1      21.579  -7.514  37.140  1.00  0.00    -0.002 A 
HETATM    4  C2  UNK     1      20.880  -7.336  35.949  1.00  0.00     0.092 A 
HETATM    5  C3  UNK     1      20.048  -5.210  36.695  1.00  0.00     0.072 A 
HETATM    6  C5  UNK     1      20.114  -6.196  35.713  1.00  0.00     0.075 A 
HETATM    7  C7  UNK     1      21.508  -6.520  38.120  1.00  0.00     0.017 A 
HETATM    8  C8  UNK     1      20.744  -5.372  37.895  1.00  0.00     0.038 A 
HETATM    9  C13 UNK     1      22.359  -8.726  37.321  1.00  0.00     0.020 A 
HETATM   10  C16 UNK     1      22.398  -9.650  36.356  1.00  0.00     0.083 A 
HETATM   11  C18 UNK     1      21.667  -9.483  35.086  1.00  0.00     0.288 A 
ENDROOT
BRANCH   5  12
HETATM   12  O1  UNK     1      19.305  -4.090  36.486  1.00  0.00    -0.344 OA
BRANCH  12  13
HETATM   13  C6  UNK     1      19.977  -2.836  36.585  1.00  0.00     0.259 C 
BRANCH  13  14
HETATM   14  C9  UNK     1      19.288  -1.806  35.711  1.00  0.00     0.183 C 
HETATM   15  O3  UNK     1      18.510  -0.978  36.180  1.00  0.00    -0.290 OA
BRANCH  14  16
HETATM   16  C4  UNK     1      19.566  -1.808  34.246  1.00  0.00     0.012 A 
HETATM   17  C11 UNK     1      20.629  -2.546  33.776  1.00  0.00     0.016 A 
HETATM   18  C14 UNK     1      20.889  -2.547  32.405  1.00  0.00     0.007 A 
HETATM   19  C10 UNK     1      20.077  -1.812  31.541  1.00  0.00    -0.062 A 
HETATM   20  C15 UNK     1      19.007  -1.075  32.048  1.00  0.00     0.007 A 
HETATM   21  C17 UNK     1      20.355  -1.813  30.076  1.00  0.00     0.048 C 
HETATM   22  C12 UNK     1      18.748  -1.072  33.417  1.00  0.00     0.016 A 
ENDBRANCH  14  16
ENDBRANCH  13  14
ENDBRANCH  12  13
ENDBRANCH   5  12
TORSDOF 4
ENDMDL
MODEL 8
REMARK VINA RESULT:      -8.5      2.043      3.393
REMARK  4 active torsions:
REMARK  status: ('A' for Active; 'I' for Inactive)
REMARK    1  A    between atoms: C3_7  and  O1_1 
REMARK    2  A    between atoms: C6_10  and  O1_1 
REMARK    3  A    between atoms: C4_8  and  C9_13 
REMARK    4  A    between atoms: C6_10  and  C9_13 
ROOT
HETATM    1  O2  UNK     1      18.224  -0.676  34.803  1.00  0.00    -0.275 OA
HETATM    2  O4  UNK     1      17.702  -0.853  37.027  1.00  0.00    -0.260 OA
HETATM    3  C1  UNK     1      19.985  -2.082  33.886  1.00  0.00    -0.002 A 
HETATM    4  C2  UNK     1      19.013  -1.100  33.716  1.00  0.00     0.092 A 
HETATM    5  C3  UNK     1      19.547  -0.903  31.383  1.00  0.00     0.072 A 
HETATM    6  C5  UNK     1      18.783  -0.504  32.477  1.00  0.00     0.075 A 
HETATM    7  C7  UNK     1      20.748  -2.477  32.784  1.00  0.00     0.017 A 
HETATM    8  C8  UNK     1      20.527  -1.887  31.536  1.00  0.00     0.038 A 
HETATM    9  C13 UNK     1      20.173  -2.662  35.206  1.00  0.00     0.020 A 
HETATM   10  C16 UNK     1      19.421  -2.253  36.232  1.00  0.00     0.083 A 
HETATM   11  C18 UNK     1      18.384  -1.216  36.075  1.00  0.00     0.288 A 
ENDROOT
BRANCH   5  12
HETATM   12  O1  UNK     1      19.341  -0.333  30.165  1.00  0.00    -0.344 OA
BRANCH  12  13
HETATM   13  C6  UNK     1      19.760   1.021  30.002  1.00  0.00     0.259 C 
BRANCH  13  14
HETATM   14  C9  UNK     1      18.550   1.933  29.925  1.00  0.00     0.183 C 
HETATM   15  O3  UNK     1      17.539   1.613  29.306  1.00  0.00    -0.290 OA
BRANCH  14  16
HETATM   16  C4  UNK     1      18.601   3.251  30.623  1.00  0.00     0.012 A 
HETATM   17  C11 UNK     1      18.151   3.328  31.922  1.00  0.00     0.016 A 
HETATM   18  C14 UNK     1      18.199   4.561  32.573  1.00  0.00     0.007 A 
HETATM   19  C10 UNK     1      18.697   5.682  31.909  1.00  0.00    -0.062 A 
HETATM   20  C15 UNK     1      19.145   5.571  30.593  1.00  0.00     0.007 A 
HETATM   21  C17 UNK     1      18.747   7.000  32.606  1.00  0.00     0.048 C 
HETATM   22  C12 UNK     1      19.097   4.339  29.941  1.00  0.00     0.016 A 
ENDBRANCH  14  16
ENDBRANCH  13  14
ENDBRANCH  12  13
ENDBRANCH   5  12
TORSDOF 4
ENDMDL
MODEL 9
REMARK VINA RESULT:      -8.5      4.191      8.936
REMARK  4 active torsions:
REMARK  status: ('A' for Active; 'I' for Inactive)
REMARK    1  A    between atoms: C3_7  and  O1_1 
REMARK    2  A    between atoms: C6_10  and  O1_1 
REMARK    3  A    between atoms: C4_8  and  C9_13 
REMARK    4  A    between atoms: C6_10  and  C9_13 
ROOT
HETATM    1  O2  UNK     1      18.723   0.589  30.824  1.00  0.00    -0.275 OA
HETATM    2  O4  UNK     1      18.450   1.746  28.866  1.00  0.00    -0.260 OA
HETATM    3  C1  UNK     1      20.189  -1.353  30.855  1.00  0.00    -0.002 A 
HETATM    4  C2  UNK     1      19.323  -0.483  31.512  1.00  0.00     0.092 A 
HETATM    5  C3  UNK     1      19.599  -1.686  33.573  1.00  0.00     0.072 A 
HETATM    6  C5  UNK     1      19.019  -0.636  32.864  1.00  0.00     0.075 A 
HETATM    7  C7  UNK     1      20.766  -2.404  31.572  1.00  0.00     0.017 A 
HETATM    8  C8  UNK     1      20.470  -2.568  32.928  1.00  0.00     0.038 A 
HETATM    9  C13 UNK     1      20.462  -1.136  29.444  1.00  0.00     0.020 A 
HETATM   10  C16 UNK     1      19.887  -0.118  28.797  1.00  0.00     0.083 A 
HETATM   11  C18 UNK     1      18.968   0.816  29.473  1.00  0.00     0.288 A 
ENDROOT
BRANCH   5  12
HETATM   12  O1  UNK     1      19.315  -1.855  34.893  1.00  0.00    -0.344 OA
BRANCH  12  13
HETATM   13  C6  UNK     1      20.421  -2.002  35.782  1.00  0.00     0.259 C 
BRANCH  13  14
HETATM   14  C9  UNK     1      20.043  -2.909  36.937  1.00  0.00     0.183 C 
HETATM   15  O3  UNK     1      19.488  -2.475  37.944  1.00  0.00    -0.290 OA
BRANCH  14  16
HETATM   16  C4  UNK     1      20.358  -4.363  36.839  1.00  0.00     0.012 A 
HETATM   17  C11 UNK     1      19.800  -5.092  35.813  1.00  0.00     0.016 A 
HETATM   18  C14 UNK     1      20.095  -6.453  35.721  1.00  0.00     0.007 A 
HETATM   19  C10 UNK     1      20.940  -7.047  36.658  1.00  0.00    -0.062 A 
HETATM   20  C15 UNK     1      21.489  -6.282  37.687  1.00  0.00     0.007 A 
HETATM   21  C17 UNK     1      21.255  -8.502  36.561  1.00  0.00     0.048 C 
HETATM   22  C12 UNK     1      21.194  -4.923  37.779  1.00  0.00     0.016 A 
ENDBRANCH  14  16
ENDBRANCH  13  14
ENDBRANCH  12  13
ENDBRANCH   5  12
TORSDOF 4
ENDMDL
MODEL 10
REMARK VINA RESULT:      -8.4      6.148      9.059
REMARK  4 active torsions:
REMARK  status: ('A' for Active; 'I' for Inactive)
REMARK    1  A    between atoms: C3_7  and  O1_1 
REMARK    2  A    between atoms: C6_10  and  O1_1 
REMARK    3  A    between atoms: C4_8  and  C9_13 
REMARK    4  A    between atoms: C6_10  and  C9_13 
ROOT
HETATM    1  O2  UNK     1      21.154  -8.702  35.039  1.00  0.00    -0.275 OA
HETATM    2  O4  UNK     1      21.899 -10.705  34.214  1.00  0.00    -0.260 OA
HETATM    3  C1  UNK     1      20.745  -8.486  37.428  1.00  0.00    -0.002 A 
HETATM    4  C2  UNK     1      20.755  -7.934  36.150  1.00  0.00     0.092 A 
HETATM    5  C3  UNK     1      19.974  -5.827  37.000  1.00  0.00     0.072 A 
HETATM    6  C5  UNK     1      20.373  -6.613  35.920  1.00  0.00     0.075 A 
HETATM    7  C7  UNK     1      20.344  -7.691  38.505  1.00  0.00     0.017 A 
HETATM    8  C8  UNK     1      19.959  -6.365  38.288  1.00  0.00     0.038 A 
HETATM    9  C13 UNK     1      21.155  -9.870  37.596  1.00  0.00     0.020 A 
HETATM   10  C16 UNK     1      21.531 -10.593  36.537  1.00  0.00     0.083 A 
HETATM   11  C18 UNK     1      21.550 -10.029  35.175  1.00  0.00     0.288 A 
ENDROOT
BRANCH   5  12
HETATM   12  O1  UNK     1      19.597  -4.536  36.798  1.00  0.00    -0.344 OA
BRANCH  12  13
HETATM   13  C6  UNK     1      20.546  -3.522  37.126  1.00  0.00     0.259 C 
BRANCH  13  14
HETATM   14  C9  UNK     1      20.417  -2.358  36.162  1.00  0.00     0.183 C 
HETATM   15  O3  UNK     1      21.334  -2.040  35.408  1.00  0.00    -0.290 OA
BRANCH  14  16
HETATM   16  C4  UNK     1      19.142  -1.585  36.137  1.00  0.00     0.012 A 
HETATM   17  C11 UNK     1      18.489  -1.350  37.327  1.00  0.00     0.016 A 
HETATM   18  C14 UNK     1      17.297  -0.627  37.303  1.00  0.00     0.007 A 
HETATM   19  C10 UNK     1      16.790  -0.157  36.091  1.00  0.00    -0.062 A 
HETATM   20  C15 UNK     1      17.475  -0.413  34.903  1.00  0.00     0.007 A 
HETATM   21  C17 UNK     1      15.514   0.615  36.066  1.00  0.00     0.048 C 
HETATM   22  C12 UNK     1      18.666  -1.136  34.926  1.00  0.00     0.016 A 
ENDBRANCH  14  16
ENDBRANCH  13  14
ENDBRANCH  12  13
ENDBRANCH   5  12
TORSDOF 4
ENDMDL
