MODEL 1
REMARK VINA RESULT:      -8.1      0.000      0.000
REMARK  5 active torsions:
REMARK  status: ('A' for Active; 'I' for Inactive)
REMARK    1  A    between atoms: C7_15  and  O3_3 
REMARK    2  A    between atoms: C12_20  and  O4_4 
REMARK    3  A    between atoms: C15_23  and  O6_6 
REMARK    4  A    between atoms: C8_16  and  N1_7 
REMARK    5  A    between atoms: C1_9  and  C3_11 
ROOT
HETATM    1  O1  UNK     1      21.482  -2.730  17.617  1.00  0.00    -0.291 OA
HETATM    2  O2  UNK     1      17.715  -0.970  17.150  1.00  0.00    -0.274 OA
HETATM    3  O5  UNK     1      17.208  -2.480  15.519  1.00  0.00    -0.259 OA
HETATM    4  N2  UNK     1      21.754  -6.677  14.869  1.00  0.00    -0.191 NA
HETATM    5  C1  UNK     1      19.778  -3.779  15.558  1.00  0.00     0.111 C 
HETATM    6  C2  UNK     1      19.382  -2.633  16.472  1.00  0.00     0.066 A 
HETATM    7  C4  UNK     1      20.230  -2.182  17.408  1.00  0.00     0.104 A 
HETATM    8  C5  UNK     1      21.076  -4.447  16.002  1.00  0.00     0.086 C 
HETATM    9  C6  UNK     1      19.873  -1.060  18.272  1.00  0.00     0.033 A 
HETATM   10  C8  UNK     1      21.851  -3.909  16.971  1.00  0.00     0.159 C 
HETATM   11  C9  UNK     1      18.025  -2.046  16.325  1.00  0.00     0.298 A 
HETATM   12  C11 UNK     1      18.618  -0.479  18.112  1.00  0.00     0.092 A 
HETATM   13  C14 UNK     1      20.725  -0.533  19.251  1.00  0.00     0.017 A 
HETATM   14  C16 UNK     1      18.195   0.599  18.891  1.00  0.00     0.038 A 
HETATM   15  C17 UNK     1      21.450  -5.679  15.376  1.00  0.00     0.100 C 
HETATM   16  C18 UNK     1      20.315   0.547  20.040  1.00  0.00     0.001 A 
HETATM   17  C19 UNK     1      19.052   1.112  19.859  1.00  0.00     0.003 A 
ENDROOT
BRANCH   5  18
HETATM   18  C3  UNK     1      19.900  -3.303  14.141  1.00  0.00    -0.008 A 
HETATM   19  C10 UNK     1      20.861  -2.344  13.833  1.00  0.00     0.014 A 
HETATM   20  C13 UNK     1      20.989  -1.892  12.520  1.00  0.00     0.040 A 
HETATM   21  C15 UNK     1      20.158  -2.400  11.522  1.00  0.00     0.104 A 
HETATM   22  C12 UNK     1      19.197  -3.361  11.837  1.00  0.00     0.135 A 
HETATM   23  C7  UNK     1      19.068  -3.814  13.150  1.00  0.00     0.111 A 
BRANCH  21  24
HETATM   24  O6  UNK     1      20.292  -1.947  10.244  1.00  0.00    -0.353 OA
HETATM   25  C22 UNK     1      21.491  -2.299   9.555  1.00  0.00     0.210 C 
ENDBRANCH  21  24
BRANCH  22  26
HETATM   26  O4  UNK     1      18.384  -3.856  10.861  1.00  0.00    -0.351 OA
HETATM   27  C21 UNK     1      18.906  -4.913  10.060  1.00  0.00     0.210 C 
ENDBRANCH  22  26
BRANCH  23  28
HETATM   28  O3  UNK     1      18.126  -4.753  13.455  1.00  0.00    -0.352 OA
HETATM   29  C20 UNK     1      18.510  -6.119  13.326  1.00  0.00     0.210 C 
ENDBRANCH  23  28
ENDBRANCH   5  18
BRANCH  10  30
HETATM   30  N1  UNK     1      23.034  -4.432  17.416  1.00  0.00    -0.379 N 
HETATM   31  H6  UNK     1      23.341  -4.215  18.355  1.00  0.00     0.158 HD
HETATM   32  H7  UNK     1      23.598  -5.025  16.821  1.00  0.00     0.158 HD
ENDBRANCH  10  30
TORSDOF 5
ENDMDL
MODEL 2
REMARK VINA RESULT:      -7.9     20.589     23.824
REMARK  5 active torsions:
REMARK  status: ('A' for Active; 'I' for Inactive)
REMARK    1  A    between atoms: C7_15  and  O3_3 
REMARK    2  A    between atoms: C12_20  and  O4_4 
REMARK    3  A    between atoms: C15_23  and  O6_6 
REMARK    4  A    between atoms: C8_16  and  N1_7 
REMARK    5  A    between atoms: C1_9  and  C3_11 
ROOT
HETATM    1  O1  UNK     1      30.551  -5.204  37.043  1.00  0.00    -0.291 OA
HETATM    2  O2  UNK     1      30.743  -9.380  37.206  1.00  0.00    -0.274 OA
HETATM    3  O5  UNK     1      32.576  -9.352  35.851  1.00  0.00    -0.259 OA
HETATM    4  N2  UNK     1      34.377  -3.521  34.650  1.00  0.00    -0.191 NA
HETATM    5  C1  UNK     1      32.579  -6.498  35.475  1.00  0.00     0.111 C 
HETATM    6  C2  UNK     1      31.589  -7.247  36.348  1.00  0.00     0.066 A 
HETATM    7  C4  UNK     1      30.657  -6.583  37.048  1.00  0.00     0.104 A 
HETATM    8  C5  UNK     1      32.518  -4.989  35.700  1.00  0.00     0.086 C 
HETATM    9  C6  UNK     1      29.679  -7.294  37.867  1.00  0.00     0.033 A 
HETATM   10  C8  UNK     1      31.537  -4.425  36.440  1.00  0.00     0.159 C 
HETATM   11  C9  UNK     1      31.695  -8.726  36.432  1.00  0.00     0.298 A 
HETATM   12  C11 UNK     1      29.748  -8.684  37.918  1.00  0.00     0.092 A 
HETATM   13  C14 UNK     1      28.671  -6.656  38.602  1.00  0.00     0.017 A 
HETATM   14  C16 UNK     1      28.852  -9.444  38.670  1.00  0.00     0.038 A 
HETATM   15  C17 UNK     1      33.545  -4.179  35.119  1.00  0.00     0.100 C 
HETATM   16  C18 UNK     1      27.767  -7.405  39.362  1.00  0.00     0.001 A 
HETATM   17  C19 UNK     1      27.857  -8.796  39.395  1.00  0.00     0.003 A 
ENDROOT
BRANCH   5  18
HETATM   18  C3  UNK     1      32.348  -6.813  34.027  1.00  0.00    -0.008 A 
HETATM   19  C10 UNK     1      31.120  -6.493  33.456  1.00  0.00     0.014 A 
HETATM   20  C13 UNK     1      30.888  -6.778  32.110  1.00  0.00     0.040 A 
HETATM   21  C15 UNK     1      31.884  -7.382  31.343  1.00  0.00     0.104 A 
HETATM   22  C12 UNK     1      33.113  -7.700  31.922  1.00  0.00     0.135 A 
HETATM   23  C7  UNK     1      33.346  -7.415  33.267  1.00  0.00     0.111 A 
BRANCH  21  24
HETATM   24  O6  UNK     1      31.644  -7.657  30.031  1.00  0.00    -0.353 OA
HETATM   25  C22 UNK     1      31.353  -6.551  29.179  1.00  0.00     0.210 C 
ENDBRANCH  21  24
BRANCH  22  26
HETATM   26  O4  UNK     1      34.087  -8.292  31.171  1.00  0.00    -0.351 OA
HETATM   27  C21 UNK     1      34.847  -7.443  30.315  1.00  0.00     0.210 C 
ENDBRANCH  22  26
BRANCH  23  28
HETATM   28  O3  UNK     1      34.548  -7.730  33.831  1.00  0.00    -0.352 OA
HETATM   29  C20 UNK     1      35.591  -6.767  33.706  1.00  0.00     0.210 C 
ENDBRANCH  23  28
ENDBRANCH   5  18
BRANCH  10  30
HETATM   30  N1  UNK     1      31.400  -3.085  36.676  1.00  0.00    -0.379 N 
HETATM   31  H6  UNK     1      30.482  -2.720  36.899  1.00  0.00     0.158 HD
HETATM   32  H7  UNK     1      32.197  -2.463  36.630  1.00  0.00     0.158 HD
ENDBRANCH  10  30
TORSDOF 5
ENDMDL
MODEL 3
REMARK VINA RESULT:      -7.6      3.423      5.433
REMARK  5 active torsions:
REMARK  status: ('A' for Active; 'I' for Inactive)
REMARK    1  A    between atoms: C7_15  and  O3_3 
REMARK    2  A    between atoms: C12_20  and  O4_4 
REMARK    3  A    between atoms: C15_23  and  O6_6 
REMARK    4  A    between atoms: C8_16  and  N1_7 
REMARK    5  A    between atoms: C1_9  and  C3_11 
ROOT
HETATM    1  O1  UNK     1      21.140  -2.510  15.138  1.00  0.00    -0.291 OA
HETATM    2  O2  UNK     1      22.528  -6.267  16.345  1.00  0.00    -0.274 OA
HETATM    3  O5  UNK     1      21.369  -7.246  14.644  1.00  0.00    -0.259 OA
HETATM    4  N2  UNK     1      18.661  -2.964  11.033  1.00  0.00    -0.191 NA
HETATM    5  C1  UNK     1      20.178  -4.800  13.698  1.00  0.00     0.111 C 
HETATM    6  C2  UNK     1      21.152  -4.887  14.859  1.00  0.00     0.066 A 
HETATM    7  C4  UNK     1      21.555  -3.779  15.498  1.00  0.00     0.104 A 
HETATM    8  C5  UNK     1      19.948  -3.361  13.247  1.00  0.00     0.086 C 
HETATM    9  C6  UNK     1      22.468  -3.852  16.636  1.00  0.00     0.033 A 
HETATM   10  C8  UNK     1      20.413  -2.313  13.965  1.00  0.00     0.159 C 
HETATM   11  C9  UNK     1      21.672  -6.223  15.250  1.00  0.00     0.298 A 
HETATM   12  C11 UNK     1      22.927  -5.105  17.032  1.00  0.00     0.092 A 
HETATM   13  C14 UNK     1      22.905  -2.731  17.354  1.00  0.00     0.017 A 
HETATM   14  C16 UNK     1      23.797  -5.269  18.110  1.00  0.00     0.038 A 
HETATM   15  C17 UNK     1      19.237  -3.143  12.024  1.00  0.00     0.100 C 
HETATM   16  C18 UNK     1      23.778  -2.880  18.436  1.00  0.00     0.001 A 
HETATM   17  C19 UNK     1      24.222  -4.147  18.814  1.00  0.00     0.003 A 
ENDROOT
BRANCH   5  18
HETATM   18  C3  UNK     1      18.872  -5.443  14.059  1.00  0.00    -0.008 A 
HETATM   19  C10 UNK     1      18.173  -4.973  15.167  1.00  0.00     0.014 A 
HETATM   20  C13 UNK     1      16.956  -5.559  15.516  1.00  0.00     0.040 A 
HETATM   21  C15 UNK     1      16.444  -6.610  14.756  1.00  0.00     0.104 A 
HETATM   22  C12 UNK     1      17.149  -7.076  13.647  1.00  0.00     0.135 A 
HETATM   23  C7  UNK     1      18.366  -6.491  13.297  1.00  0.00     0.111 A 
BRANCH  21  24
HETATM   24  O6  UNK     1      15.256  -7.174  15.110  1.00  0.00    -0.353 OA
HETATM   25  C22 UNK     1      14.747  -6.857  16.404  1.00  0.00     0.210 C 
ENDBRANCH  21  24
BRANCH  22  26
HETATM   26  O4  UNK     1      16.648  -8.106  12.905  1.00  0.00    -0.351 OA
HETATM   27  C21 UNK     1      17.034  -9.424  13.285  1.00  0.00     0.210 C 
ENDBRANCH  22  26
BRANCH  23  28
HETATM   28  O3  UNK     1      19.055  -6.951  12.213  1.00  0.00    -0.352 OA
HETATM   29  C20 UNK     1      18.561  -6.579  10.929  1.00  0.00     0.210 C 
ENDBRANCH  23  28
ENDBRANCH   5  18
BRANCH  10  30
HETATM   30  N1  UNK     1      20.238  -0.996  13.641  1.00  0.00    -0.379 N 
HETATM   31  H6  UNK     1      20.977  -0.512  13.148  1.00  0.00     0.158 HD
HETATM   32  H7  UNK     1      19.387  -0.507  13.889  1.00  0.00     0.158 HD
ENDBRANCH  10  30
TORSDOF 5
ENDMDL
MODEL 4
REMARK VINA RESULT:      -7.6     19.253     22.151
REMARK  5 active torsions:
REMARK  status: ('A' for Active; 'I' for Inactive)
REMARK    1  A    between atoms: C7_15  and  O3_3 
REMARK    2  A    between atoms: C12_20  and  O4_4 
REMARK    3  A    between atoms: C15_23  and  O6_6 
REMARK    4  A    between atoms: C8_16  and  N1_7 
REMARK    5  A    between atoms: C1_9  and  C3_11 
ROOT
HETATM    1  O1  UNK     1      35.055  -6.396  33.189  1.00  0.00    -0.291 OA
HETATM    2  O2  UNK     1      32.609  -9.133  35.196  1.00  0.00    -0.274 OA
HETATM    3  O5  UNK     1      32.166 -10.188  33.225  1.00  0.00    -0.259 OA
HETATM    4  N2  UNK     1      35.466  -7.705  28.572  1.00  0.00    -0.191 NA
HETATM    5  C1  UNK     1      33.685  -8.357  31.602  1.00  0.00     0.111 C 
HETATM    6  C2  UNK     1      33.566  -8.268  33.113  1.00  0.00     0.066 A 
HETATM    7  C4  UNK     1      34.224  -7.320  33.795  1.00  0.00     0.104 A 
HETATM    8  C5  UNK     1      34.777  -7.441  31.056  1.00  0.00     0.086 C 
HETATM    9  C6  UNK     1      34.093  -7.205  35.245  1.00  0.00     0.033 A 
HETATM   10  C8  UNK     1      35.387  -6.525  31.842  1.00  0.00     0.159 C 
HETATM   11  C9  UNK     1      32.729  -9.273  33.818  1.00  0.00     0.298 A 
HETATM   12  C11 UNK     1      33.278  -8.118  35.908  1.00  0.00     0.092 A 
HETATM   13  C14 UNK     1      34.739  -6.223  36.007  1.00  0.00     0.017 A 
HETATM   14  C16 UNK     1      33.092  -8.080  37.289  1.00  0.00     0.038 A 
HETATM   15  C17 UNK     1      35.156  -7.588  29.684  1.00  0.00     0.100 C 
HETATM   16  C18 UNK     1      34.563  -6.172  37.394  1.00  0.00     0.001 A 
HETATM   17  C19 UNK     1      33.740  -7.099  38.033  1.00  0.00     0.003 A 
ENDROOT
BRANCH   5  18
HETATM   18  C3  UNK     1      32.371  -8.040  30.951  1.00  0.00    -0.008 A 
HETATM   19  C10 UNK     1      31.634  -6.956  31.417  1.00  0.00     0.014 A 
HETATM   20  C13 UNK     1      30.410  -6.645  30.823  1.00  0.00     0.040 A 
HETATM   21  C15 UNK     1      29.932  -7.419  29.766  1.00  0.00     0.104 A 
HETATM   22  C12 UNK     1      30.676  -8.504  29.304  1.00  0.00     0.135 A 
HETATM   23  C7  UNK     1      31.900  -8.815  29.897  1.00  0.00     0.111 A 
BRANCH  21  24
HETATM   24  O6  UNK     1      28.734  -7.107  29.197  1.00  0.00    -0.353 OA
HETATM   25  C22 UNK     1      27.689  -6.688  30.073  1.00  0.00     0.210 C 
ENDBRANCH  21  24
BRANCH  22  26
HETATM   26  O4  UNK     1      30.207  -9.262  28.271  1.00  0.00    -0.351 OA
HETATM   27  C21 UNK     1      29.176 -10.198  28.573  1.00  0.00     0.210 C 
ENDBRANCH  22  26
BRANCH  23  28
HETATM   28  O3  UNK     1      32.624  -9.879  29.444  1.00  0.00    -0.352 OA
HETATM   29  C20 UNK     1      32.357 -11.144  30.042  1.00  0.00     0.210 C 
ENDBRANCH  23  28
ENDBRANCH   5  18
BRANCH  10  30
HETATM   30  N1  UNK     1      36.360  -5.657  31.429  1.00  0.00    -0.379 N 
HETATM   31  H6  UNK     1      37.261  -6.028  31.154  1.00  0.00     0.158 HD
HETATM   32  H7  UNK     1      36.191  -4.660  31.399  1.00  0.00     0.158 HD
ENDBRANCH  10  30
TORSDOF 5
ENDMDL
MODEL 5
REMARK VINA RESULT:      -7.5     19.327     23.061
REMARK  5 active torsions:
REMARK  status: ('A' for Active; 'I' for Inactive)
REMARK    1  A    between atoms: C7_15  and  O3_3 
REMARK    2  A    between atoms: C12_20  and  O4_4 
REMARK    3  A    between atoms: C15_23  and  O6_6 
REMARK    4  A    between atoms: C8_16  and  N1_7 
REMARK    5  A    between atoms: C1_9  and  C3_11 
ROOT
HETATM    1  O1  UNK     1      32.676  -8.951  30.394  1.00  0.00    -0.291 OA
HETATM    2  O2  UNK     1      29.097  -7.067  31.462  1.00  0.00    -0.274 OA
HETATM    3  O5  UNK     1      30.237  -5.701  32.887  1.00  0.00    -0.259 OA
HETATM    4  N2  UNK     1      36.369  -6.667  32.481  1.00  0.00    -0.191 NA
HETATM    5  C1  UNK     1      32.804  -6.919  32.419  1.00  0.00     0.111 C 
HETATM    6  C2  UNK     1      31.518  -7.336  31.728  1.00  0.00     0.066 A 
HETATM    7  C4  UNK     1      31.524  -8.301  30.797  1.00  0.00     0.104 A 
HETATM    8  C5  UNK     1      34.035  -7.537  31.763  1.00  0.00     0.086 C 
HETATM    9  C6  UNK     1      30.289  -8.732  30.147  1.00  0.00     0.033 A 
HETATM   10  C8  UNK     1      33.924  -8.499  30.819  1.00  0.00     0.159 C 
HETATM   11  C9  UNK     1      30.260  -6.629  32.084  1.00  0.00     0.298 A 
HETATM   12  C11 UNK     1      29.101  -8.101  30.506  1.00  0.00     0.092 A 
HETATM   13  C14 UNK     1      30.232  -9.748  29.185  1.00  0.00     0.017 A 
HETATM   14  C16 UNK     1      27.875  -8.451  29.941  1.00  0.00     0.038 A 
HETATM   15  C17 UNK     1      35.324  -7.056  32.160  1.00  0.00     0.100 C 
HETATM   16  C18 UNK     1      29.010 -10.110  28.608  1.00  0.00     0.001 A 
HETATM   17  C19 UNK     1      27.834  -9.463  28.986  1.00  0.00     0.003 A 
ENDROOT
BRANCH   5  18
HETATM   18  C3  UNK     1      32.759  -7.279  33.874  1.00  0.00    -0.008 A 
HETATM   19  C10 UNK     1      32.564  -8.609  34.233  1.00  0.00     0.014 A 
HETATM   20  C13 UNK     1      32.520  -8.962  35.582  1.00  0.00     0.040 A 
HETATM   21  C15 UNK     1      32.673  -7.983  36.564  1.00  0.00     0.104 A 
HETATM   22  C12 UNK     1      32.868  -6.652  36.198  1.00  0.00     0.135 A 
HETATM   23  C7  UNK     1      32.911  -6.298  34.849  1.00  0.00     0.111 A 
BRANCH  21  24
HETATM   24  O6  UNK     1      32.626  -8.341  37.878  1.00  0.00    -0.353 OA
HETATM   25  C22 UNK     1      31.484  -9.080  38.308  1.00  0.00     0.210 C 
ENDBRANCH  21  24
BRANCH  22  26
HETATM   26  O4  UNK     1      33.015  -5.695  37.159  1.00  0.00    -0.351 OA
HETATM   27  C21 UNK     1      31.826  -5.080  37.646  1.00  0.00     0.210 C 
ENDBRANCH  22  26
BRANCH  23  28
HETATM   28  O3  UNK     1      33.100  -4.995  34.494  1.00  0.00    -0.352 OA
HETATM   29  C20 UNK     1      34.418  -4.472  34.634  1.00  0.00     0.210 C 
ENDBRANCH  23  28
ENDBRANCH   5  18
BRANCH  10  30
HETATM   30  N1  UNK     1      34.974  -9.115  30.195  1.00  0.00    -0.379 N 
HETATM   31  H6  UNK     1      35.801  -9.337  30.735  1.00  0.00     0.158 HD
HETATM   32  H7  UNK     1      34.932  -9.347  29.211  1.00  0.00     0.158 HD
ENDBRANCH  10  30
TORSDOF 5
ENDMDL
MODEL 6
REMARK VINA RESULT:      -7.4     19.857     22.946
REMARK  5 active torsions:
REMARK  status: ('A' for Active; 'I' for Inactive)
REMARK    1  A    between atoms: C7_15  and  O3_3 
REMARK    2  A    between atoms: C12_20  and  O4_4 
REMARK    3  A    between atoms: C15_23  and  O6_6 
REMARK    4  A    between atoms: C8_16  and  N1_7 
REMARK    5  A    between atoms: C1_9  and  C3_11 
ROOT
HETATM    1  O1  UNK     1      32.587  -4.694  35.674  1.00  0.00    -0.291 OA
HETATM    2  O2  UNK     1      30.102  -7.832  36.892  1.00  0.00    -0.274 OA
HETATM    3  O5  UNK     1      31.128  -9.225  35.407  1.00  0.00    -0.259 OA
HETATM    4  N2  UNK     1      35.871  -6.367  32.573  1.00  0.00    -0.191 NA
HETATM    5  C1  UNK     1      32.860  -7.204  34.308  1.00  0.00     0.111 C 
HETATM    6  C2  UNK     1      31.871  -6.966  35.435  1.00  0.00     0.066 A 
HETATM    7  C4  UNK     1      31.785  -5.765  36.026  1.00  0.00     0.104 A 
HETATM    8  C5  UNK     1      33.832  -6.040  34.140  1.00  0.00     0.086 C 
HETATM    9  C6  UNK     1      30.817  -5.514  37.090  1.00  0.00     0.033 A 
HETATM   10  C8  UNK     1      33.656  -4.872  34.799  1.00  0.00     0.159 C 
HETATM   11  C9  UNK     1      31.026  -8.100  35.888  1.00  0.00     0.298 A 
HETATM   12  C11 UNK     1      29.994  -6.562  37.491  1.00  0.00     0.092 A 
HETATM   13  C14 UNK     1      30.668  -4.277  37.728  1.00  0.00     0.017 A 
HETATM   14  C16 UNK     1      29.038  -6.412  38.496  1.00  0.00     0.038 A 
HETATM   15  C17 UNK     1      34.958  -6.221  33.274  1.00  0.00     0.100 C 
HETATM   16  C18 UNK     1      29.715  -4.110  38.738  1.00  0.00     0.001 A 
HETATM   17  C19 UNK     1      28.901  -5.177  39.121  1.00  0.00     0.003 A 
ENDROOT
BRANCH   5  18
HETATM   18  C3  UNK     1      32.136  -7.462  33.019  1.00  0.00    -0.008 A 
HETATM   19  C10 UNK     1      31.283  -6.482  32.519  1.00  0.00     0.014 A 
HETATM   20  C13 UNK     1      30.603  -6.705  31.322  1.00  0.00     0.040 A 
HETATM   21  C15 UNK     1      30.779  -7.904  30.631  1.00  0.00     0.104 A 
HETATM   22  C12 UNK     1      31.635  -8.881  31.138  1.00  0.00     0.135 A 
HETATM   23  C7  UNK     1      32.316  -8.660  32.336  1.00  0.00     0.111 A 
BRANCH  21  24
HETATM   24  O6  UNK     1      30.107  -8.109  29.464  1.00  0.00    -0.353 OA
HETATM   25  C22 UNK     1      28.710  -8.385  29.561  1.00  0.00     0.210 C 
ENDBRANCH  21  24
BRANCH  22  26
HETATM   26  O4  UNK     1      31.806 -10.054  30.463  1.00  0.00    -0.351 OA
HETATM   27  C21 UNK     1      30.946 -11.134  30.817  1.00  0.00     0.210 C 
ENDBRANCH  22  26
BRANCH  23  28
HETATM   28  O3  UNK     1      33.151  -9.619  32.830  1.00  0.00    -0.352 OA
HETATM   29  C20 UNK     1      34.453  -9.700  32.256  1.00  0.00     0.210 C 
ENDBRANCH  23  28
ENDBRANCH   5  18
BRANCH  10  30
HETATM   30  N1  UNK     1      34.469  -3.778  34.693  1.00  0.00    -0.379 N 
HETATM   31  H6  UNK     1      35.290  -3.834  34.104  1.00  0.00     0.158 HD
HETATM   32  H7  UNK     1      34.261  -2.923  35.193  1.00  0.00     0.158 HD
ENDBRANCH  10  30
TORSDOF 5
ENDMDL
MODEL 7
REMARK VINA RESULT:      -7.4     19.461     23.275
REMARK  5 active torsions:
REMARK  status: ('A' for Active; 'I' for Inactive)
REMARK    1  A    between atoms: C7_15  and  O3_3 
REMARK    2  A    between atoms: C12_20  and  O4_4 
REMARK    3  A    between atoms: C15_23  and  O6_6 
REMARK    4  A    between atoms: C8_16  and  N1_7 
REMARK    5  A    between atoms: C1_9  and  C3_11 
ROOT
HETATM    1  O1  UNK     1      31.730  -8.658  32.209  1.00  0.00    -0.291 OA
HETATM    2  O2  UNK     1      27.720  -7.500  31.924  1.00  0.00    -0.274 OA
HETATM    3  O5  UNK     1      27.939  -6.261  33.825  1.00  0.00    -0.259 OA
HETATM    4  N2  UNK     1      33.823  -6.291  35.845  1.00  0.00    -0.191 NA
HETATM    5  C1  UNK     1      30.675  -7.015  34.314  1.00  0.00     0.111 C 
HETATM    6  C2  UNK     1      29.859  -7.476  33.120  1.00  0.00     0.066 A 
HETATM    7  C4  UNK     1      30.409  -8.253  32.175  1.00  0.00     0.104 A 
HETATM    8  C5  UNK     1      32.159  -7.333  34.153  1.00  0.00     0.086 C 
HETATM    9  C6  UNK     1      29.625  -8.728  31.038  1.00  0.00     0.033 A 
HETATM   10  C8  UNK     1      32.607  -8.121  33.149  1.00  0.00     0.159 C 
HETATM   11  C9  UNK     1      28.448  -7.022  33.008  1.00  0.00     0.298 A 
HETATM   12  C11 UNK     1      28.292  -8.339  30.948  1.00  0.00     0.092 A 
HETATM   13  C14 UNK     1      30.140  -9.557  30.034  1.00  0.00     0.017 A 
HETATM   14  C16 UNK     1      27.468  -8.749  29.900  1.00  0.00     0.038 A 
HETATM   15  C17 UNK     1      33.077  -6.757  35.088  1.00  0.00     0.100 C 
HETATM   16  C18 UNK     1      29.327  -9.976  28.975  1.00  0.00     0.001 A 
HETATM   17  C19 UNK     1      27.993  -9.573  28.910  1.00  0.00     0.003 A 
ENDROOT
BRANCH   5  18
HETATM   18  C3  UNK     1      30.150  -7.627  35.578  1.00  0.00    -0.008 A 
HETATM   19  C10 UNK     1      30.110  -9.014  35.688  1.00  0.00     0.014 A 
HETATM   20  C13 UNK     1      29.625  -9.600  36.858  1.00  0.00     0.040 A 
HETATM   21  C15 UNK     1      29.184  -8.798  37.910  1.00  0.00     0.104 A 
HETATM   22  C12 UNK     1      29.227  -7.409  37.793  1.00  0.00     0.135 A 
HETATM   23  C7  UNK     1      29.712  -6.822  36.624  1.00  0.00     0.111 A 
BRANCH  21  24
HETATM   24  O6  UNK     1      28.711  -9.384  39.045  1.00  0.00    -0.353 OA
HETATM   25  C22 UNK     1      27.425  -9.996  38.971  1.00  0.00     0.210 C 
ENDBRANCH  21  24
BRANCH  22  26
HETATM   26  O4  UNK     1      28.795  -6.625  38.822  1.00  0.00    -0.351 OA
HETATM   27  C21 UNK     1      27.432  -6.211  38.790  1.00  0.00     0.210 C 
ENDBRANCH  22  26
BRANCH  23  28
HETATM   28  O3  UNK     1      29.751  -5.463  36.513  1.00  0.00    -0.352 OA
HETATM   29  C20 UNK     1      30.808  -4.789  37.189  1.00  0.00     0.210 C 
ENDBRANCH  23  28
ENDBRANCH   5  18
BRANCH  10  30
HETATM   30  N1  UNK     1      33.914  -8.468  32.944  1.00  0.00    -0.379 N 
HETATM   31  H6  UNK     1      34.330  -8.290  32.038  1.00  0.00     0.158 HD
HETATM   32  H7  UNK     1      34.462  -8.896  33.679  1.00  0.00     0.158 HD
ENDBRANCH  10  30
TORSDOF 5
ENDMDL
MODEL 8
REMARK VINA RESULT:      -7.4     19.325     22.518
REMARK  5 active torsions:
REMARK  status: ('A' for Active; 'I' for Inactive)
REMARK    1  A    between atoms: C7_15  and  O3_3 
REMARK    2  A    between atoms: C12_20  and  O4_4 
REMARK    3  A    between atoms: C15_23  and  O6_6 
REMARK    4  A    between atoms: C8_16  and  N1_7 
REMARK    5  A    between atoms: C1_9  and  C3_11 
ROOT
HETATM    1  O1  UNK     1      29.781  -5.839  37.334  1.00  0.00    -0.291 OA
HETATM    2  O2  UNK     1      28.781  -9.792  36.396  1.00  0.00    -0.274 OA
HETATM    3  O5  UNK     1      29.985  -9.643  34.467  1.00  0.00    -0.259 OA
HETATM    4  N2  UNK     1      32.918  -4.170  34.082  1.00  0.00    -0.191 NA
HETATM    5  C1  UNK     1      30.703  -6.877  34.821  1.00  0.00     0.111 C 
HETATM    6  C2  UNK     1      29.882  -7.683  35.811  1.00  0.00     0.066 A 
HETATM    7  C4  UNK     1      29.472  -7.135  36.965  1.00  0.00     0.104 A 
HETATM    8  C5  UNK     1      31.166  -5.546  35.407  1.00  0.00     0.086 C 
HETATM    9  C6  UNK     1      28.657  -7.891  37.911  1.00  0.00     0.033 A 
HETATM   10  C8  UNK     1      30.695  -5.094  36.591  1.00  0.00     0.159 C 
HETATM   11  C9  UNK     1      29.571  -9.099  35.486  1.00  0.00     0.298 A 
HETATM   12  C11 UNK     1      28.327  -9.206  37.594  1.00  0.00     0.092 A 
HETATM   13  C14 UNK     1      28.183  -7.365  39.119  1.00  0.00     0.017 A 
HETATM   14  C16 UNK     1      27.548  -9.999  38.437  1.00  0.00     0.038 A 
HETATM   15  C17 UNK     1      32.134  -4.787  34.674  1.00  0.00     0.100 C 
HETATM   16  C18 UNK     1      27.402  -8.149  39.976  1.00  0.00     0.001 A 
HETATM   17  C19 UNK     1      27.085  -9.463  39.633  1.00  0.00     0.003 A 
ENDROOT
BRANCH   5  18
HETATM   18  C3  UNK     1      29.925  -6.643  33.560  1.00  0.00    -0.008 A 
HETATM   19  C10 UNK     1      28.586  -6.277  33.653  1.00  0.00     0.014 A 
HETATM   20  C13 UNK     1      27.848  -6.055  32.491  1.00  0.00     0.040 A 
HETATM   21  C15 UNK     1      28.452  -6.199  31.242  1.00  0.00     0.104 A 
HETATM   22  C12 UNK     1      29.795  -6.566  31.155  1.00  0.00     0.135 A 
HETATM   23  C7  UNK     1      30.534  -6.788  32.318  1.00  0.00     0.111 A 
BRANCH  21  24
HETATM   24  O6  UNK     1      27.718  -5.981  30.115  1.00  0.00    -0.353 OA
HETATM   25  C22 UNK     1      26.458  -6.644  30.023  1.00  0.00     0.210 C 
ENDBRANCH  21  24
BRANCH  22  26
HETATM   26  O4  UNK     1      30.385  -6.708  29.934  1.00  0.00    -0.351 OA
HETATM   27  C21 UNK     1      30.087  -7.897  29.207  1.00  0.00     0.210 C 
ENDBRANCH  22  26
BRANCH  23  28
HETATM   28  O3  UNK     1      31.846  -7.149  32.229  1.00  0.00    -0.352 OA
HETATM   29  C20 UNK     1      32.127  -8.542  32.122  1.00  0.00     0.210 C 
ENDBRANCH  23  28
ENDBRANCH   5  18
BRANCH  10  30
HETATM   30  N1  UNK     1      31.044  -3.909  37.178  1.00  0.00    -0.379 N 
HETATM   31  H6  UNK     1      30.315  -3.247  37.411  1.00  0.00     0.158 HD
HETATM   32  H7  UNK     1      32.012  -3.690  37.376  1.00  0.00     0.158 HD
ENDBRANCH  10  30
TORSDOF 5
ENDMDL
MODEL 9
REMARK VINA RESULT:      -7.3     21.305     24.448
REMARK  5 active torsions:
REMARK  status: ('A' for Active; 'I' for Inactive)
REMARK    1  A    between atoms: C7_15  and  O3_3 
REMARK    2  A    between atoms: C12_20  and  O4_4 
REMARK    3  A    between atoms: C15_23  and  O6_6 
REMARK    4  A    between atoms: C8_16  and  N1_7 
REMARK    5  A    between atoms: C1_9  and  C3_11 
ROOT
HETATM    1  O1  UNK     1      28.329  -8.316  35.100  1.00  0.00    -0.291 OA
HETATM    2  O2  UNK     1      29.069  -7.090  39.032  1.00  0.00    -0.274 OA
HETATM    3  O5  UNK     1      30.342  -5.365  38.258  1.00  0.00    -0.259 OA
HETATM    4  N2  UNK     1      30.209  -5.102  32.044  1.00  0.00    -0.191 NA
HETATM    5  C1  UNK     1      30.090  -6.080  35.480  1.00  0.00     0.111 C 
HETATM    6  C2  UNK     1      29.425  -6.827  36.621  1.00  0.00     0.066 A 
HETATM    7  C4  UNK     1      28.620  -7.872  36.377  1.00  0.00     0.104 A 
HETATM    8  C5  UNK     1      29.546  -6.506  34.119  1.00  0.00     0.086 C 
HETATM    9  C6  UNK     1      27.998  -8.617  37.468  1.00  0.00     0.033 A 
HETATM   10  C8  UNK     1      28.725  -7.573  33.990  1.00  0.00     0.159 C 
HETATM   11  C9  UNK     1      29.661  -6.355  38.010  1.00  0.00     0.298 A 
HETATM   12  C11 UNK     1      28.248  -8.205  38.774  1.00  0.00     0.092 A 
HETATM   13  C14 UNK     1      27.167  -9.728  37.274  1.00  0.00     0.017 A 
HETATM   14  C16 UNK     1      27.699  -8.860  39.877  1.00  0.00     0.038 A 
HETATM   15  C17 UNK     1      29.913  -5.730  32.973  1.00  0.00     0.100 C 
HETATM   16  C18 UNK     1      26.609 -10.395  38.370  1.00  0.00     0.001 A 
HETATM   17  C19 UNK     1      26.876  -9.962  39.668  1.00  0.00     0.003 A 
ENDROOT
BRANCH   5  18
HETATM   18  C3  UNK     1      31.578  -6.271  35.523  1.00  0.00    -0.008 A 
HETATM   19  C10 UNK     1      32.088  -7.563  35.616  1.00  0.00     0.014 A 
HETATM   20  C13 UNK     1      33.469  -7.758  35.657  1.00  0.00     0.040 A 
HETATM   21  C15 UNK     1      34.331  -6.664  35.603  1.00  0.00     0.104 A 
HETATM   22  C12 UNK     1      33.813  -5.372  35.511  1.00  0.00     0.135 A 
HETATM   23  C7  UNK     1      32.432  -5.175  35.470  1.00  0.00     0.111 A 
BRANCH  21  24
HETATM   24  O6  UNK     1      35.677  -6.869  35.646  1.00  0.00    -0.353 OA
HETATM   25  C22 UNK     1      36.311  -7.270  34.433  1.00  0.00     0.210 C 
ENDBRANCH  21  24
BRANCH  22  26
HETATM   26  O4  UNK     1      34.657  -4.301  35.460  1.00  0.00    -0.351 OA
HETATM   27  C21 UNK     1      34.814  -3.662  34.196  1.00  0.00     0.210 C 
ENDBRANCH  22  26
BRANCH  23  28
HETATM   28  O3  UNK     1      31.929  -3.910  35.381  1.00  0.00    -0.352 OA
HETATM   29  C20 UNK     1      31.964  -3.117  36.564  1.00  0.00     0.210 C 
ENDBRANCH  23  28
ENDBRANCH   5  18
BRANCH  10  30
HETATM   30  N1  UNK     1      28.208  -8.030  32.809  1.00  0.00    -0.379 N 
HETATM   31  H6  UNK     1      27.345  -7.627  32.466  1.00  0.00     0.158 HD
HETATM   32  H7  UNK     1      28.672  -8.759  32.283  1.00  0.00     0.158 HD
ENDBRANCH  10  30
TORSDOF 5
ENDMDL
MODEL 10
REMARK VINA RESULT:      -7.3     20.971     24.731
REMARK  5 active torsions:
REMARK  status: ('A' for Active; 'I' for Inactive)
REMARK    1  A    between atoms: C7_15  and  O3_3 
REMARK    2  A    between atoms: C12_20  and  O4_4 
REMARK    3  A    between atoms: C15_23  and  O6_6 
REMARK    4  A    between atoms: C8_16  and  N1_7 
REMARK    5  A    between atoms: C1_9  and  C3_11 
ROOT
HETATM    1  O1  UNK     1      33.143  -8.328  34.758  1.00  0.00    -0.291 OA
HETATM    2  O2  UNK     1      29.509  -7.855  32.738  1.00  0.00    -0.274 OA
HETATM    3  O5  UNK     1      28.812  -6.380  34.330  1.00  0.00    -0.259 OA
HETATM    4  N2  UNK     1      33.328  -5.246  38.455  1.00  0.00    -0.191 NA
HETATM    5  C1  UNK     1      31.167  -6.631  35.967  1.00  0.00     0.111 C 
HETATM    6  C2  UNK     1      30.959  -7.354  34.649  1.00  0.00     0.066 A 
HETATM    7  C4  UNK     1      31.918  -8.142  34.142  1.00  0.00     0.104 A 
HETATM    8  C5  UNK     1      32.610  -6.730  36.455  1.00  0.00     0.086 C 
HETATM    9  C6  UNK     1      31.718  -8.866  32.890  1.00  0.00     0.033 A 
HETATM   10  C8  UNK     1      33.503  -7.551  35.858  1.00  0.00     0.159 C 
HETATM   11  C9  UNK     1      29.681  -7.143  33.920  1.00  0.00     0.298 A 
HETATM   12  C11 UNK     1      30.507  -8.705  32.223  1.00  0.00     0.092 A 
HETATM   13  C14 UNK     1      32.675  -9.718  32.325  1.00  0.00     0.017 A 
HETATM   14  C16 UNK     1      30.228  -9.361  31.024  1.00  0.00     0.038 A 
HETATM   15  C17 UNK     1      33.006  -5.910  37.560  1.00  0.00     0.100 C 
HETATM   16  C18 UNK     1      32.410 -10.383  31.123  1.00  0.00     0.001 A 
HETATM   17  C19 UNK     1      31.189 -10.205  30.474  1.00  0.00     0.003 A 
ENDROOT
BRANCH   5  18
HETATM   18  C3  UNK     1      30.231  -7.164  37.012  1.00  0.00    -0.008 A 
HETATM   19  C10 UNK     1      30.236  -8.528  37.288  1.00  0.00     0.014 A 
HETATM   20  C13 UNK     1      29.373  -9.039  38.257  1.00  0.00     0.040 A 
HETATM   21  C15 UNK     1      28.512  -8.185  38.946  1.00  0.00     0.104 A 
HETATM   22  C12 UNK     1      28.513  -6.819  38.665  1.00  0.00     0.135 A 
HETATM   23  C7  UNK     1      29.375  -6.307  37.696  1.00  0.00     0.111 A 
BRANCH  21  24
HETATM   24  O6  UNK     1      27.673  -8.699  39.888  1.00  0.00    -0.353 OA
HETATM   25  C22 UNK     1      27.222 -10.038  39.694  1.00  0.00     0.210 C 
ENDBRANCH  21  24
BRANCH  22  26
HETATM   26  O4  UNK     1      27.669  -5.985  39.338  1.00  0.00    -0.351 OA
HETATM   27  C21 UNK     1      26.443  -5.648  38.694  1.00  0.00     0.210 C 
ENDBRANCH  22  26
BRANCH  23  28
HETATM   28  O3  UNK     1      29.372  -4.970  37.422  1.00  0.00    -0.352 OA
HETATM   29  C20 UNK     1      29.970  -4.111  38.389  1.00  0.00     0.210 C 
ENDBRANCH  23  28
ENDBRANCH   5  18
BRANCH  10  30
HETATM   30  N1  UNK     1      34.806  -7.711  36.241  1.00  0.00    -0.379 N 
HETATM   31  H6  UNK     1      35.206  -7.052  36.897  1.00  0.00     0.158 HD
HETATM   32  H7  UNK     1      35.367  -8.470  35.878  1.00  0.00     0.158 HD
ENDBRANCH  10  30
TORSDOF 5
ENDMDL
