MODEL 1
REMARK VINA RESULT:      -8.8      0.000      0.000
REMARK  4 active torsions:
REMARK  status: ('A' for Active; 'I' for Inactive)
REMARK    1  A    between atoms: C1_6  and  N1_3 
REMARK    2  A    between atoms: C3_8  and  N1_3 
REMARK    3  A    between atoms: C4_9  and  N1_3 
REMARK    4  A    between atoms: C11_16  and  C7_12 
ROOT
HETATM    1  O1  UNK     1      18.520  -0.704  35.007  1.00  0.00    -0.274 OA
HETATM    2  O2  UNK     1      18.364  -1.689  37.059  1.00  0.00    -0.259 OA
HETATM    3  C1  UNK     1      19.184   0.384  31.562  1.00  0.00     0.032 A 
HETATM    4  C2  UNK     1      19.848  -1.744  33.259  1.00  0.00    -0.001 A 
HETATM    5  C5  UNK     1      19.032  -0.707  33.695  1.00  0.00     0.091 A 
HETATM    6  C6  UNK     1      18.691   0.359  32.865  1.00  0.00     0.067 A 
HETATM    7  C7  UNK     1      19.676  -2.826  35.429  1.00  0.00     0.086 A 
HETATM    8  C8  UNK     1      20.006  -0.649  31.105  1.00  0.00     0.030 A 
HETATM    9  C9  UNK     1      20.160  -2.827  34.178  1.00  0.00     0.035 A 
HETATM   10  C10 UNK     1      20.338  -1.712  31.952  1.00  0.00     0.016 A 
HETATM   11  C13 UNK     1      18.807  -1.719  35.916  1.00  0.00     0.302 A 
ENDROOT
BRANCH   7  12
HETATM   12  C11 UNK     1      19.996  -3.911  36.304  1.00  0.00     0.145 A 
HETATM   13  N2  UNK     1      19.015  -4.830  36.549  1.00  0.00    -0.338 N 
HETATM   14  C12 UNK     1      19.529  -5.773  37.402  1.00  0.00     0.062 A 
HETATM   15  H9  UNK     1      18.064  -4.823  36.207  1.00  0.00     0.167 HD
HETATM   16  C14 UNK     1      20.837  -5.356  37.632  1.00  0.00     0.086 A 
HETATM   17  C17 UNK     1      18.978  -6.920  37.974  1.00  0.00     0.032 A 
HETATM   18  N3  UNK     1      21.110  -4.198  36.942  1.00  0.00    -0.228 NA
HETATM   19  C18 UNK     1      21.659  -6.117  38.481  1.00  0.00     0.034 A 
HETATM   20  C20 UNK     1      21.128  -7.272  39.067  1.00  0.00     0.002 A 
HETATM   21  C19 UNK     1      19.810  -7.665  38.818  1.00  0.00     0.002 A 
ENDBRANCH   7  12
BRANCH   3  22
HETATM   22  N1  UNK     1      18.854   1.452  30.702  1.00  0.00    -0.382 N 
BRANCH  22  23
HETATM   23  C3  UNK     1      18.233   2.652  31.227  1.00  0.00     0.118 C 
HETATM   24  C15 UNK     1      18.933   3.883  30.683  1.00  0.00     0.026 C 
ENDBRANCH  22  23
BRANCH  22  25
HETATM   25  C4  UNK     1      19.144   1.369  29.284  1.00  0.00     0.118 C 
HETATM   26  C16 UNK     1      17.854   1.350  28.487  1.00  0.00     0.026 C 
ENDBRANCH  22  25
ENDBRANCH   3  22
TORSDOF 4
ENDMDL
MODEL 2
REMARK VINA RESULT:      -8.6      5.665      8.799
REMARK  4 active torsions:
REMARK  status: ('A' for Active; 'I' for Inactive)
REMARK    1  A    between atoms: C1_6  and  N1_3 
REMARK    2  A    between atoms: C3_8  and  N1_3 
REMARK    3  A    between atoms: C4_9  and  N1_3 
REMARK    4  A    between atoms: C11_16  and  C7_12 
ROOT
HETATM    1  O1  UNK     1      18.248   5.842  30.610  1.00  0.00    -0.274 OA
HETATM    2  O2  UNK     1      18.947   4.183  29.209  1.00  0.00    -0.259 OA
HETATM    3  C1  UNK     1      17.079   8.032  33.319  1.00  0.00     0.032 A 
HETATM    4  C2  UNK     1      17.784   5.346  32.943  1.00  0.00    -0.001 A 
HETATM    5  C5  UNK     1      17.837   6.256  31.893  1.00  0.00     0.091 A 
HETATM    6  C6  UNK     1      17.491   7.595  32.062  1.00  0.00     0.067 A 
HETATM    7  C7  UNK     1      18.553   3.567  31.476  1.00  0.00     0.086 A 
HETATM    8  C8  UNK     1      17.018   7.134  34.386  1.00  0.00     0.030 A 
HETATM    9  C9  UNK     1      18.162   3.965  32.696  1.00  0.00     0.035 A 
HETATM   10  C10 UNK     1      17.369   5.793  34.200  1.00  0.00     0.016 A 
HETATM   11  C13 UNK     1      18.608   4.525  30.338  1.00  0.00     0.302 A 
ENDROOT
BRANCH   7  12
HETATM   12  C11 UNK     1      18.926   2.202  31.270  1.00  0.00     0.145 A 
HETATM   13  N2  UNK     1      19.452   1.872  30.053  1.00  0.00    -0.338 N 
HETATM   14  C12 UNK     1      19.738   0.531  30.069  1.00  0.00     0.062 A 
HETATM   15  H9  UNK     1      19.584   2.477  29.254  1.00  0.00     0.167 HD
HETATM   16  C14 UNK     1      19.356   0.112  31.341  1.00  0.00     0.086 A 
HETATM   17  C17 UNK     1      20.281  -0.325  29.111  1.00  0.00     0.032 A 
HETATM   18  N3  UNK     1      18.854   1.163  32.073  1.00  0.00    -0.228 NA
HETATM   19  C18 UNK     1      19.519  -1.239  31.695  1.00  0.00     0.034 A 
HETATM   20  C20 UNK     1      20.062  -2.116  30.749  1.00  0.00     0.002 A 
HETATM   21  C19 UNK     1      20.436  -1.666  29.480  1.00  0.00     0.002 A 
ENDBRANCH   7  12
BRANCH   3  22
HETATM   22  N1  UNK     1      16.723   9.382  33.515  1.00  0.00    -0.382 N 
BRANCH  22  23
HETATM   23  C3  UNK     1      17.686  10.326  34.044  1.00  0.00     0.118 C 
HETATM   24  C15 UNK     1      17.046  11.692  34.202  1.00  0.00     0.026 C 
ENDBRANCH  22  23
BRANCH  22  25
HETATM   25  C4  UNK     1      15.392   9.846  33.176  1.00  0.00     0.118 C 
HETATM   26  C16 UNK     1      14.364   9.184  34.074  1.00  0.00     0.026 C 
ENDBRANCH  22  25
ENDBRANCH   3  22
TORSDOF 4
ENDMDL
MODEL 3
REMARK VINA RESULT:      -8.5     15.707     19.957
REMARK  4 active torsions:
REMARK  status: ('A' for Active; 'I' for Inactive)
REMARK    1  A    between atoms: C1_6  and  N1_3 
REMARK    2  A    between atoms: C3_8  and  N1_3 
REMARK    3  A    between atoms: C4_9  and  N1_3 
REMARK    4  A    between atoms: C11_16  and  C7_12 
ROOT
HETATM    1  O1  UNK     1      17.102  -3.722  15.546  1.00  0.00    -0.274 OA
HETATM    2  O2  UNK     1      16.342  -2.046  16.896  1.00  0.00    -0.259 OA
HETATM    3  C1  UNK     1      18.900  -6.088  13.386  1.00  0.00     0.032 A 
HETATM    4  C2  UNK     1      19.429  -3.756  14.847  1.00  0.00    -0.001 A 
HETATM    5  C5  UNK     1      18.157  -4.318  14.828  1.00  0.00     0.091 A 
HETATM    6  C6  UNK     1      17.877  -5.477  14.108  1.00  0.00     0.067 A 
HETATM    7  C7  UNK     1      18.648  -1.975  16.306  1.00  0.00     0.086 A 
HETATM    8  C8  UNK     1      20.184  -5.538  13.393  1.00  0.00     0.030 A 
HETATM    9  C9  UNK     1      19.651  -2.546  15.622  1.00  0.00     0.035 A 
HETATM   10  C10 UNK     1      20.449  -4.374  14.121  1.00  0.00     0.016 A 
HETATM   11  C13 UNK     1      17.278  -2.558  16.291  1.00  0.00     0.302 A 
ENDROOT
BRANCH   7  12
HETATM   12  C11 UNK     1      18.904  -0.790  17.065  1.00  0.00     0.145 A 
HETATM   13  N2  UNK     1      19.219  -0.947  18.385  1.00  0.00    -0.338 N 
HETATM   14  C12 UNK     1      19.424   0.300  18.918  1.00  0.00     0.062 A 
HETATM   15  H9  UNK     1      19.265  -1.810  18.910  1.00  0.00     0.167 HD
HETATM   16  C14 UNK     1      19.214   1.170  17.852  1.00  0.00     0.086 A 
HETATM   17  C17 UNK     1      19.765   0.728  20.201  1.00  0.00     0.032 A 
HETATM   18  N3  UNK     1      18.892   0.476  16.709  1.00  0.00    -0.228 NA
HETATM   19  C18 UNK     1      19.348   2.554  18.061  1.00  0.00     0.034 A 
HETATM   20  C20 UNK     1      19.688   3.006  19.341  1.00  0.00     0.002 A 
HETATM   21  C19 UNK     1      19.893   2.108  20.392  1.00  0.00     0.002 A 
ENDBRANCH   7  12
BRANCH   3  22
HETATM   22  N1  UNK     1      18.641  -7.262  12.649  1.00  0.00    -0.382 N 
BRANCH  22  23
HETATM   23  C3  UNK     1      19.733  -8.044  12.107  1.00  0.00     0.118 C 
HETATM   24  C15 UNK     1      19.759  -7.928  10.595  1.00  0.00     0.026 C 
ENDBRANCH  22  23
BRANCH  22  25
HETATM   25  C4  UNK     1      17.279  -7.709  12.436  1.00  0.00     0.118 C 
HETATM   26  C16 UNK     1      17.036  -9.014  13.171  1.00  0.00     0.026 C 
ENDBRANCH  22  25
ENDBRANCH   3  22
TORSDOF 4
ENDMDL
MODEL 4
REMARK VINA RESULT:      -8.4      6.214     12.028
REMARK  4 active torsions:
REMARK  status: ('A' for Active; 'I' for Inactive)
REMARK    1  A    between atoms: C1_6  and  N1_3 
REMARK    2  A    between atoms: C3_8  and  N1_3 
REMARK    3  A    between atoms: C4_9  and  N1_3 
REMARK    4  A    between atoms: C11_16  and  C7_12 
ROOT
HETATM    1  O1  UNK     1      17.390   5.454  33.768  1.00  0.00    -0.274 OA
HETATM    2  O2  UNK     1      16.653   7.009  35.267  1.00  0.00    -0.259 OA
HETATM    3  C1  UNK     1      18.709   3.474  30.969  1.00  0.00     0.032 A 
HETATM    4  C2  UNK     1      18.361   6.168  31.658  1.00  0.00    -0.001 A 
HETATM    5  C5  UNK     1      17.972   5.150  32.522  1.00  0.00     0.091 A 
HETATM    6  C6  UNK     1      18.138   3.806  32.195  1.00  0.00     0.067 A 
HETATM    7  C7  UNK     1      17.606   7.843  33.250  1.00  0.00     0.086 A 
HETATM    8  C8  UNK     1      19.106   4.482  30.087  1.00  0.00     0.030 A 
HETATM    9  C9  UNK     1      18.161   7.549  32.065  1.00  0.00     0.035 A 
HETATM   10  C10 UNK     1      18.932   5.827  30.430  1.00  0.00     0.016 A 
HETATM   11  C13 UNK     1      17.176   6.766  34.184  1.00  0.00     0.302 A 
ENDROOT
BRANCH   7  12
HETATM   12  C11 UNK     1      17.432   9.213  33.621  1.00  0.00     0.145 A 
HETATM   13  N2  UNK     1      16.186   9.598  34.030  1.00  0.00    -0.338 N 
HETATM   14  C12 UNK     1      16.240  10.934  34.336  1.00  0.00     0.062 A 
HETATM   15  H9  UNK     1      15.349   9.033  34.074  1.00  0.00     0.167 HD
HETATM   16  C14 UNK     1      17.562  11.292  34.087  1.00  0.00     0.086 A 
HETATM   17  C17 UNK     1      15.276  11.832  34.795  1.00  0.00     0.032 A 
HETATM   18  N3  UNK     1      18.288  10.211  33.644  1.00  0.00    -0.228 NA
HETATM   19  C18 UNK     1      17.964  12.622  34.304  1.00  0.00     0.034 A 
HETATM   20  C20 UNK     1      17.013  13.540  34.765  1.00  0.00     0.002 A 
HETATM   21  C19 UNK     1      15.693  13.151  35.006  1.00  0.00     0.002 A 
ENDBRANCH   7  12
BRANCH   3  22
HETATM   22  N1  UNK     1      18.887   2.121  30.615  1.00  0.00    -0.382 N 
BRANCH  22  23
HETATM   23  C3  UNK     1      19.063   1.741  29.228  1.00  0.00     0.118 C 
HETATM   24  C15 UNK     1      17.716   1.632  28.541  1.00  0.00     0.026 C 
ENDBRANCH  22  23
BRANCH  22  25
HETATM   25  C4  UNK     1      18.909   1.093  31.637  1.00  0.00     0.118 C 
HETATM   26  C16 UNK     1      19.725  -0.095  31.165  1.00  0.00     0.026 C 
ENDBRANCH  22  25
ENDBRANCH   3  22
TORSDOF 4
ENDMDL
MODEL 5
REMARK VINA RESULT:      -8.3      5.172      8.412
REMARK  4 active torsions:
REMARK  status: ('A' for Active; 'I' for Inactive)
REMARK    1  A    between atoms: C1_6  and  N1_3 
REMARK    2  A    between atoms: C3_8  and  N1_3 
REMARK    3  A    between atoms: C4_9  and  N1_3 
REMARK    4  A    between atoms: C11_16  and  C7_12 
ROOT
HETATM    1  O1  UNK     1      17.840   4.482  34.102  1.00  0.00    -0.274 OA
HETATM    2  O2  UNK     1      18.427   2.281  34.221  1.00  0.00    -0.259 OA
HETATM    3  C1  UNK     1      17.048   7.972  33.269  1.00  0.00     0.032 A 
HETATM    4  C2  UNK     1      17.867   5.632  31.963  1.00  0.00    -0.001 A 
HETATM    5  C5  UNK     1      17.650   5.649  33.336  1.00  0.00     0.091 A 
HETATM    6  C6  UNK     1      17.242   6.802  34.002  1.00  0.00     0.067 A 
HETATM    7  C7  UNK     1      18.472   3.280  32.060  1.00  0.00     0.086 A 
HETATM    8  C8  UNK     1      17.261   7.976  31.889  1.00  0.00     0.030 A 
HETATM    9  C9  UNK     1      18.289   4.392  31.332  1.00  0.00     0.035 A 
HETATM   10  C10 UNK     1      17.670   6.809  31.236  1.00  0.00     0.016 A 
HETATM   11  C13 UNK     1      18.252   3.281  33.532  1.00  0.00     0.302 A 
ENDROOT
BRANCH   7  12
HETATM   12  C11 UNK     1      18.880   2.075  31.406  1.00  0.00     0.145 A 
HETATM   13  N2  UNK     1      18.987   0.950  32.174  1.00  0.00    -0.338 N 
HETATM   14  C12 UNK     1      19.385  -0.078  31.358  1.00  0.00     0.062 A 
HETATM   15  H9  UNK     1      18.841   0.868  33.171  1.00  0.00     0.167 HD
HETATM   16  C14 UNK     1      19.500   0.505  30.099  1.00  0.00     0.086 A 
HETATM   17  C17 UNK     1      19.646  -1.425  31.606  1.00  0.00     0.032 A 
HETATM   18  N3  UNK     1      19.182   1.842  30.147  1.00  0.00    -0.228 NA
HETATM   19  C18 UNK     1      19.898  -0.290  29.011  1.00  0.00     0.034 A 
HETATM   20  C20 UNK     1      20.166  -1.646  29.236  1.00  0.00     0.002 A 
HETATM   21  C19 UNK     1      20.042  -2.202  30.512  1.00  0.00     0.002 A 
ENDBRANCH   7  12
BRANCH   3  22
HETATM   22  N1  UNK     1      16.635   9.152  33.921  1.00  0.00    -0.382 N 
BRANCH  22  23
HETATM   23  C3  UNK     1      15.401   9.180  34.679  1.00  0.00     0.118 C 
HETATM   24  C15 UNK     1      14.210   9.167  33.741  1.00  0.00     0.026 C 
ENDBRANCH  22  23
BRANCH  22  25
HETATM   25  C4  UNK     1      17.448  10.351  33.851  1.00  0.00     0.118 C 
HETATM   26  C16 UNK     1      18.900  10.014  34.132  1.00  0.00     0.026 C 
ENDBRANCH  22  25
ENDBRANCH   3  22
TORSDOF 4
ENDMDL
MODEL 6
REMARK VINA RESULT:      -8.1      3.625      9.011
REMARK  4 active torsions:
REMARK  status: ('A' for Active; 'I' for Inactive)
REMARK    1  A    between atoms: C1_6  and  N1_3 
REMARK    2  A    between atoms: C3_8  and  N1_3 
REMARK    3  A    between atoms: C4_9  and  N1_3 
REMARK    4  A    between atoms: C11_16  and  C7_12 
ROOT
HETATM    1  O1  UNK     1      21.229  -5.431  37.574  1.00  0.00    -0.274 OA
HETATM    2  O2  UNK     1      21.571  -3.193  37.861  1.00  0.00    -0.259 OA
HETATM    3  C1  UNK     1      20.093  -8.851  36.861  1.00  0.00     0.032 A 
HETATM    4  C2  UNK     1      19.198  -6.220  36.500  1.00  0.00    -0.001 A 
HETATM    5  C5  UNK     1      20.416  -6.486  37.115  1.00  0.00     0.091 A 
HETATM    6  C6  UNK     1      20.877  -7.787  37.302  1.00  0.00     0.067 A 
HETATM    7  C7  UNK     1      19.551  -3.831  36.772  1.00  0.00     0.086 A 
HETATM    8  C8  UNK     1      18.866  -8.605  36.241  1.00  0.00     0.030 A 
HETATM    9  C9  UNK     1      18.780  -4.838  36.335  1.00  0.00     0.035 A 
HETATM   10  C10 UNK     1      18.417  -7.292  36.061  1.00  0.00     0.016 A 
HETATM   11  C13 UNK     1      20.855  -4.096  37.440  1.00  0.00     0.302 A 
ENDROOT
BRANCH   7  12
HETATM   12  C11 UNK     1      19.114  -2.482  36.586  1.00  0.00     0.145 A 
HETATM   13  N2  UNK     1      18.496  -1.872  37.641  1.00  0.00    -0.338 N 
HETATM   14  C12 UNK     1      18.163  -0.599  37.252  1.00  0.00     0.062 A 
HETATM   15  H9  UNK     1      18.278  -2.272  38.544  1.00  0.00     0.167 HD
HETATM   16  C14 UNK     1      18.614  -0.510  35.939  1.00  0.00     0.086 A 
HETATM   17  C17 UNK     1      17.525   0.448  37.917  1.00  0.00     0.032 A 
HETATM   18  N3  UNK     1      19.202  -1.688  35.541  1.00  0.00    -0.228 NA
HETATM   19  C18 UNK     1      18.426   0.690  35.230  1.00  0.00     0.034 A 
HETATM   20  C20 UNK     1      17.789   1.755  35.877  1.00  0.00     0.002 A 
HETATM   21  C19 UNK     1      17.346   1.635  37.197  1.00  0.00     0.002 A 
ENDBRANCH   7  12
BRANCH   3  22
HETATM   22  N1  UNK     1      20.537 -10.177  37.039  1.00  0.00    -0.382 N 
BRANCH  22  23
HETATM   23  C3  UNK     1      21.835 -10.589  36.544  1.00  0.00     0.118 C 
HETATM   24  C15 UNK     1      21.804 -10.711  35.032  1.00  0.00     0.026 C 
ENDBRANCH  22  23
BRANCH  22  25
HETATM   25  C4  UNK     1      19.707 -11.142  37.732  1.00  0.00     0.118 C 
HETATM   26  C16 UNK     1      19.383 -10.645  39.128  1.00  0.00     0.026 C 
ENDBRANCH  22  25
ENDBRANCH   3  22
TORSDOF 4
ENDMDL
MODEL 7
REMARK VINA RESULT:      -8.1      3.621      8.967
REMARK  4 active torsions:
REMARK  status: ('A' for Active; 'I' for Inactive)
REMARK    1  A    between atoms: C1_6  and  N1_3 
REMARK    2  A    between atoms: C3_8  and  N1_3 
REMARK    3  A    between atoms: C4_9  and  N1_3 
REMARK    4  A    between atoms: C11_16  and  C7_12 
ROOT
HETATM    1  O1  UNK     1      21.245  -5.456  37.586  1.00  0.00    -0.274 OA
HETATM    2  O2  UNK     1      21.580  -3.218  37.876  1.00  0.00    -0.259 OA
HETATM    3  C1  UNK     1      20.120  -8.878  36.866  1.00  0.00     0.032 A 
HETATM    4  C2  UNK     1      19.221  -6.249  36.501  1.00  0.00    -0.001 A 
HETATM    5  C5  UNK     1      20.436  -6.512  37.123  1.00  0.00     0.091 A 
HETATM    6  C6  UNK     1      20.899  -7.813  37.312  1.00  0.00     0.067 A 
HETATM    7  C7  UNK     1      19.568  -3.859  36.774  1.00  0.00     0.086 A 
HETATM    8  C8  UNK     1      18.896  -8.635  36.239  1.00  0.00     0.030 A 
HETATM    9  C9  UNK     1      18.802  -4.868  36.333  1.00  0.00     0.035 A 
HETATM   10  C10 UNK     1      18.446  -7.323  36.056  1.00  0.00     0.016 A 
HETATM   11  C13 UNK     1      20.868  -4.122  37.451  1.00  0.00     0.302 A 
ENDROOT
BRANCH   7  12
HETATM   12  C11 UNK     1      19.129  -2.511  36.586  1.00  0.00     0.145 A 
HETATM   13  N2  UNK     1      18.527  -1.894  37.646  1.00  0.00    -0.338 N 
HETATM   14  C12 UNK     1      18.189  -0.624  37.254  1.00  0.00     0.062 A 
HETATM   15  H9  UNK     1      18.322  -2.288  38.554  1.00  0.00     0.167 HD
HETATM   16  C14 UNK     1      18.622  -0.543  35.933  1.00  0.00     0.086 A 
HETATM   17  C17 UNK     1      17.562   0.429  37.920  1.00  0.00     0.032 A 
HETATM   18  N3  UNK     1      19.203  -1.724  35.535  1.00  0.00    -0.228 NA
HETATM   19  C18 UNK     1      18.424   0.652  35.219  1.00  0.00     0.034 A 
HETATM   20  C20 UNK     1      17.797   1.722  35.869  1.00  0.00     0.002 A 
HETATM   21  C19 UNK     1      17.373   1.611  37.196  1.00  0.00     0.002 A 
ENDBRANCH   7  12
BRANCH   3  22
HETATM   22  N1  UNK     1      20.566 -10.204  37.047  1.00  0.00    -0.382 N 
BRANCH  22  23
HETATM   23  C3  UNK     1      19.744 -11.165  37.752  1.00  0.00     0.118 C 
HETATM   24  C15 UNK     1      19.358 -10.623  39.115  1.00  0.00     0.026 C 
ENDBRANCH  22  23
BRANCH  22  25
HETATM   25  C4  UNK     1      21.848 -10.625  36.517  1.00  0.00     0.118 C 
HETATM   26  C16 UNK     1      21.799 -10.661  35.001  1.00  0.00     0.026 C 
ENDBRANCH  22  25
ENDBRANCH   3  22
TORSDOF 4
ENDMDL
MODEL 8
REMARK VINA RESULT:      -7.9     16.685     20.812
REMARK  4 active torsions:
REMARK  status: ('A' for Active; 'I' for Inactive)
REMARK    1  A    between atoms: C1_6  and  N1_3 
REMARK    2  A    between atoms: C3_8  and  N1_3 
REMARK    3  A    between atoms: C4_9  and  N1_3 
REMARK    4  A    between atoms: C11_16  and  C7_12 
ROOT
HETATM    1  O1  UNK     1      19.760  -3.015  13.135  1.00  0.00    -0.274 OA
HETATM    2  O2  UNK     1      20.507  -0.913  13.613  1.00  0.00    -0.259 OA
HETATM    3  C1  UNK     1      18.266  -6.366  12.959  1.00  0.00     0.032 A 
HETATM    4  C2  UNK     1      18.283  -4.161  14.687  1.00  0.00    -0.001 A 
HETATM    5  C5  UNK     1      19.002  -4.146  13.497  1.00  0.00     0.091 A 
HETATM    6  C6  UNK     1      19.004  -5.233  12.626  1.00  0.00     0.067 A 
HETATM    7  C7  UNK     1      19.045  -1.912  15.206  1.00  0.00     0.086 A 
HETATM    8  C8  UNK     1      17.537  -6.401  14.150  1.00  0.00     0.030 A 
HETATM    9  C9  UNK     1      18.324  -2.990  15.548  1.00  0.00     0.035 A 
HETATM   10  C10 UNK     1      17.545  -5.301  15.014  1.00  0.00     0.016 A 
HETATM   11  C13 UNK     1      19.828  -1.881  13.940  1.00  0.00     0.302 A 
ENDROOT
BRANCH   7  12
HETATM   12  C11 UNK     1      19.056  -0.774  16.072  1.00  0.00     0.145 A 
HETATM   13  N2  UNK     1      18.981  -1.008  17.417  1.00  0.00    -0.338 N 
HETATM   14  C12 UNK     1      19.007   0.206  18.055  1.00  0.00     0.062 A 
HETATM   15  H9  UNK     1      18.886  -1.899  17.883  1.00  0.00     0.167 HD
HETATM   16  C14 UNK     1      19.100   1.137  17.024  1.00  0.00     0.086 A 
HETATM   17  C17 UNK     1      18.959   0.559  19.404  1.00  0.00     0.032 A 
HETATM   18  N3  UNK     1      19.129   0.511  15.800  1.00  0.00    -0.228 NA
HETATM   19  C18 UNK     1      19.149   2.506  17.339  1.00  0.00     0.034 A 
HETATM   20  C20 UNK     1      19.102   2.883  18.687  1.00  0.00     0.002 A 
HETATM   21  C19 UNK     1      19.008   1.925  19.700  1.00  0.00     0.002 A 
ENDBRANCH   7  12
BRANCH   3  22
HETATM   22  N1  UNK     1      18.252  -7.480  12.094  1.00  0.00    -0.382 N 
BRANCH  22  23
HETATM   23  C3  UNK     1      19.470  -7.921  11.446  1.00  0.00     0.118 C 
HETATM   24  C15 UNK     1      20.274  -8.800  12.385  1.00  0.00     0.026 C 
ENDBRANCH  22  23
BRANCH  22  25
HETATM   25  C4  UNK     1      17.021  -8.207  11.853  1.00  0.00     0.118 C 
HETATM   26  C16 UNK     1      16.473  -7.865  10.480  1.00  0.00     0.026 C 
ENDBRANCH  22  25
ENDBRANCH   3  22
TORSDOF 4
ENDMDL
MODEL 9
REMARK VINA RESULT:      -7.9      5.141     10.726
REMARK  4 active torsions:
REMARK  status: ('A' for Active; 'I' for Inactive)
REMARK    1  A    between atoms: C1_6  and  N1_3 
REMARK    2  A    between atoms: C3_8  and  N1_3 
REMARK    3  A    between atoms: C4_9  and  N1_3 
REMARK    4  A    between atoms: C11_16  and  C7_12 
ROOT
HETATM    1  O1  UNK     1      19.076   4.192  30.171  1.00  0.00    -0.274 OA
HETATM    2  O2  UNK     1      18.782   6.437  29.884  1.00  0.00    -0.259 OA
HETATM    3  C1  UNK     1      19.288   0.682  31.233  1.00  0.00     0.032 A 
HETATM    4  C2  UNK     1      18.324   3.121  32.218  1.00  0.00    -0.001 A 
HETATM    5  C5  UNK     1      18.931   3.041  30.970  1.00  0.00     0.091 A 
HETATM    6  C6  UNK     1      19.416   1.837  30.464  1.00  0.00     0.067 A 
HETATM    7  C7  UNK     1      17.975   5.509  31.924  1.00  0.00     0.086 A 
HETATM    8  C8  UNK     1      18.681   0.742  32.489  1.00  0.00     0.030 A 
HETATM    9  C9  UNK     1      17.838   4.411  32.681  1.00  0.00     0.035 A 
HETATM   10  C10 UNK     1      18.200   1.959  32.982  1.00  0.00     0.016 A 
HETATM   11  C13 UNK     1      18.631   5.444  30.589  1.00  0.00     0.302 A 
ENDROOT
BRANCH   7  12
HETATM   12  C11 UNK     1      17.479   6.760  32.407  1.00  0.00     0.145 A 
HETATM   13  N2  UNK     1      18.391   7.646  32.908  1.00  0.00    -0.338 N 
HETATM   14  C12 UNK     1      17.709   8.766  33.310  1.00  0.00     0.062 A 
HETATM   15  H9  UNK     1      19.388   7.513  33.009  1.00  0.00     0.167 HD
HETATM   16  C14 UNK     1      16.377   8.484  33.019  1.00  0.00     0.086 A 
HETATM   17  C17 UNK     1      18.131   9.965  33.885  1.00  0.00     0.032 A 
HETATM   18  N3  UNK     1      16.253   7.234  32.459  1.00  0.00    -0.228 NA
HETATM   19  C18 UNK     1      15.394   9.444  33.314  1.00  0.00     0.034 A 
HETATM   20  C20 UNK     1      15.794  10.654  33.892  1.00  0.00     0.002 A 
HETATM   21  C19 UNK     1      17.139  10.909  34.172  1.00  0.00     0.002 A 
ENDBRANCH   7  12
BRANCH   3  22
HETATM   22  N1  UNK     1      19.772  -0.549  30.744  1.00  0.00    -0.382 N 
BRANCH  22  23
HETATM   23  C3  UNK     1      20.502  -0.607  29.494  1.00  0.00     0.118 C 
HETATM   24  C15 UNK     1      19.537  -0.689  28.327  1.00  0.00     0.026 C 
ENDBRANCH  22  23
BRANCH  22  25
HETATM   25  C4  UNK     1      19.555  -1.772  31.492  1.00  0.00     0.118 C 
HETATM   26  C16 UNK     1      20.842  -2.205  32.169  1.00  0.00     0.026 C 
ENDBRANCH  22  25
ENDBRANCH   3  22
TORSDOF 4
ENDMDL
MODEL 10
REMARK VINA RESULT:      -7.8      8.781     10.757
REMARK  4 active torsions:
REMARK  status: ('A' for Active; 'I' for Inactive)
REMARK    1  A    between atoms: C1_6  and  N1_3 
REMARK    2  A    between atoms: C3_8  and  N1_3 
REMARK    3  A    between atoms: C4_9  and  N1_3 
REMARK    4  A    between atoms: C11_16  and  C7_12 
ROOT
HETATM    1  O1  UNK     1      25.846  -5.629  38.749  1.00  0.00    -0.274 OA
HETATM    2  O2  UNK     1      23.574  -5.469  38.884  1.00  0.00    -0.259 OA
HETATM    3  C1  UNK     1      29.397  -6.540  38.519  1.00  0.00     0.032 A 
HETATM    4  C2  UNK     1      26.897  -7.806  38.517  1.00  0.00    -0.001 A 
HETATM    5  C5  UNK     1      27.002  -6.424  38.631  1.00  0.00     0.091 A 
HETATM    6  C6  UNK     1      28.236  -5.778  38.632  1.00  0.00     0.067 A 
HETATM    7  C7  UNK     1      24.474  -7.659  38.633  1.00  0.00     0.086 A 
HETATM    8  C8  UNK     1      29.313  -7.929  38.404  1.00  0.00     0.030 A 
HETATM    9  C9  UNK     1      25.577  -8.414  38.519  1.00  0.00     0.035 A 
HETATM   10  C10 UNK     1      28.066  -8.563  38.404  1.00  0.00     0.016 A 
HETATM   11  C13 UNK     1      24.567  -6.179  38.764  1.00  0.00     0.302 A 
ENDROOT
BRANCH   7  12
HETATM   12  C11 UNK     1      23.190  -8.289  38.623  1.00  0.00     0.145 A 
HETATM   13  N2  UNK     1      22.849  -9.000  37.507  1.00  0.00    -0.338 N 
HETATM   14  C12 UNK     1      21.593  -9.515  37.706  1.00  0.00     0.062 A 
HETATM   15  H9  UNK     1      23.388  -9.114  36.659  1.00  0.00     0.167 HD
HETATM   16  C14 UNK     1      21.235  -9.071  38.976  1.00  0.00     0.086 A 
HETATM   17  C17 UNK     1      20.767 -10.307  36.909  1.00  0.00     0.032 A 
HETATM   18  N3  UNK     1      22.238  -8.311  39.530  1.00  0.00    -0.228 NA
HETATM   19  C18 UNK     1      19.980  -9.429  39.498  1.00  0.00     0.034 A 
HETATM   20  C20 UNK     1      19.133 -10.223  38.715  1.00  0.00     0.002 A 
HETATM   21  C19 UNK     1      19.521 -10.654  37.444  1.00  0.00     0.002 A 
ENDBRANCH   7  12
BRANCH   3  22
HETATM   22  N1  UNK     1      30.658  -5.909  38.518  1.00  0.00    -0.382 N 
BRANCH  22  23
HETATM   23  C3  UNK     1      31.869  -6.689  38.366  1.00  0.00     0.118 C 
HETATM   24  C15 UNK     1      32.156  -6.928  36.896  1.00  0.00     0.026 C 
ENDBRANCH  22  23
BRANCH  22  25
HETATM   25  C4  UNK     1      30.758  -4.470  38.657  1.00  0.00     0.118 C 
HETATM   26  C16 UNK     1      30.858  -3.819  37.290  1.00  0.00     0.026 C 
ENDBRANCH  22  25
ENDBRANCH   3  22
TORSDOF 4
ENDMDL
