MODEL 1
REMARK VINA RESULT:      -9.3      0.000      0.000
REMARK  3 active torsions:
REMARK  status: ('A' for Active; 'I' for Inactive)
REMARK       I    between atoms: C16_22  and  N1_5 
REMARK    1  A    between atoms: N1_5  and  N2_6 
REMARK    2  A    between atoms: C12_18  and  C7_13 
REMARK    3  A    between atoms: C11_17  and  C16_22 
ROOT
HETATM    1  O1  UNK     1      15.805   7.461  32.635  1.00  0.00    -0.321 OA
HETATM    2  O2  UNK     1      19.862   7.366  33.079  1.00  0.00    -0.286 OA
HETATM    3  C1  UNK     1      17.853   8.587  33.302  1.00  0.00     0.049 A 
HETATM    4  C2  UNK     1      16.469   8.558  33.127  1.00  0.00     0.089 A 
HETATM    5  C3  UNK     1      17.702  10.846  34.137  1.00  0.00    -0.061 A 
HETATM    6  C4  UNK     1      18.475   9.732  33.807  1.00  0.00     0.025 A 
HETATM    7  C5  UNK     1      18.646   7.396  32.945  1.00  0.00     0.198 A 
HETATM    8  C6  UNK     1      15.699   9.674  33.457  1.00  0.00     0.039 A 
HETATM    9  C7  UNK     1      17.883   6.243  32.420  1.00  0.00     0.056 A 
HETATM   10  C8  UNK     1      16.317  10.817  33.963  1.00  0.00     0.009 A 
HETATM   11  C9  UNK     1      16.556   6.357  32.306  1.00  0.00     0.159 A 
HETATM   12  C10 UNK     1      18.358  12.073  34.677  1.00  0.00     0.048 C 
ENDROOT
BRANCH   9  13
HETATM   13  C12 UNK     1      18.501   4.980  32.016  1.00  0.00     0.156 C 
HETATM   14  N2  UNK     1      18.714   4.676  30.777  1.00  0.00    -0.183 NA
BRANCH  14  15
HETATM   15  N1  UNK     1      19.295   3.465  30.599  1.00  0.00    -0.243 N 
HETATM   16  C16 UNK     1      18.478   2.350  30.450  1.00  0.00     0.272 C 
HETATM   17  O3  UNK     1      17.249   2.433  30.477  1.00  0.00    -0.266 OA
HETATM   18  H14 UNK     1      20.309   3.417  30.612  1.00  0.00     0.192 HD
BRANCH  16  19
HETATM   19  C11 UNK     1      19.176   1.067  30.290  1.00  0.00     0.041 A 
HETATM   20  C14 UNK     1      19.503   0.201  31.350  1.00  0.00     0.031 A 
HETATM   21  C13 UNK     1      20.154  -0.922  30.888  1.00  0.00    -0.021 A 
HETATM   22  S1  UNK     1      20.352  -0.897  29.188  1.00  0.00    -0.106 SA
HETATM   23  C17 UNK     1      20.668  -2.072  31.664  1.00  0.00     0.056 C 
HETATM   24  C15 UNK     1      19.566   0.620  29.064  1.00  0.00     0.067 A 
ENDBRANCH  16  19
ENDBRANCH  14  15
ENDBRANCH   9  13
TORSDOF 3
ENDMDL
MODEL 2
REMARK VINA RESULT:      -9.1      0.771      2.003
REMARK  3 active torsions:
REMARK  status: ('A' for Active; 'I' for Inactive)
REMARK       I    between atoms: C16_22  and  N1_5 
REMARK    1  A    between atoms: N1_5  and  N2_6 
REMARK    2  A    between atoms: C12_18  and  C7_13 
REMARK    3  A    between atoms: C11_17  and  C16_22 
ROOT
HETATM    1  O1  UNK     1      19.132   8.536  33.680  1.00  0.00    -0.321 OA
HETATM    2  O2  UNK     1      16.213   6.233  31.994  1.00  0.00    -0.286 OA
HETATM    3  C1  UNK     1      16.795   8.251  33.074  1.00  0.00     0.049 A 
HETATM    4  C2  UNK     1      17.837   8.990  33.637  1.00  0.00     0.089 A 
HETATM    5  C3  UNK     1      15.247  10.023  33.609  1.00  0.00    -0.061 A 
HETATM    6  C4  UNK     1      15.496   8.764  33.059  1.00  0.00     0.025 A 
HETATM    7  C5  UNK     1      17.086   6.924  32.501  1.00  0.00     0.198 A 
HETATM    8  C6  UNK     1      17.584  10.248  34.186  1.00  0.00     0.039 A 
HETATM    9  C7  UNK     1      18.496   6.482  32.573  1.00  0.00     0.056 A 
HETATM   10  C8  UNK     1      16.288  10.763  34.170  1.00  0.00     0.009 A 
HETATM   11  C9  UNK     1      19.390   7.297  33.142  1.00  0.00     0.159 A 
HETATM   12  C10 UNK     1      13.862  10.579  33.595  1.00  0.00     0.048 C 
ENDROOT
BRANCH   9  13
HETATM   13  C12 UNK     1      18.969   5.198  32.056  1.00  0.00     0.156 C 
HETATM   14  N2  UNK     1      18.853   4.865  30.811  1.00  0.00    -0.183 NA
BRANCH  14  15
HETATM   15  N1  UNK     1      19.350   3.639  30.519  1.00  0.00    -0.243 N 
HETATM   16  C16 UNK     1      18.496   2.544  30.576  1.00  0.00     0.272 C 
HETATM   17  O3  UNK     1      17.307   2.657  30.881  1.00  0.00    -0.266 OA
HETATM   18  H14 UNK     1      20.339   3.566  30.301  1.00  0.00     0.192 HD
BRANCH  16  19
HETATM   19  C11 UNK     1      19.110   1.242  30.276  1.00  0.00     0.041 A 
HETATM   20  C14 UNK     1      19.454   0.282  31.245  1.00  0.00     0.031 A 
HETATM   21  C13 UNK     1      20.011  -0.834  30.660  1.00  0.00    -0.021 A 
HETATM   22  S1  UNK     1      20.103  -0.688  28.957  1.00  0.00    -0.106 SA
HETATM   23  C17 UNK     1      20.507  -2.065  31.313  1.00  0.00     0.056 C 
HETATM   24  C15 UNK     1      19.396   0.872  28.997  1.00  0.00     0.067 A 
ENDBRANCH  16  19
ENDBRANCH  14  15
ENDBRANCH   9  13
TORSDOF 3
ENDMDL
MODEL 3
REMARK VINA RESULT:      -8.9      3.060      9.407
REMARK  3 active torsions:
REMARK  status: ('A' for Active; 'I' for Inactive)
REMARK       I    between atoms: C16_22  and  N1_5 
REMARK    1  A    between atoms: N1_5  and  N2_6 
REMARK    2  A    between atoms: C12_18  and  C7_13 
REMARK    3  A    between atoms: C11_17  and  C16_22 
ROOT
HETATM    1  O1  UNK     1      19.238   1.253  28.693  1.00  0.00    -0.321 OA
HETATM    2  O2  UNK     1      18.712   1.302  32.741  1.00  0.00    -0.286 OA
HETATM    3  C1  UNK     1      19.474   0.132  30.837  1.00  0.00     0.049 A 
HETATM    4  C2  UNK     1      19.626   0.176  29.450  1.00  0.00     0.089 A 
HETATM    5  C3  UNK     1      20.457  -2.071  30.877  1.00  0.00    -0.061 A 
HETATM    6  C4  UNK     1      19.888  -0.993  31.555  1.00  0.00     0.025 A 
HETATM    7  C5  UNK     1      18.869   1.285  31.528  1.00  0.00     0.198 A 
HETATM    8  C6  UNK     1      20.196  -0.905  28.775  1.00  0.00     0.039 A 
HETATM    9  C7  UNK     1      18.468   2.419  30.667  1.00  0.00     0.056 A 
HETATM   10  C8  UNK     1      20.611  -2.027  29.491  1.00  0.00     0.009 A 
HETATM   11  C9  UNK     1      18.675   2.323  29.349  1.00  0.00     0.159 A 
HETATM   12  C10 UNK     1      20.903  -3.276  31.637  1.00  0.00     0.048 C 
ENDROOT
BRANCH   9  13
HETATM   13  C12 UNK     1      17.854   3.645  31.177  1.00  0.00     0.156 C 
HETATM   14  N2  UNK     1      18.553   4.662  31.565  1.00  0.00    -0.183 NA
BRANCH  14  15
HETATM   15  N1  UNK     1      17.809   5.707  32.004  1.00  0.00    -0.243 N 
HETATM   16  C16 UNK     1      18.464   6.855  32.436  1.00  0.00     0.272 C 
HETATM   17  O3  UNK     1      19.693   6.948  32.430  1.00  0.00    -0.266 OA
HETATM   18  H14 UNK     1      16.801   5.596  32.029  1.00  0.00     0.192 HD
BRANCH  16  19
HETATM   19  C11 UNK     1      17.596   7.935  32.926  1.00  0.00     0.041 A 
HETATM   20  C14 UNK     1      16.218   8.033  32.657  1.00  0.00     0.031 A 
HETATM   21  C13 UNK     1      15.677   9.153  33.250  1.00  0.00    -0.021 A 
HETATM   22  S1  UNK     1      16.850  10.052  34.114  1.00  0.00    -0.106 SA
HETATM   23  C17 UNK     1      14.276   9.625  33.218  1.00  0.00     0.056 C 
HETATM   24  C15 UNK     1      18.088   8.945  33.696  1.00  0.00     0.067 A 
ENDBRANCH  16  19
ENDBRANCH  14  15
ENDBRANCH   9  13
TORSDOF 3
ENDMDL
MODEL 4
REMARK VINA RESULT:      -8.7      7.199     12.913
REMARK  3 active torsions:
REMARK  status: ('A' for Active; 'I' for Inactive)
REMARK       I    between atoms: C16_22  and  N1_5 
REMARK    1  A    between atoms: N1_5  and  N2_6 
REMARK    2  A    between atoms: C12_18  and  C7_13 
REMARK    3  A    between atoms: C11_17  and  C16_22 
ROOT
HETATM    1  O1  UNK     1      20.726  -5.097  38.420  1.00  0.00    -0.321 OA
HETATM    2  O2  UNK     1      19.101  -6.691  35.032  1.00  0.00    -0.286 OA
HETATM    3  C1  UNK     1      19.821  -7.029  37.255  1.00  0.00     0.049 A 
HETATM    4  C2  UNK     1      20.380  -6.425  38.383  1.00  0.00     0.089 A 
HETATM    5  C3  UNK     1      19.719  -9.134  38.431  1.00  0.00    -0.061 A 
HETATM    6  C4  UNK     1      19.489  -8.386  37.275  1.00  0.00     0.025 A 
HETATM    7  C5  UNK     1      19.589  -6.215  36.047  1.00  0.00     0.198 A 
HETATM    8  C6  UNK     1      20.609  -7.176  39.537  1.00  0.00     0.039 A 
HETATM    9  C7  UNK     1      19.979  -4.792  36.140  1.00  0.00     0.056 A 
HETATM   10  C8  UNK     1      20.277  -8.530  39.559  1.00  0.00     0.009 A 
HETATM   11  C9  UNK     1      20.505  -4.349  37.288  1.00  0.00     0.159 A 
HETATM   12  C10 UNK     1      19.366 -10.584  38.460  1.00  0.00     0.048 C 
ENDROOT
BRANCH   9  13
HETATM   13  C12 UNK     1      19.822  -3.836  35.044  1.00  0.00     0.156 C 
HETATM   14  N2  UNK     1      20.704  -2.926  34.784  1.00  0.00    -0.183 NA
BRANCH  14  15
HETATM   15  N1  UNK     1      20.386  -2.134  33.732  1.00  0.00    -0.243 N 
HETATM   16  C16 UNK     1      20.764  -2.538  32.457  1.00  0.00     0.272 C 
HETATM   17  O3  UNK     1      21.377  -3.589  32.258  1.00  0.00    -0.266 OA
HETATM   18  H14 UNK     1      19.909  -1.258  33.922  1.00  0.00     0.192 HD
BRANCH  16  19
HETATM   19  C11 UNK     1      20.411  -1.616  31.367  1.00  0.00     0.041 A 
HETATM   20  C14 UNK     1      19.788  -0.368  31.551  1.00  0.00     0.031 A 
HETATM   21  C13 UNK     1      19.585   0.266  30.345  1.00  0.00    -0.021 A 
HETATM   22  S1  UNK     1      20.153  -0.666  29.026  1.00  0.00    -0.106 SA
HETATM   23  C17 UNK     1      18.965   1.585  30.091  1.00  0.00     0.056 C 
HETATM   24  C15 UNK     1      20.673  -1.923  30.067  1.00  0.00     0.067 A 
ENDBRANCH  16  19
ENDBRANCH  14  15
ENDBRANCH   9  13
TORSDOF 3
ENDMDL
MODEL 5
REMARK VINA RESULT:      -8.3      5.821      8.112
REMARK  3 active torsions:
REMARK  status: ('A' for Active; 'I' for Inactive)
REMARK       I    between atoms: C16_22  and  N1_5 
REMARK    1  A    between atoms: N1_5  and  N2_6 
REMARK    2  A    between atoms: C12_18  and  C7_13 
REMARK    3  A    between atoms: C11_17  and  C16_22 
ROOT
HETATM    1  O1  UNK     1      18.137   2.635  35.316  1.00  0.00    -0.321 OA
HETATM    2  O2  UNK     1      18.453  -0.378  32.580  1.00  0.00    -0.286 OA
HETATM    3  C1  UNK     1      18.376   1.945  32.998  1.00  0.00     0.049 A 
HETATM    4  C2  UNK     1      18.264   2.929  33.981  1.00  0.00     0.089 A 
HETATM    5  C3  UNK     1      18.518   3.654  31.300  1.00  0.00    -0.061 A 
HETATM    6  C4  UNK     1      18.503   2.304  31.654  1.00  0.00     0.025 A 
HETATM    7  C5  UNK     1      18.357   0.526  33.399  1.00  0.00     0.198 A 
HETATM    8  C6  UNK     1      18.280   4.278  33.625  1.00  0.00     0.039 A 
HETATM    9  C7  UNK     1      18.218   0.264  34.848  1.00  0.00     0.056 A 
HETATM   10  C8  UNK     1      18.407   4.639  32.284  1.00  0.00     0.009 A 
HETATM   11  C9  UNK     1      18.120   1.308  35.677  1.00  0.00     0.159 A 
HETATM   12  C10 UNK     1      18.654   4.046  29.867  1.00  0.00     0.048 C 
ENDROOT
BRANCH   9  13
HETATM   13  C12 UNK     1      18.180  -1.079  35.428  1.00  0.00     0.156 C 
HETATM   14  N2  UNK     1      19.244  -1.684  35.847  1.00  0.00    -0.183 NA
BRANCH  14  15
HETATM   15  N1  UNK     1      19.012  -2.920  36.353  1.00  0.00    -0.243 N 
HETATM   16  C16 UNK     1      20.097  -3.757  36.588  1.00  0.00     0.272 C 
HETATM   17  O3  UNK     1      21.255  -3.409  36.350  1.00  0.00    -0.266 OA
HETATM   18  H14 UNK     1      18.048  -3.195  36.511  1.00  0.00     0.192 HD
BRANCH  16  19
HETATM   19  C11 UNK     1      19.768  -5.091  37.110  1.00  0.00     0.041 A 
HETATM   20  C14 UNK     1      20.424  -5.706  38.192  1.00  0.00     0.031 A 
HETATM   21  C13 UNK     1      19.895  -6.952  38.447  1.00  0.00    -0.021 A 
HETATM   22  S1  UNK     1      18.623  -7.343  37.371  1.00  0.00    -0.106 SA
HETATM   23  C17 UNK     1      20.291  -7.925  39.489  1.00  0.00     0.056 C 
HETATM   24  C15 UNK     1      18.775  -5.843  36.559  1.00  0.00     0.067 A 
ENDBRANCH  16  19
ENDBRANCH  14  15
ENDBRANCH   9  13
TORSDOF 3
ENDMDL
MODEL 6
REMARK VINA RESULT:      -8.2      5.373      7.548
REMARK  3 active torsions:
REMARK  status: ('A' for Active; 'I' for Inactive)
REMARK       I    between atoms: C16_22  and  N1_5 
REMARK    1  A    between atoms: N1_5  and  N2_6 
REMARK    2  A    between atoms: C12_18  and  C7_13 
REMARK    3  A    between atoms: C11_17  and  C16_22 
ROOT
HETATM    1  O1  UNK     1      18.568   1.010  31.763  1.00  0.00    -0.321 OA
HETATM    2  O2  UNK     1      18.249   1.866  35.742  1.00  0.00    -0.286 OA
HETATM    3  C1  UNK     1      18.272   2.664  33.519  1.00  0.00     0.049 A 
HETATM    4  C2  UNK     1      18.389   2.307  32.175  1.00  0.00     0.089 A 
HETATM    5  C3  UNK     1      18.026   4.979  32.886  1.00  0.00    -0.061 A 
HETATM    6  C4  UNK     1      18.091   4.002  33.880  1.00  0.00     0.025 A 
HETATM    7  C5  UNK     1      18.345   1.611  34.549  1.00  0.00     0.198 A 
HETATM    8  C6  UNK     1      18.323   3.287  31.184  1.00  0.00     0.039 A 
HETATM    9  C7  UNK     1      18.539   0.231  34.053  1.00  0.00     0.056 A 
HETATM   10  C8  UNK     1      18.141   4.622  31.541  1.00  0.00     0.009 A 
HETATM   11  C9  UNK     1      18.634   0.037  32.733  1.00  0.00     0.159 A 
HETATM   12  C10 UNK     1      17.832   6.410  33.262  1.00  0.00     0.048 C 
ENDROOT
BRANCH   9  13
HETATM   13  C12 UNK     1      18.634  -0.938  34.927  1.00  0.00     0.156 C 
HETATM   14  N2  UNK     1      19.754  -1.334  35.438  1.00  0.00    -0.183 NA
BRANCH  14  15
HETATM   15  N1  UNK     1      19.644  -2.434  36.222  1.00  0.00    -0.243 N 
HETATM   16  C16 UNK     1      20.015  -3.666  35.696  1.00  0.00     0.272 C 
HETATM   17  O3  UNK     1      20.438  -3.785  34.545  1.00  0.00    -0.266 OA
HETATM   18  H14 UNK     1      19.264  -2.317  37.156  1.00  0.00     0.192 HD
BRANCH  16  19
HETATM   19  C11 UNK     1      19.841  -4.818  36.592  1.00  0.00     0.041 A 
HETATM   20  C14 UNK     1      20.735  -5.168  37.621  1.00  0.00     0.031 A 
HETATM   21  C13 UNK     1      20.306  -6.294  38.288  1.00  0.00    -0.021 A 
HETATM   22  S1  UNK     1      18.835  -6.896  37.651  1.00  0.00    -0.106 SA
HETATM   23  C17 UNK     1      20.946  -6.991  39.424  1.00  0.00     0.056 C 
HETATM   24  C15 UNK     1      18.768  -5.649  36.479  1.00  0.00     0.067 A 
ENDBRANCH  16  19
ENDBRANCH  14  15
ENDBRANCH   9  13
TORSDOF 3
ENDMDL
MODEL 7
REMARK VINA RESULT:      -8.2      8.274     14.467
REMARK  3 active torsions:
REMARK  status: ('A' for Active; 'I' for Inactive)
REMARK       I    between atoms: C16_22  and  N1_5 
REMARK    1  A    between atoms: N1_5  and  N2_6 
REMARK    2  A    between atoms: C12_18  and  C7_13 
REMARK    3  A    between atoms: C11_17  and  C16_22 
ROOT
HETATM    1  O1  UNK     1      18.701  -8.210  37.991  1.00  0.00    -0.321 OA
HETATM    2  O2  UNK     1      20.953  -6.607  34.987  1.00  0.00    -0.286 OA
HETATM    3  C1  UNK     1      20.469  -8.478  36.345  1.00  0.00     0.049 A 
HETATM    4  C2  UNK     1      19.668  -8.968  37.377  1.00  0.00     0.089 A 
HETATM    5  C3  UNK     1      21.597 -10.607  36.207  1.00  0.00    -0.061 A 
HETATM    6  C4  UNK     1      21.437  -9.295  35.757  1.00  0.00     0.025 A 
HETATM    7  C5  UNK     1      20.280  -7.089  35.888  1.00  0.00     0.198 A 
HETATM    8  C6  UNK     1      19.830 -10.279  37.825  1.00  0.00     0.039 A 
HETATM    9  C7  UNK     1      19.227  -6.316  36.583  1.00  0.00     0.056 A 
HETATM   10  C8  UNK     1      20.795 -11.097  37.239  1.00  0.00     0.009 A 
HETATM   11  C9  UNK     1      18.535  -6.916  37.557  1.00  0.00     0.159 A 
HETATM   12  C10 UNK     1      22.629 -11.487  35.584  1.00  0.00     0.048 C 
ENDROOT
BRANCH   9  13
HETATM   13  C12 UNK     1      18.898  -4.926  36.264  1.00  0.00     0.156 C 
HETATM   14  N2  UNK     1      19.712  -3.949  36.499  1.00  0.00    -0.183 NA
BRANCH  14  15
HETATM   15  N1  UNK     1      19.234  -2.734  36.136  1.00  0.00    -0.243 N 
HETATM   16  C16 UNK     1      18.911  -1.820  37.132  1.00  0.00     0.272 C 
HETATM   17  O3  UNK     1      19.046  -2.083  38.329  1.00  0.00    -0.266 OA
HETATM   18  H14 UNK     1      19.102  -2.552  35.146  1.00  0.00     0.192 HD
BRANCH  16  19
HETATM   19  C11 UNK     1      18.371  -0.535  36.666  1.00  0.00     0.041 A 
HETATM   20  C14 UNK     1      18.642   0.032  35.407  1.00  0.00     0.031 A 
HETATM   21  C13 UNK     1      17.996   1.239  35.259  1.00  0.00    -0.021 A 
HETATM   22  S1  UNK     1      17.080   1.652  36.645  1.00  0.00    -0.106 SA
HETATM   23  C17 UNK     1      18.012   2.156  34.098  1.00  0.00     0.056 C 
HETATM   24  C15 UNK     1      17.547   0.214  37.450  1.00  0.00     0.067 A 
ENDBRANCH  16  19
ENDBRANCH  14  15
ENDBRANCH   9  13
TORSDOF 3
ENDMDL
MODEL 8
REMARK VINA RESULT:      -8.1      3.390      9.302
REMARK  3 active torsions:
REMARK  status: ('A' for Active; 'I' for Inactive)
REMARK       I    between atoms: C16_22  and  N1_5 
REMARK    1  A    between atoms: N1_5  and  N2_6 
REMARK    2  A    between atoms: C12_18  and  C7_13 
REMARK    3  A    between atoms: C11_17  and  C16_22 
ROOT
HETATM    1  O1  UNK     1      18.881   3.066  29.467  1.00  0.00    -0.321 OA
HETATM    2  O2  UNK     1      18.231   2.258  33.415  1.00  0.00    -0.286 OA
HETATM    3  C1  UNK     1      18.947   1.477  31.305  1.00  0.00     0.049 A 
HETATM    4  C2  UNK     1      19.147   1.815  29.965  1.00  0.00     0.089 A 
HETATM    5  C3  UNK     1      19.729  -0.762  30.858  1.00  0.00    -0.061 A 
HETATM    6  C4  UNK     1      19.236   0.186  31.756  1.00  0.00     0.025 A 
HETATM    7  C5  UNK     1      18.425   2.498  32.231  1.00  0.00     0.198 A 
HETATM    8  C6  UNK     1      19.640   0.864  29.071  1.00  0.00     0.039 A 
HETATM    9  C7  UNK     1      18.154   3.828  31.644  1.00  0.00     0.056 A 
HETATM   10  C8  UNK     1      19.930  -0.424  29.519  1.00  0.00     0.009 A 
HETATM   11  C9  UNK     1      18.394   4.010  30.341  1.00  0.00     0.159 A 
HETATM   12  C10 UNK     1      20.041  -2.143  31.332  1.00  0.00     0.048 C 
ENDROOT
BRANCH   9  13
HETATM   13  C12 UNK     1      17.636   4.962  32.410  1.00  0.00     0.156 C 
HETATM   14  N2  UNK     1      17.654   6.173  31.957  1.00  0.00    -0.183 NA
BRANCH  14  15
HETATM   15  N1  UNK     1      17.130   7.088  32.808  1.00  0.00    -0.243 N 
HETATM   16  C16 UNK     1      16.443   8.174  32.277  1.00  0.00     0.272 C 
HETATM   17  O3  UNK     1      16.299   8.326  31.063  1.00  0.00    -0.266 OA
HETATM   18  H14 UNK     1      17.289   6.959  33.802  1.00  0.00     0.192 HD
BRANCH  16  19
HETATM   19  C11 UNK     1      15.928   9.141  33.257  1.00  0.00     0.041 A 
HETATM   20  C14 UNK     1      16.625  10.283  33.691  1.00  0.00     0.031 A 
HETATM   21  C13 UNK     1      15.887  10.994  34.611  1.00  0.00    -0.021 A 
HETATM   22  S1  UNK     1      14.373  10.260  34.924  1.00  0.00    -0.106 SA
HETATM   23  C17 UNK     1      16.248  12.246  35.311  1.00  0.00     0.056 C 
HETATM   24  C15 UNK     1      14.701   8.986  33.827  1.00  0.00     0.067 A 
ENDBRANCH  16  19
ENDBRANCH  14  15
ENDBRANCH   9  13
TORSDOF 3
ENDMDL
MODEL 9
REMARK VINA RESULT:      -8.1     14.979     17.828
REMARK  3 active torsions:
REMARK  status: ('A' for Active; 'I' for Inactive)
REMARK       I    between atoms: C16_22  and  N1_5 
REMARK    1  A    between atoms: N1_5  and  N2_6 
REMARK    2  A    between atoms: C12_18  and  C7_13 
REMARK    3  A    between atoms: C11_17  and  C16_22 
ROOT
HETATM    1  O1  UNK     1      29.091  -9.664  38.177  1.00  0.00    -0.321 OA
HETATM    2  O2  UNK     1      27.498  -5.910  38.361  1.00  0.00    -0.286 OA
HETATM    3  C1  UNK     1      29.434  -7.261  38.298  1.00  0.00     0.049 A 
HETATM    4  C2  UNK     1      29.917  -8.569  38.235  1.00  0.00     0.089 A 
HETATM    5  C3  UNK     1      31.697  -6.426  38.346  1.00  0.00    -0.061 A 
HETATM    6  C4  UNK     1      30.322  -6.184  38.355  1.00  0.00     0.025 A 
HETATM    7  C5  UNK     1      27.977  -7.035  38.307  1.00  0.00     0.198 A 
HETATM    8  C6  UNK     1      31.292  -8.807  38.225  1.00  0.00     0.039 A 
HETATM    9  C7  UNK     1      27.132  -8.247  38.244  1.00  0.00     0.056 A 
HETATM   10  C8  UNK     1      32.180  -7.733  38.281  1.00  0.00     0.009 A 
HETATM   11  C9  UNK     1      27.734  -9.440  38.186  1.00  0.00     0.159 A 
HETATM   12  C10 UNK     1      32.653  -5.281  38.405  1.00  0.00     0.048 C 
ENDROOT
BRANCH   9  13
HETATM   13  C12 UNK     1      25.669  -8.216  38.242  1.00  0.00     0.156 C 
HETATM   14  N2  UNK     1      24.962  -8.876  37.383  1.00  0.00    -0.183 NA
BRANCH  14  15
HETATM   15  N1  UNK     1      23.624  -8.725  37.538  1.00  0.00    -0.243 N 
HETATM   16  C16 UNK     1      22.772  -9.464  36.726  1.00  0.00     0.272 C 
HETATM   17  O3  UNK     1      23.197 -10.247  35.874  1.00  0.00    -0.266 OA
HETATM   18  H14 UNK     1      23.298  -8.052  38.225  1.00  0.00     0.192 HD
BRANCH  16  19
HETATM   19  C11 UNK     1      21.336  -9.228  36.930  1.00  0.00     0.041 A 
HETATM   20  C14 UNK     1      20.514  -8.507  36.044  1.00  0.00     0.031 A 
HETATM   21  C13 UNK     1      19.217  -8.455  36.505  1.00  0.00    -0.021 A 
HETATM   22  S1  UNK     1      19.030  -9.278  37.994  1.00  0.00    -0.106 SA
HETATM   23  C17 UNK     1      18.045  -7.801  35.883  1.00  0.00     0.056 C 
HETATM   24  C15 UNK     1      20.688  -9.707  38.028  1.00  0.00     0.067 A 
ENDBRANCH  16  19
ENDBRANCH  14  15
ENDBRANCH   9  13
TORSDOF 3
ENDMDL
MODEL 10
REMARK VINA RESULT:      -8.0      3.303      9.295
REMARK  3 active torsions:
REMARK  status: ('A' for Active; 'I' for Inactive)
REMARK       I    between atoms: C16_22  and  N1_5 
REMARK    1  A    between atoms: N1_5  and  N2_6 
REMARK    2  A    between atoms: C12_18  and  C7_13 
REMARK    3  A    between atoms: C11_17  and  C16_22 
ROOT
HETATM    1  O1  UNK     1      18.366   1.558  33.363  1.00  0.00    -0.321 OA
HETATM    2  O2  UNK     1      18.776   3.900  30.044  1.00  0.00    -0.286 OA
HETATM    3  C1  UNK     1      18.986   1.760  31.021  1.00  0.00     0.049 A 
HETATM    4  C2  UNK     1      18.824   1.013  32.189  1.00  0.00     0.089 A 
HETATM    5  C3  UNK     1      19.763  -0.210  29.865  1.00  0.00    -0.061 A 
HETATM    6  C4  UNK     1      19.457   1.151  29.855  1.00  0.00     0.025 A 
HETATM    7  C5  UNK     1      18.655   3.197  31.039  1.00  0.00     0.198 A 
HETATM    8  C6  UNK     1      19.132  -0.348  32.196  1.00  0.00     0.039 A 
HETATM    9  C7  UNK     1      18.165   3.734  32.327  1.00  0.00     0.056 A 
HETATM   10  C8  UNK     1      19.601  -0.958  31.032  1.00  0.00     0.009 A 
HETATM   11  C9  UNK     1      18.061   2.898  33.366  1.00  0.00     0.159 A 
HETATM   12  C10 UNK     1      20.267  -0.868  28.624  1.00  0.00     0.048 C 
ENDROOT
BRANCH   9  13
HETATM   13  C12 UNK     1      17.789   5.133  32.531  1.00  0.00     0.156 C 
HETATM   14  N2  UNK     1      18.664   6.080  32.634  1.00  0.00    -0.183 NA
BRANCH  14  15
HETATM   15  N1  UNK     1      18.126   7.310  32.819  1.00  0.00    -0.243 N 
HETATM   16  C16 UNK     1      18.732   8.172  33.725  1.00  0.00     0.272 C 
HETATM   17  O3  UNK     1      19.738   7.851  34.360  1.00  0.00    -0.266 OA
HETATM   18  H14 UNK     1      17.280   7.541  32.308  1.00  0.00     0.192 HD
BRANCH  16  19
HETATM   19  C11 UNK     1      18.078   9.477  33.896  1.00  0.00     0.041 A 
HETATM   20  C14 UNK     1      18.761  10.705  33.979  1.00  0.00     0.031 A 
HETATM   21  C13 UNK     1      17.879  11.751  34.138  1.00  0.00    -0.021 A 
HETATM   22  S1  UNK     1      16.252  11.220  34.182  1.00  0.00    -0.106 SA
HETATM   23  C17 UNK     1      18.177  13.194  34.267  1.00  0.00     0.056 C 
HETATM   24  C15 UNK     1      16.724   9.584  33.988  1.00  0.00     0.067 A 
ENDBRANCH  16  19
ENDBRANCH  14  15
ENDBRANCH   9  13
TORSDOF 3
ENDMDL
