MODEL 1
REMARK VINA RESULT:      -6.6      0.000      0.000
REMARK  2 active torsions:
REMARK  status: ('A' for Active; 'I' for Inactive)
REMARK    1  A    between atoms: C11_14  and  O2_2 
REMARK    2  A    between atoms: C5_8  and  O2_2 
ROOT
HETATM    1  O1  UNK     1      19.224  -0.148  32.834  1.00  0.00    -0.275 OA
HETATM    2  O3  UNK     1      20.023  -2.229  33.343  1.00  0.00    -0.260 OA
HETATM    3  C1  UNK     1      19.384   0.664  30.535  1.00  0.00     0.004 A 
HETATM    4  C2  UNK     1      19.004   0.851  31.865  1.00  0.00     0.092 A 
HETATM    5  C3  UNK     1      20.025  -0.603  30.159  1.00  0.00    -0.043 A 
HETATM    6  C4  UNK     1      19.129   1.705  29.633  1.00  0.00     0.017 A 
HETATM    7  C5  UNK     1      18.145   3.047  31.395  1.00  0.00     0.071 A 
HETATM    8  C6  UNK     1      18.389   2.025  32.306  1.00  0.00     0.075 A 
HETATM    9  C7  UNK     1      18.514   2.888  30.061  1.00  0.00     0.038 A 
HETATM   10  C8  UNK     1      20.223  -1.536  31.102  1.00  0.00     0.090 A 
HETATM   11  C9  UNK     1      20.447  -0.836  28.738  1.00  0.00     0.049 C 
HETATM   12  C10 UNK     1      19.827  -1.353  32.508  1.00  0.00     0.288 A 
ENDROOT
BRANCH   7  13
HETATM   13  O2  UNK     1      17.547   4.198  31.805  1.00  0.00    -0.351 OA
BRANCH  13  14
HETATM   14  C11 UNK     1      18.199   4.938  32.836  1.00  0.00     0.171 C 
HETATM   15  C12 UNK     1      19.181   5.902  32.205  1.00  0.00     0.034 C 
ENDBRANCH  13  14
ENDBRANCH   7  13
TORSDOF 2
ENDMDL
MODEL 2
REMARK VINA RESULT:      -6.6     23.221     24.898
REMARK  2 active torsions:
REMARK  status: ('A' for Active; 'I' for Inactive)
REMARK    1  A    between atoms: C11_14  and  O2_2 
REMARK    2  A    between atoms: C5_8  and  O2_2 
ROOT
HETATM    1  O1  UNK     1       9.439   5.540   9.554  1.00  0.00    -0.275 OA
HETATM    2  O3  UNK     1       7.179   5.675   9.238  1.00  0.00    -0.260 OA
HETATM    3  C1  UNK     1      10.935   5.905   7.656  1.00  0.00     0.004 A 
HETATM    4  C2  UNK     1      10.736   5.618   9.008  1.00  0.00     0.092 A 
HETATM    5  C3  UNK     1       9.758   6.124   6.804  1.00  0.00    -0.043 A 
HETATM    6  C4  UNK     1      12.255   5.967   7.191  1.00  0.00     0.017 A 
HETATM    7  C5  UNK     1      13.102   5.463   9.405  1.00  0.00     0.071 A 
HETATM    8  C6  UNK     1      11.799   5.398   9.886  1.00  0.00     0.075 A 
HETATM    9  C7  UNK     1      13.330   5.747   8.060  1.00  0.00     0.038 A 
HETATM   10  C8  UNK     1       8.537   6.042   7.350  1.00  0.00     0.090 A 
HETATM   11  C9  UNK     1       9.937   6.433   5.346  1.00  0.00     0.049 C 
HETATM   12  C10 UNK     1       8.311   5.741   8.774  1.00  0.00     0.288 A 
ENDROOT
BRANCH   7  13
HETATM   13  O2  UNK     1      14.151   5.250  10.245  1.00  0.00    -0.351 OA
BRANCH  13  14
HETATM   14  C11 UNK     1      15.461   5.375   9.695  1.00  0.00     0.171 C 
HETATM   15  C12 UNK     1      16.111   6.626  10.247  1.00  0.00     0.034 C 
ENDBRANCH  13  14
ENDBRANCH   7  13
TORSDOF 2
ENDMDL
MODEL 3
REMARK VINA RESULT:      -6.5      3.424      7.207
REMARK  2 active torsions:
REMARK  status: ('A' for Active; 'I' for Inactive)
REMARK    1  A    between atoms: C11_14  and  O2_2 
REMARK    2  A    between atoms: C5_8  and  O2_2 
ROOT
HETATM    1  O1  UNK     1      16.474   6.531  33.068  1.00  0.00    -0.275 OA
HETATM    2  O3  UNK     1      15.187   7.766  34.499  1.00  0.00    -0.260 OA
HETATM    3  C1  UNK     1      18.882   6.935  32.976  1.00  0.00     0.004 A 
HETATM    4  C2  UNK     1      17.749   6.245  32.541  1.00  0.00     0.092 A 
HETATM    5  C3  UNK     1      18.721   7.975  34.000  1.00  0.00    -0.043 A 
HETATM    6  C4  UNK     1      20.114   6.590  32.404  1.00  0.00     0.017 A 
HETATM    7  C5  UNK     1      19.046   4.914  31.016  1.00  0.00     0.071 A 
HETATM    8  C6  UNK     1      17.814   5.242  31.572  1.00  0.00     0.075 A 
HETATM    9  C7  UNK     1      20.194   5.586  31.431  1.00  0.00     0.038 A 
HETATM   10  C8  UNK     1      17.496   8.227  34.483  1.00  0.00     0.090 A 
HETATM   11  C9  UNK     1      19.918   8.736  34.489  1.00  0.00     0.049 C 
HETATM   12  C10 UNK     1      16.292   7.508  34.034  1.00  0.00     0.288 A 
ENDROOT
BRANCH   7  13
HETATM   13  O2  UNK     1      19.130   3.939  30.070  1.00  0.00    -0.351 OA
BRANCH  13  14
HETATM   14  C11 UNK     1      18.395   2.740  30.305  1.00  0.00     0.171 C 
HETATM   15  C12 UNK     1      18.008   2.130  28.975  1.00  0.00     0.034 C 
ENDBRANCH  13  14
ENDBRANCH   7  13
TORSDOF 2
ENDMDL
MODEL 4
REMARK VINA RESULT:      -6.4      1.729      2.634
REMARK  2 active torsions:
REMARK  status: ('A' for Active; 'I' for Inactive)
REMARK    1  A    between atoms: C11_14  and  O2_2 
REMARK    2  A    between atoms: C5_8  and  O2_2 
ROOT
HETATM    1  O1  UNK     1      19.558   0.978  29.431  1.00  0.00    -0.275 OA
HETATM    2  O3  UNK     1      20.501  -0.660  28.144  1.00  0.00    -0.260 OA
HETATM    3  C1  UNK     1      19.084   0.524  31.785  1.00  0.00     0.004 A 
HETATM    4  C2  UNK     1      19.068   1.387  30.687  1.00  0.00     0.092 A 
HETATM    5  C3  UNK     1      19.624  -0.830  31.606  1.00  0.00    -0.043 A 
HETATM    6  C4  UNK     1      18.580   1.007  33.000  1.00  0.00     0.017 A 
HETATM    7  C5  UNK     1      18.077   3.150  31.986  1.00  0.00     0.071 A 
HETATM    8  C6  UNK     1      18.573   2.690  30.771  1.00  0.00     0.075 A 
HETATM    9  C7  UNK     1      18.080   2.311  33.098  1.00  0.00     0.038 A 
HETATM   10  C8  UNK     1      20.083  -1.193  30.399  1.00  0.00     0.090 A 
HETATM   11  C9  UNK     1      19.655  -1.783  32.765  1.00  0.00     0.049 C 
HETATM   12  C10 UNK     1      20.073  -0.294  29.233  1.00  0.00     0.288 A 
ENDROOT
BRANCH   7  13
HETATM   13  O2  UNK     1      17.590   4.417  32.088  1.00  0.00    -0.351 OA
BRANCH  13  14
HETATM   14  C11 UNK     1      18.195   5.270  33.058  1.00  0.00     0.171 C 
HETATM   15  C12 UNK     1      19.298   6.066  32.395  1.00  0.00     0.034 C 
ENDBRANCH  13  14
ENDBRANCH   7  13
TORSDOF 2
ENDMDL
MODEL 5
REMARK VINA RESULT:      -6.4      3.466      5.854
REMARK  2 active torsions:
REMARK  status: ('A' for Active; 'I' for Inactive)
REMARK    1  A    between atoms: C11_14  and  O2_2 
REMARK    2  A    between atoms: C5_8  and  O2_2 
ROOT
HETATM    1  O1  UNK     1      16.992  -0.263  34.015  1.00  0.00    -0.275 OA
HETATM    2  O3  UNK     1      15.351   0.462  35.432  1.00  0.00    -0.260 OA
HETATM    3  C1  UNK     1      18.843  -1.586  34.906  1.00  0.00     0.004 A 
HETATM    4  C2  UNK     1      18.198  -0.968  33.833  1.00  0.00     0.092 A 
HETATM    5  C3  UNK     1      18.238  -1.485  36.241  1.00  0.00    -0.043 A 
HETATM    6  C4  UNK     1      20.037  -2.270  34.642  1.00  0.00     0.017 A 
HETATM    7  C5  UNK     1      19.892  -1.700  32.291  1.00  0.00     0.071 A 
HETATM    8  C6  UNK     1      18.704  -1.017  32.532  1.00  0.00     0.075 A 
HETATM    9  C7  UNK     1      20.557  -2.326  33.343  1.00  0.00     0.038 A 
HETATM   10  C8  UNK     1      17.091  -0.807  36.385  1.00  0.00     0.090 A 
HETATM   11  C9  UNK     1      18.906  -2.137  37.416  1.00  0.00     0.049 C 
HETATM   12  C10 UNK     1      16.399  -0.151  35.262  1.00  0.00     0.288 A 
ENDROOT
BRANCH   7  13
HETATM   13  O2  UNK     1      20.401  -1.758  31.031  1.00  0.00    -0.351 OA
BRANCH  13  14
HETATM   14  C11 UNK     1      20.682  -0.517  30.385  1.00  0.00     0.171 C 
HETATM   15  C12 UNK     1      20.601  -0.712  28.886  1.00  0.00     0.034 C 
ENDBRANCH  13  14
ENDBRANCH   7  13
TORSDOF 2
ENDMDL
MODEL 6
REMARK VINA RESULT:      -6.4     22.692     24.278
REMARK  2 active torsions:
REMARK  status: ('A' for Active; 'I' for Inactive)
REMARK    1  A    between atoms: C11_14  and  O2_2 
REMARK    2  A    between atoms: C5_8  and  O2_2 
ROOT
HETATM    1  O1  UNK     1      13.967   4.660   9.115  1.00  0.00    -0.275 OA
HETATM    2  O3  UNK     1      16.135   4.194   9.675  1.00  0.00    -0.260 OA
HETATM    3  C1  UNK     1      13.099   6.916   9.476  1.00  0.00     0.004 A 
HETATM    4  C2  UNK     1      12.919   5.599   9.047  1.00  0.00     0.092 A 
HETATM    5  C3  UNK     1      14.412   7.308  10.005  1.00  0.00    -0.043 A 
HETATM    6  C4  UNK     1      12.008   7.788   9.373  1.00  0.00     0.017 A 
HETATM    7  C5  UNK     1      10.633   6.025   8.437  1.00  0.00     0.071 A 
HETATM    8  C6  UNK     1      11.705   5.144   8.530  1.00  0.00     0.075 A 
HETATM    9  C7  UNK     1      10.784   7.345   8.858  1.00  0.00     0.038 A 
HETATM   10  C8  UNK     1      15.391   6.394  10.059  1.00  0.00     0.090 A 
HETATM   11  C9  UNK     1      14.638   8.716  10.475  1.00  0.00     0.049 C 
HETATM   12  C10 UNK     1      15.216   5.002   9.611  1.00  0.00     0.288 A 
ENDROOT
BRANCH   7  13
HETATM   13  O2  UNK     1       9.441   5.601   7.937  1.00  0.00    -0.351 OA
BRANCH  13  14
HETATM   14  C11 UNK     1       8.860   6.380   6.893  1.00  0.00     0.171 C 
HETATM   15  C12 UNK     1       9.693   6.225   5.639  1.00  0.00     0.034 C 
ENDBRANCH  13  14
ENDBRANCH   7  13
TORSDOF 2
ENDMDL
MODEL 7
REMARK VINA RESULT:      -6.3      3.744      5.739
REMARK  2 active torsions:
REMARK  status: ('A' for Active; 'I' for Inactive)
REMARK    1  A    between atoms: C11_14  and  O2_2 
REMARK    2  A    between atoms: C5_8  and  O2_2 
ROOT
HETATM    1  O1  UNK     1      17.211   4.444  32.196  1.00  0.00    -0.275 OA
HETATM    2  O3  UNK     1      17.418   2.667  30.772  1.00  0.00    -0.260 OA
HETATM    3  C1  UNK     1      18.988   6.119  32.283  1.00  0.00     0.004 A 
HETATM    4  C2  UNK     1      17.753   5.635  32.719  1.00  0.00     0.092 A 
HETATM    5  C3  UNK     1      19.720   5.357  31.262  1.00  0.00    -0.043 A 
HETATM    6  C4  UNK     1      19.457   7.311  32.850  1.00  0.00     0.017 A 
HETATM    7  C5  UNK     1      17.476   7.479  34.236  1.00  0.00     0.071 A 
HETATM    8  C6  UNK     1      16.992   6.297  33.684  1.00  0.00     0.075 A 
HETATM    9  C7  UNK     1      18.705   7.985  33.820  1.00  0.00     0.038 A 
HETATM   10  C8  UNK     1      19.181   4.227  30.784  1.00  0.00     0.090 A 
HETATM   11  C9  UNK     1      21.051   5.850  30.773  1.00  0.00     0.049 C 
HETATM   12  C10 UNK     1      17.880   3.705  31.233  1.00  0.00     0.288 A 
ENDROOT
BRANCH   7  13
HETATM   13  O2  UNK     1      16.749   8.139  35.179  1.00  0.00    -0.351 OA
BRANCH  13  14
HETATM   14  C11 UNK     1      16.091   9.337  34.771  1.00  0.00     0.171 C 
HETATM   15  C12 UNK     1      14.687   8.999  34.319  1.00  0.00     0.034 C 
ENDBRANCH  13  14
ENDBRANCH   7  13
TORSDOF 2
ENDMDL
MODEL 8
REMARK VINA RESULT:      -6.3      8.248     11.125
REMARK  2 active torsions:
REMARK  status: ('A' for Active; 'I' for Inactive)
REMARK    1  A    between atoms: C11_14  and  O2_2 
REMARK    2  A    between atoms: C5_8  and  O2_2 
ROOT
HETATM    1  O1  UNK     1      21.449  -8.606  35.550  1.00  0.00    -0.275 OA
HETATM    2  O3  UNK     1      21.853 -10.511  34.352  1.00  0.00    -0.260 OA
HETATM    3  C1  UNK     1      20.285  -8.766  37.693  1.00  0.00     0.004 A 
HETATM    4  C2  UNK     1      20.907  -8.003  36.703  1.00  0.00     0.092 A 
HETATM    5  C3  UNK     1      20.204 -10.222  37.510  1.00  0.00    -0.043 A 
HETATM    6  C4  UNK     1      19.774  -8.092  38.809  1.00  0.00     0.017 A 
HETATM    7  C5  UNK     1      20.513  -5.964  37.914  1.00  0.00     0.071 A 
HETATM    8  C6  UNK     1      21.028  -6.616  36.798  1.00  0.00     0.075 A 
HETATM    9  C7  UNK     1      19.887  -6.701  38.918  1.00  0.00     0.038 A 
HETATM   10  C8  UNK     1      20.727 -10.768  36.403  1.00  0.00     0.090 A 
HETATM   11  C9  UNK     1      19.541 -11.071  38.555  1.00  0.00     0.049 C 
HETATM   12  C10 UNK     1      21.386  -9.976  35.351  1.00  0.00     0.288 A 
ENDROOT
BRANCH   7  13
HETATM   13  O2  UNK     1      20.621  -4.613  38.026  1.00  0.00    -0.351 OA
BRANCH  13  14
HETATM   14  C11 UNK     1      20.379  -3.842  36.850  1.00  0.00     0.171 C 
HETATM   15  C12 UNK     1      19.501  -2.661  37.207  1.00  0.00     0.034 C 
ENDBRANCH  13  14
ENDBRANCH   7  13
TORSDOF 2
ENDMDL
MODEL 9
REMARK VINA RESULT:      -6.2      3.631      5.659
REMARK  2 active torsions:
REMARK  status: ('A' for Active; 'I' for Inactive)
REMARK    1  A    between atoms: C11_14  and  O2_2 
REMARK    2  A    between atoms: C5_8  and  O2_2 
ROOT
HETATM    1  O1  UNK     1      20.704  -3.219  35.281  1.00  0.00    -0.275 OA
HETATM    2  O3  UNK     1      20.786  -3.912  37.459  1.00  0.00    -0.260 OA
HETATM    3  C1  UNK     1      19.040  -1.556  34.618  1.00  0.00     0.004 A 
HETATM    4  C2  UNK     1      20.101  -2.407  34.300  1.00  0.00     0.092 A 
HETATM    5  C3  UNK     1      18.558  -1.524  36.005  1.00  0.00    -0.043 A 
HETATM    6  C4  UNK     1      18.497  -0.780  33.587  1.00  0.00     0.017 A 
HETATM    7  C5  UNK     1      20.067  -1.719  31.997  1.00  0.00     0.071 A 
HETATM    8  C6  UNK     1      20.621  -2.498  33.008  1.00  0.00     0.075 A 
HETATM    9  C7  UNK     1      19.007  -0.862  32.285  1.00  0.00     0.038 A 
HETATM   10  C8  UNK     1      19.150  -2.308  36.918  1.00  0.00     0.090 A 
HETATM   11  C9  UNK     1      17.419  -0.621  36.380  1.00  0.00     0.049 C 
HETATM   12  C10 UNK     1      20.269  -3.209  36.597  1.00  0.00     0.288 A 
ENDROOT
BRANCH   7  13
HETATM   13  O2  UNK     1      20.559  -1.794  30.731  1.00  0.00    -0.351 OA
BRANCH  13  14
HETATM   14  C11 UNK     1      20.662  -0.574  29.999  1.00  0.00     0.171 C 
HETATM   15  C12 UNK     1      19.986  -0.745  28.656  1.00  0.00     0.034 C 
ENDBRANCH  13  14
ENDBRANCH   7  13
TORSDOF 2
ENDMDL
MODEL 10
REMARK VINA RESULT:      -6.2      2.130      4.659
REMARK  2 active torsions:
REMARK  status: ('A' for Active; 'I' for Inactive)
REMARK    1  A    between atoms: C11_14  and  O2_2 
REMARK    2  A    between atoms: C5_8  and  O2_2 
ROOT
HETATM    1  O1  UNK     1      18.426   1.482  31.536  1.00  0.00    -0.275 OA
HETATM    2  O3  UNK     1      18.223   2.965  29.807  1.00  0.00    -0.260 OA
HETATM    3  C1  UNK     1      19.737  -0.555  31.214  1.00  0.00     0.004 A 
HETATM    4  C2  UNK     1      18.948   0.267  32.021  1.00  0.00     0.092 A 
HETATM    5  C3  UNK     1      20.015  -0.127  29.836  1.00  0.00    -0.043 A 
HETATM    6  C4  UNK     1      20.219  -1.746  31.772  1.00  0.00     0.017 A 
HETATM    7  C5  UNK     1      19.123  -1.252  33.877  1.00  0.00     0.071 A 
HETATM    8  C6  UNK     1      18.636  -0.064  33.341  1.00  0.00     0.075 A 
HETATM    9  C7  UNK     1      19.913  -2.091  33.094  1.00  0.00     0.038 A 
HETATM   10  C8  UNK     1      19.505   1.033  29.401  1.00  0.00     0.090 A 
HETATM   11  C9  UNK     1      20.859  -0.988  28.942  1.00  0.00     0.049 C 
HETATM   12  C10 UNK     1      18.672   1.910  30.240  1.00  0.00     0.288 A 
ENDROOT
BRANCH   7  13
HETATM   13  O2  UNK     1      18.830  -1.592  35.161  1.00  0.00    -0.351 OA
BRANCH  13  14
HETATM   14  C11 UNK     1      18.646  -0.526  36.090  1.00  0.00     0.171 C 
HETATM   15  C12 UNK     1      17.919  -1.054  37.308  1.00  0.00     0.034 C 
ENDBRANCH  13  14
ENDBRANCH   7  13
TORSDOF 2
ENDMDL
