MODEL 1
REMARK VINA RESULT:      -8.1      0.000      0.000
REMARK  3 active torsions:
REMARK  status: ('A' for Active; 'I' for Inactive)
REMARK       I    between atoms: C14_16  and  N1_2 
REMARK    1  A    between atoms: C2_4  and  N1_2 
REMARK    2  A    between atoms: C1_3  and  C7_9 
REMARK    3  A    between atoms: C8_10  and  C9_11 
ROOT
HETATM    1  C1  UNK     1      18.091   6.341  31.663  1.00  0.00    -0.036 A 
HETATM    2  C2  UNK     1      18.810   3.832  30.736  1.00  0.00     0.034 A 
HETATM    3  C3  UNK     1      17.682   5.217  32.362  1.00  0.00     0.013 A 
HETATM    4  C4  UNK     1      18.851   6.237  30.510  1.00  0.00     0.013 A 
HETATM    5  C5  UNK     1      18.045   3.954  31.895  1.00  0.00     0.030 A 
HETATM    6  C6  UNK     1      19.213   4.974  30.042  1.00  0.00     0.030 A 
ENDROOT
BRANCH   1   7
HETATM    7  C7  UNK     1      17.708   7.676  32.155  1.00  0.00     0.012 C 
HETATM    8  C9  UNK     1      18.136   8.234  33.313  1.00  0.00     0.012 C 
BRANCH   8   9
HETATM    9  C8  UNK     1      17.774   9.559  33.790  1.00  0.00    -0.036 A 
HETATM   10  C10 UNK     1      18.739  10.564  33.863  1.00  0.00     0.011 A 
HETATM   11  C12 UNK     1      18.390  11.835  34.319  1.00  0.00     0.001 A 
HETATM   12  C15 UNK     1      17.075  12.102  34.701  1.00  0.00     0.000 A 
HETATM   13  C13 UNK     1      16.110  11.097  34.627  1.00  0.00     0.001 A 
HETATM   14  C11 UNK     1      16.459   9.826  34.172  1.00  0.00     0.011 A 
ENDBRANCH   8   9
ENDBRANCH   1   7
BRANCH   2  15
HETATM   15  N1  UNK     1      19.170   2.568  30.266  1.00  0.00    -0.328 N 
HETATM   16  C14 UNK     1      18.722   1.915  29.111  1.00  0.00     0.218 C 
HETATM   17  O1  UNK     1      17.922   2.333  28.280  1.00  0.00    -0.274 OA
HETATM   18  C16 UNK     1      19.354   0.553  28.957  1.00  0.00     0.117 C 
HETATM   19  H7  UNK     1      19.842   2.067  30.842  1.00  0.00     0.169 HD
ENDBRANCH   2  15
TORSDOF 3
ENDMDL
MODEL 2
REMARK VINA RESULT:      -8.1      0.036      1.139
REMARK  3 active torsions:
REMARK  status: ('A' for Active; 'I' for Inactive)
REMARK       I    between atoms: C14_16  and  N1_2 
REMARK    1  A    between atoms: C2_4  and  N1_2 
REMARK    2  A    between atoms: C1_3  and  C7_9 
REMARK    3  A    between atoms: C8_10  and  C9_11 
ROOT
HETATM    1  C1  UNK     1      18.049   6.323  31.687  1.00  0.00    -0.036 A 
HETATM    2  C2  UNK     1      18.787   3.824  30.746  1.00  0.00     0.034 A 
HETATM    3  C3  UNK     1      17.671   5.194  32.394  1.00  0.00     0.013 A 
HETATM    4  C4  UNK     1      18.788   6.230  30.519  1.00  0.00     0.013 A 
HETATM    5  C5  UNK     1      18.043   3.935  31.920  1.00  0.00     0.030 A 
HETATM    6  C6  UNK     1      19.160   4.972  30.045  1.00  0.00     0.030 A 
ENDROOT
BRANCH   1   7
HETATM    7  C7  UNK     1      17.656   7.653  32.186  1.00  0.00     0.012 C 
HETATM    8  C9  UNK     1      18.134   8.237  33.311  1.00  0.00     0.012 C 
BRANCH   8   9
HETATM    9  C8  UNK     1      17.761   9.557  33.794  1.00  0.00    -0.036 A 
HETATM   10  C10 UNK     1      16.445   9.815  34.180  1.00  0.00     0.011 A 
HETATM   11  C12 UNK     1      16.090  11.080  34.644  1.00  0.00     0.001 A 
HETATM   12  C15 UNK     1      17.049  12.089  34.723  1.00  0.00     0.000 A 
HETATM   13  C13 UNK     1      18.365  11.832  34.337  1.00  0.00     0.001 A 
HETATM   14  C11 UNK     1      18.721  10.566  33.873  1.00  0.00     0.011 A 
ENDBRANCH   8   9
ENDBRANCH   1   7
BRANCH   2  15
HETATM   15  N1  UNK     1      19.156   2.566  30.270  1.00  0.00    -0.328 N 
HETATM   16  C14 UNK     1      18.706   1.911  29.117  1.00  0.00     0.218 C 
HETATM   17  O1  UNK     1      17.894   2.322  28.294  1.00  0.00    -0.274 OA
HETATM   18  C16 UNK     1      19.350   0.556  28.954  1.00  0.00     0.117 C 
HETATM   19  H7  UNK     1      19.839   2.070  30.839  1.00  0.00     0.169 HD
ENDBRANCH   2  15
TORSDOF 3
ENDMDL
MODEL 3
REMARK VINA RESULT:      -7.9      2.864      8.791
REMARK  3 active torsions:
REMARK  status: ('A' for Active; 'I' for Inactive)
REMARK       I    between atoms: C14_16  and  N1_2 
REMARK    1  A    between atoms: C2_4  and  N1_2 
REMARK    2  A    between atoms: C1_3  and  C7_9 
REMARK    3  A    between atoms: C8_10  and  C9_11 
ROOT
HETATM    1  C1  UNK     1      18.633   4.323  31.015  1.00  0.00    -0.036 A 
HETATM    2  C2  UNK     1      17.795   6.735  32.088  1.00  0.00     0.034 A 
HETATM    3  C3  UNK     1      18.866   5.494  30.314  1.00  0.00     0.013 A 
HETATM    4  C4  UNK     1      17.989   4.332  32.242  1.00  0.00     0.013 A 
HETATM    5  C5  UNK     1      18.444   6.709  30.854  1.00  0.00     0.030 A 
HETATM    6  C6  UNK     1      17.567   5.546  32.782  1.00  0.00     0.030 A 
ENDROOT
BRANCH   1   7
HETATM    7  C7  UNK     1      19.078   3.039  30.445  1.00  0.00     0.012 C 
HETATM    8  C9  UNK     1      19.036   1.844  31.083  1.00  0.00     0.012 C 
BRANCH   8   9
HETATM    9  C8  UNK     1      19.457   0.575  30.514  1.00  0.00    -0.036 A 
HETATM   10  C10 UNK     1      19.716  -0.514  31.348  1.00  0.00     0.011 A 
HETATM   11  C12 UNK     1      20.118  -1.732  30.801  1.00  0.00     0.001 A 
HETATM   12  C15 UNK     1      20.261  -1.863  29.420  1.00  0.00     0.000 A 
HETATM   13  C13 UNK     1      20.002  -0.775  28.586  1.00  0.00     0.001 A 
HETATM   14  C11 UNK     1      19.600   0.444  29.133  1.00  0.00     0.011 A 
ENDBRANCH   8   9
ENDBRANCH   1   7
BRANCH   2  15
HETATM   15  N1  UNK     1      17.369   7.950  32.627  1.00  0.00    -0.328 N 
HETATM   16  C14 UNK     1      18.016   8.746  33.581  1.00  0.00     0.218 C 
HETATM   17  O1  UNK     1      19.092   8.529  34.129  1.00  0.00    -0.274 OA
HETATM   18  C16 UNK     1      17.225   9.989  33.902  1.00  0.00     0.117 C 
HETATM   19  H7  UNK     1      16.477   8.291  32.277  1.00  0.00     0.169 HD
ENDBRANCH   2  15
TORSDOF 3
ENDMDL
MODEL 4
REMARK VINA RESULT:      -7.9      2.899      8.566
REMARK  3 active torsions:
REMARK  status: ('A' for Active; 'I' for Inactive)
REMARK       I    between atoms: C14_16  and  N1_2 
REMARK    1  A    between atoms: C2_4  and  N1_2 
REMARK    2  A    between atoms: C1_3  and  C7_9 
REMARK    3  A    between atoms: C8_10  and  C9_11 
ROOT
HETATM    1  C1  UNK     1      18.472   4.937  31.247  1.00  0.00    -0.036 A 
HETATM    2  C2  UNK     1      17.407   7.211  32.415  1.00  0.00     0.034 A 
HETATM    3  C3  UNK     1      17.959   4.863  32.531  1.00  0.00     0.013 A 
HETATM    4  C4  UNK     1      18.463   6.125  30.534  1.00  0.00     0.013 A 
HETATM    5  C5  UNK     1      17.423   6.008  33.120  1.00  0.00     0.030 A 
HETATM    6  C6  UNK     1      17.928   7.270  31.122  1.00  0.00     0.030 A 
ENDROOT
BRANCH   1   7
HETATM    7  C7  UNK     1      19.039   3.727  30.624  1.00  0.00     0.012 C 
HETATM    8  C9  UNK     1      18.508   2.484  30.707  1.00  0.00     0.012 C 
BRANCH   8   9
HETATM    9  C8  UNK     1      19.056   1.294  30.077  1.00  0.00    -0.036 A 
HETATM   10  C10 UNK     1      18.657   0.938  28.788  1.00  0.00     0.011 A 
HETATM   11  C12 UNK     1      19.185  -0.203  28.185  1.00  0.00     0.001 A 
HETATM   12  C15 UNK     1      20.114  -0.987  28.869  1.00  0.00     0.000 A 
HETATM   13  C13 UNK     1      20.513  -0.631  30.157  1.00  0.00     0.001 A 
HETATM   14  C11 UNK     1      19.985   0.509  30.761  1.00  0.00     0.011 A 
ENDBRANCH   8   9
ENDBRANCH   1   7
BRANCH   2  15
HETATM   15  N1  UNK     1      16.874   8.358  33.005  1.00  0.00    -0.328 N 
HETATM   16  C14 UNK     1      17.539   9.329  33.765  1.00  0.00     0.218 C 
HETATM   17  O1  UNK     1      18.730   9.361  34.058  1.00  0.00    -0.274 OA
HETATM   18  C16 UNK     1      16.602  10.418  34.225  1.00  0.00     0.117 C 
HETATM   19  H7  UNK     1      15.876   8.497  32.860  1.00  0.00     0.169 HD
ENDBRANCH   2  15
TORSDOF 3
ENDMDL
MODEL 5
REMARK VINA RESULT:      -7.5      2.088      3.347
REMARK  3 active torsions:
REMARK  status: ('A' for Active; 'I' for Inactive)
REMARK       I    between atoms: C14_16  and  N1_2 
REMARK    1  A    between atoms: C2_4  and  N1_2 
REMARK    2  A    between atoms: C1_3  and  C7_9 
REMARK    3  A    between atoms: C8_10  and  C9_11 
ROOT
HETATM    1  C1  UNK     1      18.325   3.669  31.624  1.00  0.00    -0.036 A 
HETATM    2  C2  UNK     1      18.969   1.116  30.765  1.00  0.00     0.034 A 
HETATM    3  C3  UNK     1      18.639   3.461  30.292  1.00  0.00     0.013 A 
HETATM    4  C4  UNK     1      18.327   2.627  32.537  1.00  0.00     0.013 A 
HETATM    5  C5  UNK     1      18.963   2.175  29.859  1.00  0.00     0.030 A 
HETATM    6  C6  UNK     1      18.651   1.341  32.105  1.00  0.00     0.030 A 
ENDROOT
BRANCH   1   7
HETATM    7  C7  UNK     1      17.983   5.027  32.083  1.00  0.00     0.012 C 
HETATM    8  C9  UNK     1      18.830   5.874  32.715  1.00  0.00     0.012 C 
BRANCH   8   9
HETATM    9  C8  UNK     1      18.499   7.221  33.151  1.00  0.00    -0.036 A 
HETATM   10  C10 UNK     1      17.240   7.756  32.874  1.00  0.00     0.011 A 
HETATM   11  C12 UNK     1      16.923   9.047  33.294  1.00  0.00     0.001 A 
HETATM   12  C15 UNK     1      17.864   9.805  33.991  1.00  0.00     0.000 A 
HETATM   13  C13 UNK     1      19.123   9.271  34.267  1.00  0.00     0.001 A 
HETATM   14  C11 UNK     1      19.440   7.979  33.847  1.00  0.00     0.011 A 
ENDBRANCH   8   9
ENDBRANCH   1   7
BRANCH   2  15
HETATM   15  N1  UNK     1      19.296  -0.170  30.333  1.00  0.00    -0.328 N 
HETATM   16  C14 UNK     1      20.391  -0.957  30.712  1.00  0.00     0.218 C 
HETATM   17  O1  UNK     1      21.280  -0.666  31.506  1.00  0.00    -0.274 OA
HETATM   18  C16 UNK     1      20.388  -2.295  30.014  1.00  0.00     0.117 C 
HETATM   19  H7  UNK     1      18.653  -0.578  29.658  1.00  0.00     0.169 HD
ENDBRANCH   2  15
TORSDOF 3
ENDMDL
MODEL 6
REMARK VINA RESULT:      -7.2      9.603     12.023
REMARK  3 active torsions:
REMARK  status: ('A' for Active; 'I' for Inactive)
REMARK       I    between atoms: C14_16  and  N1_2 
REMARK    1  A    between atoms: C2_4  and  N1_2 
REMARK    2  A    between atoms: C1_3  and  C7_9 
REMARK    3  A    between atoms: C8_10  and  C9_11 
ROOT
HETATM    1  C1  UNK     1      20.254  -4.451  37.012  1.00  0.00    -0.036 A 
HETATM    2  C2  UNK     1      20.923  -7.118  36.677  1.00  0.00     0.034 A 
HETATM    3  C3  UNK     1      21.226  -5.013  37.823  1.00  0.00     0.013 A 
HETATM    4  C4  UNK     1      19.609  -5.194  36.037  1.00  0.00     0.013 A 
HETATM    5  C5  UNK     1      21.563  -6.356  37.654  1.00  0.00     0.030 A 
HETATM    6  C6  UNK     1      19.945  -6.537  35.868  1.00  0.00     0.030 A 
ENDROOT
BRANCH   1   7
HETATM    7  C7  UNK     1      19.897  -3.032  37.190  1.00  0.00     0.012 C 
HETATM    8  C9  UNK     1      18.961  -2.366  36.472  1.00  0.00     0.012 C 
BRANCH   8   9
HETATM    9  C8  UNK     1      18.595  -0.972  36.661  1.00  0.00    -0.036 A 
HETATM   10  C10 UNK     1      17.902  -0.579  37.806  1.00  0.00     0.011 A 
HETATM   11  C12 UNK     1      17.553   0.759  37.987  1.00  0.00     0.001 A 
HETATM   12  C15 UNK     1      17.897   1.705  37.022  1.00  0.00     0.000 A 
HETATM   13  C13 UNK     1      18.590   1.313  35.876  1.00  0.00     0.001 A 
HETATM   14  C11 UNK     1      18.939  -0.025  35.696  1.00  0.00     0.011 A 
ENDBRANCH   8   9
ENDBRANCH   1   7
BRANCH   2  15
HETATM   15  N1  UNK     1      21.257  -8.462  36.510  1.00  0.00    -0.328 N 
HETATM   16  C14 UNK     1      21.481  -9.155  35.313  1.00  0.00     0.218 C 
HETATM   17  O1  UNK     1      21.429  -8.709  34.171  1.00  0.00    -0.274 OA
HETATM   18  C16 UNK     1      21.821 -10.604  35.560  1.00  0.00     0.117 C 
HETATM   19  H7  UNK     1      21.348  -8.997  37.370  1.00  0.00     0.169 HD
ENDBRANCH   2  15
TORSDOF 3
ENDMDL
MODEL 7
REMARK VINA RESULT:      -7.2      9.651     12.024
REMARK  3 active torsions:
REMARK  status: ('A' for Active; 'I' for Inactive)
REMARK       I    between atoms: C14_16  and  N1_2 
REMARK    1  A    between atoms: C2_4  and  N1_2 
REMARK    2  A    between atoms: C1_3  and  C7_9 
REMARK    3  A    between atoms: C8_10  and  C9_11 
ROOT
HETATM    1  C1  UNK     1      20.125  -4.469  37.079  1.00  0.00    -0.036 A 
HETATM    2  C2  UNK     1      20.724  -7.157  36.786  1.00  0.00     0.034 A 
HETATM    3  C3  UNK     1      19.316  -5.260  36.281  1.00  0.00     0.013 A 
HETATM    4  C4  UNK     1      21.228  -4.993  37.734  1.00  0.00     0.013 A 
HETATM    5  C5  UNK     1      19.618  -6.615  36.134  1.00  0.00     0.030 A 
HETATM    6  C6  UNK     1      21.530  -6.347  37.586  1.00  0.00     0.030 A 
ENDROOT
BRANCH   1   7
HETATM    7  C7  UNK     1      19.808  -3.038  37.236  1.00  0.00     0.012 C 
HETATM    8  C9  UNK     1      18.879  -2.361  36.518  1.00  0.00     0.012 C 
BRANCH   8   9
HETATM    9  C8  UNK     1      18.552  -0.955  36.685  1.00  0.00    -0.036 A 
HETATM   10  C10 UNK     1      18.964  -0.023  35.732  1.00  0.00     0.011 A 
HETATM   11  C12 UNK     1      18.648   1.326  35.892  1.00  0.00     0.001 A 
HETATM   12  C15 UNK     1      17.919   1.744  37.006  1.00  0.00     0.000 A 
HETATM   13  C13 UNK     1      17.507   0.812  37.959  1.00  0.00     0.001 A 
HETATM   14  C11 UNK     1      17.823  -0.537  37.799  1.00  0.00     0.011 A 
ENDBRANCH   8   9
ENDBRANCH   1   7
BRANCH   2  15
HETATM   15  N1  UNK     1      21.028  -8.511  36.636  1.00  0.00    -0.328 N 
HETATM   16  C14 UNK     1      21.354  -9.199  35.461  1.00  0.00     0.218 C 
HETATM   17  O1  UNK     1      21.439  -8.739  34.326  1.00  0.00    -0.274 OA
HETATM   18  C16 UNK     1      21.615 -10.662  35.722  1.00  0.00     0.117 C 
HETATM   19  H7  UNK     1      21.007  -9.058  37.494  1.00  0.00     0.169 HD
ENDBRANCH   2  15
TORSDOF 3
ENDMDL
MODEL 8
REMARK VINA RESULT:      -7.2      3.300      8.324
REMARK  3 active torsions:
REMARK  status: ('A' for Active; 'I' for Inactive)
REMARK       I    between atoms: C14_16  and  N1_2 
REMARK    1  A    between atoms: C2_4  and  N1_2 
REMARK    2  A    between atoms: C1_3  and  C7_9 
REMARK    3  A    between atoms: C8_10  and  C9_11 
ROOT
HETATM    1  C1  UNK     1      18.247   6.002  32.267  1.00  0.00    -0.036 A 
HETATM    2  C2  UNK     1      17.297   8.317  33.454  1.00  0.00     0.034 A 
HETATM    3  C3  UNK     1      18.636   6.310  33.560  1.00  0.00     0.013 A 
HETATM    4  C4  UNK     1      17.392   6.827  31.554  1.00  0.00     0.013 A 
HETATM    5  C5  UNK     1      18.157   7.475  34.158  1.00  0.00     0.030 A 
HETATM    6  C6  UNK     1      16.914   7.993  32.152  1.00  0.00     0.030 A 
ENDROOT
BRANCH   1   7
HETATM    7  C7  UNK     1      18.753   4.770  31.634  1.00  0.00     0.012 C 
HETATM    8  C9  UNK     1      17.993   3.706  31.280  1.00  0.00     0.012 C 
BRANCH   8   9
HETATM    9  C8  UNK     1      18.488   2.499  30.638  1.00  0.00    -0.036 A 
HETATM   10  C10 UNK     1      19.199   1.554  31.379  1.00  0.00     0.011 A 
HETATM   11  C12 UNK     1      19.672   0.396  30.763  1.00  0.00     0.001 A 
HETATM   12  C15 UNK     1      19.434   0.182  29.405  1.00  0.00     0.000 A 
HETATM   13  C13 UNK     1      18.724   1.127  28.664  1.00  0.00     0.001 A 
HETATM   14  C11 UNK     1      18.251   2.285  29.281  1.00  0.00     0.011 A 
ENDBRANCH   8   9
ENDBRANCH   1   7
BRANCH   2  15
HETATM   15  N1  UNK     1      16.820   9.485  34.051  1.00  0.00    -0.328 N 
HETATM   16  C14 UNK     1      17.418  10.752  34.071  1.00  0.00     0.218 C 
HETATM   17  O1  UNK     1      18.483  11.082  33.560  1.00  0.00    -0.274 OA
HETATM   18  C16 UNK     1      16.580  11.754  34.825  1.00  0.00     0.117 C 
HETATM   19  H7  UNK     1      15.926   9.395  34.529  1.00  0.00     0.169 HD
ENDBRANCH   2  15
TORSDOF 3
ENDMDL
MODEL 9
REMARK VINA RESULT:      -7.1      5.044      6.698
REMARK  3 active torsions:
REMARK  status: ('A' for Active; 'I' for Inactive)
REMARK       I    between atoms: C14_16  and  N1_2 
REMARK    1  A    between atoms: C2_4  and  N1_2 
REMARK    2  A    between atoms: C1_3  and  C7_9 
REMARK    3  A    between atoms: C8_10  and  C9_11 
ROOT
HETATM    1  C1  UNK     1      18.333   1.520  34.404  1.00  0.00    -0.036 A 
HETATM    2  C2  UNK     1      18.596  -1.051  35.402  1.00  0.00     0.034 A 
HETATM    3  C3  UNK     1      18.408   1.329  35.773  1.00  0.00     0.013 A 
HETATM    4  C4  UNK     1      18.387   0.452  33.522  1.00  0.00     0.013 A 
HETATM    5  C5  UNK     1      18.541   0.034  36.276  1.00  0.00     0.030 A 
HETATM    6  C6  UNK     1      18.519  -0.842  34.025  1.00  0.00     0.030 A 
ENDROOT
BRANCH   1   7
HETATM    7  C7  UNK     1      18.193   2.887  33.872  1.00  0.00     0.012 C 
HETATM    8  C9  UNK     1      18.326   3.236  32.570  1.00  0.00     0.012 C 
BRANCH   8   9
HETATM    9  C8  UNK     1      18.169   4.581  32.041  1.00  0.00    -0.036 A 
HETATM   10  C10 UNK     1      17.388   5.514  32.725  1.00  0.00     0.011 A 
HETATM   11  C12 UNK     1      17.240   6.804  32.218  1.00  0.00     0.001 A 
HETATM   12  C15 UNK     1      17.872   7.164  31.028  1.00  0.00     0.000 A 
HETATM   13  C13 UNK     1      18.652   6.231  30.344  1.00  0.00     0.001 A 
HETATM   14  C11 UNK     1      18.801   4.940  30.851  1.00  0.00     0.011 A 
ENDBRANCH   8   9
ENDBRANCH   1   7
BRANCH   2  15
HETATM   15  N1  UNK     1      18.725  -2.346  35.905  1.00  0.00    -0.328 N 
HETATM   16  C14 UNK     1      19.900  -3.081  36.108  1.00  0.00     0.218 C 
HETATM   17  O1  UNK     1      21.052  -2.724  35.883  1.00  0.00    -0.274 OA
HETATM   18  C16 UNK     1      19.613  -4.451  36.671  1.00  0.00     0.117 C 
HETATM   19  H7  UNK     1      17.851  -2.805  36.152  1.00  0.00     0.169 HD
ENDBRANCH   2  15
TORSDOF 3
ENDMDL
MODEL 10
REMARK VINA RESULT:      -7.1      3.327      8.365
REMARK  3 active torsions:
REMARK  status: ('A' for Active; 'I' for Inactive)
REMARK       I    between atoms: C14_16  and  N1_2 
REMARK    1  A    between atoms: C2_4  and  N1_2 
REMARK    2  A    between atoms: C1_3  and  C7_9 
REMARK    3  A    between atoms: C8_10  and  C9_11 
ROOT
HETATM    1  C1  UNK     1      18.089   5.690  32.359  1.00  0.00    -0.036 A 
HETATM    2  C2  UNK     1      17.105   7.991  33.545  1.00  0.00     0.034 A 
HETATM    3  C3  UNK     1      17.549   6.686  31.562  1.00  0.00     0.013 A 
HETATM    4  C4  UNK     1      18.147   5.820  33.737  1.00  0.00     0.013 A 
HETATM    5  C5  UNK     1      17.054   7.845  32.160  1.00  0.00     0.030 A 
HETATM    6  C6  UNK     1      17.651   6.979  34.335  1.00  0.00     0.030 A 
ENDROOT
BRANCH   1   7
HETATM    7  C7  UNK     1      18.613   4.465  31.729  1.00  0.00     0.012 C 
HETATM    8  C9  UNK     1      17.894   3.616  30.956  1.00  0.00     0.012 C 
BRANCH   8   9
HETATM    9  C8  UNK     1      18.415   2.418  30.318  1.00  0.00    -0.036 A 
HETATM   10  C10 UNK     1      18.034   2.097  29.015  1.00  0.00     0.011 A 
HETATM   11  C12 UNK     1      18.536   0.948  28.404  1.00  0.00     0.001 A 
HETATM   12  C15 UNK     1      19.419   0.120  29.095  1.00  0.00     0.000 A 
HETATM   13  C13 UNK     1      19.800   0.440  30.399  1.00  0.00     0.001 A 
HETATM   14  C11 UNK     1      19.298   1.589  31.010  1.00  0.00     0.011 A 
ENDBRANCH   8   9
ENDBRANCH   1   7
BRANCH   2  15
HETATM   15  N1  UNK     1      16.606   9.149  34.144  1.00  0.00    -0.328 N 
HETATM   16  C14 UNK     1      15.274   9.462  34.445  1.00  0.00     0.218 C 
HETATM   17  O1  UNK     1      14.281   8.771  34.243  1.00  0.00    -0.274 OA
HETATM   18  C16 UNK     1      15.150  10.819  35.092  1.00  0.00     0.117 C 
HETATM   19  H7  UNK     1      17.305   9.848  34.387  1.00  0.00     0.169 HD
ENDBRANCH   2  15
TORSDOF 3
ENDMDL
