MODEL 1
REMARK VINA RESULT:      -9.9      0.000      0.000
REMARK  4 active torsions:
REMARK  status: ('A' for Active; 'I' for Inactive)
REMARK    1  A    between atoms: C14_19  and  O1_1 
REMARK    2  A    between atoms: C4_9  and  O1_1 
REMARK    3  A    between atoms: C2_7  and  C6_11 
REMARK    4  A    between atoms: C13_18  and  C14_19 
ROOT
HETATM    1  O2  UNK     1      18.374   1.855  32.321  1.00  0.00    -0.286 OA
HETATM    2  C1  UNK     1      19.607  -1.363  31.975  1.00  0.00     0.013 A 
HETATM    3  C2  UNK     1      18.508  -0.187  33.633  1.00  0.00     0.060 A 
HETATM    4  C3  UNK     1      19.412  -0.098  31.438  1.00  0.00     0.028 A 
HETATM    5  C4  UNK     1      19.049  -1.380  33.314  1.00  0.00     0.105 A 
HETATM    6  C5  UNK     1      18.718   0.697  32.446  1.00  0.00     0.197 A 
HETATM    7  C7  UNK     1      20.248  -2.340  31.232  1.00  0.00     0.015 A 
HETATM    8  C8  UNK     1      19.830   0.258  30.171  1.00  0.00     0.016 A 
HETATM    9  C9  UNK     1      20.685  -2.011  29.944  1.00  0.00     0.001 A 
HETATM   10  C10 UNK     1      20.477  -0.722  29.417  1.00  0.00     0.001 A 
ENDROOT
BRANCH   5  11
HETATM   11  O1  UNK     1      19.148  -2.513  34.063  1.00  0.00    -0.273 OA
BRANCH  11  12
HETATM   12  C14 UNK     1      20.285  -2.580  34.812  1.00  0.00     0.304 C 
HETATM   13  O4  UNK     1      21.268  -1.853  34.781  1.00  0.00    -0.259 OA
BRANCH  12  14
HETATM   14  C13 UNK     1      20.168  -3.729  35.718  1.00  0.00     0.116 A 
HETATM   15  C16 UNK     1      20.129  -4.935  35.141  1.00  0.00     0.038 A 
HETATM   16  C15 UNK     1      20.013  -6.135  35.956  1.00  0.00    -0.001 A 
HETATM   17  C17 UNK     1      19.945  -6.004  37.339  1.00  0.00     0.089 A 
HETATM   18  C22 UNK     1      19.968  -7.414  35.397  1.00  0.00     0.014 A 
HETATM   19  O3  UNK     1      19.987  -4.731  37.941  1.00  0.00    -0.274 OA
HETATM   20  C23 UNK     1      19.833  -7.113  38.176  1.00  0.00     0.038 A 
HETATM   21  C20 UNK     1      20.097  -3.566  37.187  1.00  0.00     0.304 A 
HETATM   22  O5  UNK     1      20.133  -2.462  37.719  1.00  0.00    -0.259 OA
HETATM   23  C25 UNK     1      19.788  -8.385  37.610  1.00  0.00     0.003 A 
HETATM   24  C24 UNK     1      19.857  -8.536  36.224  1.00  0.00     0.001 A 
ENDBRANCH  12  14
ENDBRANCH  11  12
ENDBRANCH   5  11
BRANCH   3  25
HETATM   25  C6  UNK     1      17.857   0.224  34.875  1.00  0.00    -0.019 A 
HETATM   26  C11 UNK     1      16.468   0.116  35.017  1.00  0.00     0.012 A 
HETATM   27  C18 UNK     1      15.847   0.508  36.203  1.00  0.00     0.001 A 
HETATM   28  C21 UNK     1      16.611   1.010  37.257  1.00  0.00     0.000 A 
HETATM   29  C19 UNK     1      17.995   1.120  37.125  1.00  0.00     0.001 A 
HETATM   30  C12 UNK     1      18.616   0.729  35.940  1.00  0.00     0.012 A 
ENDBRANCH   3  25
TORSDOF 4
ENDMDL
MODEL 2
REMARK VINA RESULT:      -9.6     11.119     13.244
REMARK  4 active torsions:
REMARK  status: ('A' for Active; 'I' for Inactive)
REMARK    1  A    between atoms: C14_19  and  O1_1 
REMARK    2  A    between atoms: C4_9  and  O1_1 
REMARK    3  A    between atoms: C2_7  and  C6_11 
REMARK    4  A    between atoms: C13_18  and  C14_19 
ROOT
HETATM    1  O2  UNK     1      32.764  -4.772  34.550  1.00  0.00    -0.286 OA
HETATM    2  C1  UNK     1      29.954  -5.839  36.268  1.00  0.00     0.013 A 
HETATM    3  C2  UNK     1      30.661  -5.890  34.069  1.00  0.00     0.060 A 
HETATM    4  C3  UNK     1      31.197  -5.221  36.285  1.00  0.00     0.028 A 
HETATM    5  C4  UNK     1      29.657  -6.229  34.903  1.00  0.00     0.105 A 
HETATM    6  C5  UNK     1      31.698  -5.223  34.914  1.00  0.00     0.197 A 
HETATM    7  C7  UNK     1      29.236  -5.982  37.443  1.00  0.00     0.015 A 
HETATM    8  C8  UNK     1      31.779  -4.726  37.435  1.00  0.00     0.016 A 
HETATM    9  C9  UNK     1      29.798  -5.490  38.626  1.00  0.00     0.001 A 
HETATM   10  C10 UNK     1      31.060  -4.867  38.622  1.00  0.00     0.001 A 
ENDROOT
BRANCH   5  11
HETATM   11  O1  UNK     1      28.466  -6.829  34.625  1.00  0.00    -0.273 OA
BRANCH  11  12
HETATM   12  C14 UNK     1      28.468  -8.177  34.832  1.00  0.00     0.304 C 
HETATM   13  O4  UNK     1      28.172  -8.798  35.842  1.00  0.00    -0.259 OA
BRANCH  12  14
HETATM   14  C13 UNK     1      28.914  -8.828  33.594  1.00  0.00     0.116 A 
HETATM   15  C16 UNK     1      28.228  -8.525  32.486  1.00  0.00     0.038 A 
HETATM   16  C15 UNK     1      28.596  -9.120  31.210  1.00  0.00    -0.001 A 
HETATM   17  C17 UNK     1      29.667 -10.005  31.165  1.00  0.00     0.089 A 
HETATM   18  C22 UNK     1      27.907  -8.833  30.029  1.00  0.00     0.014 A 
HETATM   19  O3  UNK     1      30.386 -10.320  32.335  1.00  0.00    -0.274 OA
HETATM   20  C23 UNK     1      30.070 -10.610  29.975  1.00  0.00     0.038 A 
HETATM   21  C20 UNK     1      30.058  -9.767  33.569  1.00  0.00     0.304 A 
HETATM   22  O5  UNK     1      30.689 -10.047  34.583  1.00  0.00    -0.259 OA
HETATM   23  C25 UNK     1      29.378 -10.319  28.802  1.00  0.00     0.003 A 
HETATM   24  C24 UNK     1      28.300  -9.431  28.828  1.00  0.00     0.001 A 
ENDBRANCH  12  14
ENDBRANCH  11  12
ENDBRANCH   5  11
BRANCH   3  25
HETATM   25  C6  UNK     1      30.761  -6.088  32.625  1.00  0.00    -0.019 A 
HETATM   26  C11 UNK     1      31.713  -6.969  32.094  1.00  0.00     0.012 A 
HETATM   27  C18 UNK     1      31.808  -7.158  30.715  1.00  0.00     0.001 A 
HETATM   28  C21 UNK     1      30.952  -6.468  29.856  1.00  0.00     0.000 A 
HETATM   29  C19 UNK     1      30.002  -5.591  30.375  1.00  0.00     0.001 A 
HETATM   30  C12 UNK     1      29.906  -5.400  31.753  1.00  0.00     0.012 A 
ENDBRANCH   3  25
TORSDOF 4
ENDMDL
MODEL 3
REMARK VINA RESULT:      -9.5      0.769      4.225
REMARK  4 active torsions:
REMARK  status: ('A' for Active; 'I' for Inactive)
REMARK    1  A    between atoms: C14_19  and  O1_1 
REMARK    2  A    between atoms: C4_9  and  O1_1 
REMARK    3  A    between atoms: C2_7  and  C6_11 
REMARK    4  A    between atoms: C13_18  and  C14_19 
ROOT
HETATM    1  O2  UNK     1      17.996   1.937  33.018  1.00  0.00    -0.286 OA
HETATM    2  C1  UNK     1      18.218  -0.583  35.383  1.00  0.00     0.013 A 
HETATM    3  C2  UNK     1      18.856  -0.331  33.177  1.00  0.00     0.060 A 
HETATM    4  C3  UNK     1      17.810   0.700  35.044  1.00  0.00     0.028 A 
HETATM    5  C4  UNK     1      18.846  -1.183  34.222  1.00  0.00     0.105 A 
HETATM    6  C5  UNK     1      18.187   0.919  33.652  1.00  0.00     0.197 A 
HETATM    7  C7  UNK     1      17.989  -1.067  36.660  1.00  0.00     0.015 A 
HETATM    8  C8  UNK     1      17.170   1.548  35.927  1.00  0.00     0.016 A 
HETATM    9  C9  UNK     1      17.342  -0.233  37.578  1.00  0.00     0.001 A 
HETATM   10  C10 UNK     1      16.936   1.065  37.214  1.00  0.00     0.001 A 
ENDROOT
BRANCH   5  11
HETATM   11  O1  UNK     1      19.303  -2.463  34.298  1.00  0.00    -0.273 OA
BRANCH  11  12
HETATM   12  C14 UNK     1      20.409  -2.608  35.084  1.00  0.00     0.304 C 
HETATM   13  O4  UNK     1      21.419  -1.921  35.119  1.00  0.00    -0.259 OA
BRANCH  12  14
HETATM   14  C13 UNK     1      20.213  -3.788  35.933  1.00  0.00     0.116 A 
HETATM   15  C16 UNK     1      19.897  -4.925  35.303  1.00  0.00     0.038 A 
HETATM   16  C15 UNK     1      19.683  -6.149  36.060  1.00  0.00    -0.001 A 
HETATM   17  C17 UNK     1      19.814  -6.115  37.444  1.00  0.00     0.089 A 
HETATM   18  C22 UNK     1      19.351  -7.358  35.444  1.00  0.00     0.014 A 
HETATM   19  O3  UNK     1      20.147  -4.915  38.103  1.00  0.00    -0.274 OA
HETATM   20  C23 UNK     1      19.621  -7.251  38.228  1.00  0.00     0.038 A 
HETATM   21  C20 UNK     1      20.357  -3.729  37.405  1.00  0.00     0.304 A 
HETATM   22  O5  UNK     1      20.647  -2.689  37.986  1.00  0.00    -0.259 OA
HETATM   23  C25 UNK     1      19.290  -8.453  37.606  1.00  0.00     0.003 A 
HETATM   24  C24 UNK     1      19.156  -8.507  36.216  1.00  0.00     0.001 A 
ENDBRANCH  12  14
ENDBRANCH  11  12
ENDBRANCH   5  11
BRANCH   3  25
HETATM   25  C6  UNK     1      19.378  -0.538  31.828  1.00  0.00    -0.019 A 
HETATM   26  C11 UNK     1      19.832  -1.802  31.430  1.00  0.00     0.012 A 
HETATM   27  C18 UNK     1      20.330  -1.999  30.141  1.00  0.00     0.001 A 
HETATM   28  C21 UNK     1      20.378  -0.934  29.242  1.00  0.00     0.000 A 
HETATM   29  C19 UNK     1      19.927   0.327  29.630  1.00  0.00     0.001 A 
HETATM   30  C12 UNK     1      19.430   0.526  30.917  1.00  0.00     0.012 A 
ENDBRANCH   3  25
TORSDOF 4
ENDMDL
MODEL 4
REMARK VINA RESULT:      -9.5      4.339      8.748
REMARK  4 active torsions:
REMARK  status: ('A' for Active; 'I' for Inactive)
REMARK    1  A    between atoms: C14_19  and  O1_1 
REMARK    2  A    between atoms: C4_9  and  O1_1 
REMARK    3  A    between atoms: C2_7  and  C6_11 
REMARK    4  A    between atoms: C13_18  and  C14_19 
ROOT
HETATM    1  O2  UNK     1      19.503  -1.306  33.430  1.00  0.00    -0.286 OA
HETATM    2  C1  UNK     1      18.856   1.001  30.930  1.00  0.00     0.013 A 
HETATM    3  C2  UNK     1      18.397   0.844  33.188  1.00  0.00     0.060 A 
HETATM    4  C3  UNK     1      19.412  -0.211  31.318  1.00  0.00     0.028 A 
HETATM    5  C4  UNK     1      18.242   1.613  32.092  1.00  0.00     0.105 A 
HETATM    6  C5  UNK     1      19.153  -0.367  32.745  1.00  0.00     0.197 A 
HETATM    7  C7  UNK     1      18.951   1.416  29.612  1.00  0.00     0.015 A 
HETATM    8  C8  UNK     1      20.076  -1.052  30.446  1.00  0.00     0.016 A 
HETATM    9  C9  UNK     1      19.616   0.585  28.703  1.00  0.00     0.001 A 
HETATM   10  C10 UNK     1      20.174  -0.639  29.117  1.00  0.00     0.001 A 
ENDROOT
BRANCH   5  11
HETATM   11  O1  UNK     1      17.595   2.804  31.955  1.00  0.00    -0.273 OA
BRANCH  11  12
HETATM   12  C14 UNK     1      18.431   3.867  31.781  1.00  0.00     0.304 C 
HETATM   13  O4  UNK     1      19.463   3.932  31.129  1.00  0.00    -0.259 OA
BRANCH  12  14
HETATM   14  C13 UNK     1      17.893   5.000  32.544  1.00  0.00     0.116 A 
HETATM   15  C16 UNK     1      16.794   5.579  32.047  1.00  0.00     0.038 A 
HETATM   16  C15 UNK     1      16.186   6.709  32.733  1.00  0.00    -0.001 A 
HETATM   17  C17 UNK     1      16.767   7.174  33.908  1.00  0.00     0.089 A 
HETATM   18  C22 UNK     1      15.040   7.344  32.250  1.00  0.00     0.014 A 
HETATM   19  O3  UNK     1      17.925   6.560  34.426  1.00  0.00    -0.274 OA
HETATM   20  C23 UNK     1      16.236   8.252  34.612  1.00  0.00     0.038 A 
HETATM   21  C20 UNK     1      18.528   5.478  33.792  1.00  0.00     0.304 A 
HETATM   22  O5  UNK     1      19.535   4.949  34.250  1.00  0.00    -0.259 OA
HETATM   23  C25 UNK     1      15.092   8.880  34.125  1.00  0.00     0.003 A 
HETATM   24  C24 UNK     1      14.494   8.427  32.947  1.00  0.00     0.001 A 
ENDBRANCH  12  14
ENDBRANCH  11  12
ENDBRANCH   5  11
BRANCH   3  25
HETATM   25  C6  UNK     1      17.927   1.083  34.551  1.00  0.00    -0.019 A 
HETATM   26  C11 UNK     1      16.698   0.564  34.978  1.00  0.00     0.012 A 
HETATM   27  C18 UNK     1      16.249   0.792  36.280  1.00  0.00     0.001 A 
HETATM   28  C21 UNK     1      17.027   1.539  37.164  1.00  0.00     0.000 A 
HETATM   29  C19 UNK     1      18.252   2.058  36.748  1.00  0.00     0.001 A 
HETATM   30  C12 UNK     1      18.701   1.832  35.448  1.00  0.00     0.012 A 
ENDBRANCH   3  25
TORSDOF 4
ENDMDL
MODEL 5
REMARK VINA RESULT:      -9.4     16.795     20.029
REMARK  4 active torsions:
REMARK  status: ('A' for Active; 'I' for Inactive)
REMARK    1  A    between atoms: C14_19  and  O1_1 
REMARK    2  A    between atoms: C4_9  and  O1_1 
REMARK    3  A    between atoms: C2_7  and  C6_11 
REMARK    4  A    between atoms: C13_18  and  C14_19 
ROOT
HETATM    1  O2  UNK     1      22.191  -6.965  15.594  1.00  0.00    -0.286 OA
HETATM    2  C1  UNK     1      19.820  -5.175  13.814  1.00  0.00     0.013 A 
HETATM    3  C2  UNK     1      21.402  -4.672  15.420  1.00  0.00     0.060 A 
HETATM    4  C3  UNK     1      20.432  -6.389  14.095  1.00  0.00     0.028 A 
HETATM    5  C4  UNK     1      20.431  -4.154  14.642  1.00  0.00     0.105 A 
HETATM    6  C5  UNK     1      21.449  -6.134  15.111  1.00  0.00     0.197 A 
HETATM    7  C7  UNK     1      18.804  -5.113  12.875  1.00  0.00     0.015 A 
HETATM    8  C8  UNK     1      20.082  -7.574  13.478  1.00  0.00     0.016 A 
HETATM    9  C9  UNK     1      18.425  -6.297  12.231  1.00  0.00     0.001 A 
HETATM   10  C10 UNK     1      19.060  -7.517  12.531  1.00  0.00     0.001 A 
ENDROOT
BRANCH   5  11
HETATM   11  O1  UNK     1      19.972  -2.873  14.570  1.00  0.00    -0.273 OA
BRANCH  11  12
HETATM   12  C14 UNK     1      18.926  -2.615  15.406  1.00  0.00     0.304 C 
HETATM   13  O4  UNK     1      18.033  -3.366  15.771  1.00  0.00    -0.259 OA
BRANCH  12  14
HETATM   14  C13 UNK     1      19.018  -1.213  15.831  1.00  0.00     0.116 A 
HETATM   15  C16 UNK     1      18.923  -0.987  17.147  1.00  0.00     0.038 A 
HETATM   16  C15 UNK     1      19.003   0.371  17.664  1.00  0.00    -0.001 A 
HETATM   17  C17 UNK     1      19.178   1.422  16.771  1.00  0.00     0.089 A 
HETATM   18  C22 UNK     1      18.909   0.654  19.029  1.00  0.00     0.014 A 
HETATM   19  O3  UNK     1      19.277   1.177  15.387  1.00  0.00    -0.274 OA
HETATM   20  C23 UNK     1      19.261   2.745  17.202  1.00  0.00     0.038 A 
HETATM   21  C20 UNK     1      19.205  -0.110  14.863  1.00  0.00     0.304 A 
HETATM   22  O5  UNK     1      19.292  -0.314  13.657  1.00  0.00    -0.259 OA
HETATM   23  C25 UNK     1      19.166   3.019  18.564  1.00  0.00     0.003 A 
HETATM   24  C24 UNK     1      18.991   1.976  19.476  1.00  0.00     0.001 A 
ENDBRANCH  12  14
ENDBRANCH  11  12
ENDBRANCH   5  11
BRANCH   3  25
HETATM   25  C6  UNK     1      22.252  -3.999  16.399  1.00  0.00    -0.019 A 
HETATM   26  C11 UNK     1      21.689  -3.384  17.525  1.00  0.00     0.012 A 
HETATM   27  C18 UNK     1      22.501  -2.741  18.459  1.00  0.00     0.001 A 
HETATM   28  C21 UNK     1      23.884  -2.708  18.276  1.00  0.00     0.000 A 
HETATM   29  C19 UNK     1      24.454  -3.319  17.159  1.00  0.00     0.001 A 
HETATM   30  C12 UNK     1      23.643  -3.961  16.225  1.00  0.00     0.012 A 
ENDBRANCH   3  25
TORSDOF 4
ENDMDL
MODEL 6
REMARK VINA RESULT:      -9.4      4.104      8.695
REMARK  4 active torsions:
REMARK  status: ('A' for Active; 'I' for Inactive)
REMARK    1  A    between atoms: C14_19  and  O1_1 
REMARK    2  A    between atoms: C4_9  and  O1_1 
REMARK    3  A    between atoms: C2_7  and  C6_11 
REMARK    4  A    between atoms: C13_18  and  C14_19 
ROOT
HETATM    1  O2  UNK     1      18.561  -1.972  33.373  1.00  0.00    -0.286 OA
HETATM    2  C1  UNK     1      19.665   0.318  31.021  1.00  0.00     0.013 A 
HETATM    3  C2  UNK     1      18.719   0.441  33.125  1.00  0.00     0.060 A 
HETATM    4  C3  UNK     1      19.466  -1.005  31.394  1.00  0.00     0.028 A 
HETATM    5  C4  UNK     1      19.194   1.170  32.095  1.00  0.00     0.105 A 
HETATM    6  C5  UNK     1      18.866  -0.992  32.724  1.00  0.00     0.197 A 
HETATM    7  C7  UNK     1      20.227   0.612  29.790  1.00  0.00     0.015 A 
HETATM    8  C8  UNK     1      19.805  -2.076  30.591  1.00  0.00     0.016 A 
HETATM    9  C9  UNK     1      20.582  -0.451  28.953  1.00  0.00     0.001 A 
HETATM   10  C10 UNK     1      20.372  -1.785  29.351  1.00  0.00     0.001 A 
ENDROOT
BRANCH   5  11
HETATM   11  O1  UNK     1      19.254   2.523  31.948  1.00  0.00    -0.273 OA
BRANCH  11  12
HETATM   12  C14 UNK     1      18.117   3.071  31.430  1.00  0.00     0.304 C 
HETATM   13  O4  UNK     1      17.242   2.535  30.766  1.00  0.00    -0.259 OA
BRANCH  12  14
HETATM   14  C13 UNK     1      18.091   4.493  31.792  1.00  0.00     0.116 A 
HETATM   15  C16 UNK     1      17.606   4.786  33.004  1.00  0.00     0.038 A 
HETATM   16  C15 UNK     1      17.539   6.168  33.453  1.00  0.00    -0.001 A 
HETATM   17  C17 UNK     1      17.987   7.174  32.603  1.00  0.00     0.089 A 
HETATM   18  C22 UNK     1      17.040   6.520  34.709  1.00  0.00     0.014 A 
HETATM   19  O3  UNK     1      18.497   6.859  31.328  1.00  0.00    -0.274 OA
HETATM   20  C23 UNK     1      17.950   8.517  32.972  1.00  0.00     0.038 A 
HETATM   21  C20 UNK     1      18.573   5.546  30.871  1.00  0.00     0.304 A 
HETATM   22  O5  UNK     1      19.018   5.282  29.760  1.00  0.00    -0.259 OA
HETATM   23  C25 UNK     1      17.450   8.860  34.226  1.00  0.00     0.003 A 
HETATM   24  C24 UNK     1      16.998   7.863  35.094  1.00  0.00     0.001 A 
ENDBRANCH  12  14
ENDBRANCH  11  12
ENDBRANCH   5  11
BRANCH   3  25
HETATM   25  C6  UNK     1      18.146   0.900  34.388  1.00  0.00    -0.019 A 
HETATM   26  C11 UNK     1      18.886   1.724  35.245  1.00  0.00     0.012 A 
HETATM   27  C18 UNK     1      18.338   2.162  36.451  1.00  0.00     0.001 A 
HETATM   28  C21 UNK     1      17.045   1.781  36.809  1.00  0.00     0.000 A 
HETATM   29  C19 UNK     1      16.300   0.961  35.961  1.00  0.00     0.001 A 
HETATM   30  C12 UNK     1      16.847   0.523  34.756  1.00  0.00     0.012 A 
ENDBRANCH   3  25
TORSDOF 4
ENDMDL
MODEL 7
REMARK VINA RESULT:      -9.3     10.886     13.438
REMARK  4 active torsions:
REMARK  status: ('A' for Active; 'I' for Inactive)
REMARK    1  A    between atoms: C14_19  and  O1_1 
REMARK    2  A    between atoms: C4_9  and  O1_1 
REMARK    3  A    between atoms: C2_7  and  C6_11 
REMARK    4  A    between atoms: C13_18  and  C14_19 
ROOT
HETATM    1  O2  UNK     1      31.786 -10.777  31.595  1.00  0.00    -0.286 OA
HETATM    2  C1  UNK     1      28.757  -9.178  31.082  1.00  0.00     0.013 A 
HETATM    3  C2  UNK     1      30.228  -9.398  32.850  1.00  0.00     0.060 A 
HETATM    4  C3  UNK     1      29.784  -9.971  30.588  1.00  0.00     0.028 A 
HETATM    5  C4  UNK     1      29.057  -8.852  32.463  1.00  0.00     0.105 A 
HETATM    6  C5  UNK     1      30.751 -10.147  31.667  1.00  0.00     0.197 A 
HETATM    7  C7  UNK     1      27.689  -8.843  30.268  1.00  0.00     0.015 A 
HETATM    8  C8  UNK     1      29.808 -10.460  29.297  1.00  0.00     0.016 A 
HETATM    9  C9  UNK     1      27.682  -9.323  28.954  1.00  0.00     0.001 A 
HETATM   10  C10 UNK     1      28.734 -10.126  28.472  1.00  0.00     0.001 A 
ENDROOT
BRANCH   5  11
HETATM   11  O1  UNK     1      28.173  -8.104  33.179  1.00  0.00    -0.273 OA
BRANCH  11  12
HETATM   12  C14 UNK     1      28.309  -6.760  32.991  1.00  0.00     0.304 C 
HETATM   13  O4  UNK     1      27.703  -6.028  32.223  1.00  0.00    -0.259 OA
BRANCH  12  14
HETATM   14  C13 UNK     1      29.364  -6.279  33.892  1.00  0.00     0.116 A 
HETATM   15  C16 UNK     1      29.142  -6.439  35.202  1.00  0.00     0.038 A 
HETATM   16  C15 UNK     1      30.129  -5.994  36.173  1.00  0.00    -0.001 A 
HETATM   17  C17 UNK     1      31.302  -5.402  35.716  1.00  0.00     0.089 A 
HETATM   18  C22 UNK     1      29.938  -6.139  37.549  1.00  0.00     0.014 A 
HETATM   19  O3  UNK     1      31.531  -5.237  34.336  1.00  0.00    -0.274 OA
HETATM   20  C23 UNK     1      32.287  -4.954  36.594  1.00  0.00     0.038 A 
HETATM   21  C20 UNK     1      30.605  -5.653  33.383  1.00  0.00     0.304 A 
HETATM   22  O5  UNK     1      30.812  -5.505  32.184  1.00  0.00    -0.259 OA
HETATM   23  C25 UNK     1      32.090  -5.102  37.965  1.00  0.00     0.003 A 
HETATM   24  C24 UNK     1      30.919  -5.695  38.442  1.00  0.00     0.001 A 
ENDBRANCH  12  14
ENDBRANCH  11  12
ENDBRANCH   5  11
BRANCH   3  25
HETATM   25  C6  UNK     1      30.889  -9.325  34.152  1.00  0.00    -0.019 A 
HETATM   26  C11 UNK     1      32.157  -8.745  34.272  1.00  0.00     0.012 A 
HETATM   27  C18 UNK     1      32.788  -8.676  35.514  1.00  0.00     0.001 A 
HETATM   28  C21 UNK     1      32.154  -9.186  36.647  1.00  0.00     0.000 A 
HETATM   29  C19 UNK     1      30.890  -9.765  36.537  1.00  0.00     0.001 A 
HETATM   30  C12 UNK     1      30.259  -9.835  35.296  1.00  0.00     0.012 A 
ENDBRANCH   3  25
TORSDOF 4
ENDMDL
MODEL 8
REMARK VINA RESULT:      -9.2     11.148     13.557
REMARK  4 active torsions:
REMARK  status: ('A' for Active; 'I' for Inactive)
REMARK    1  A    between atoms: C14_19  and  O1_1 
REMARK    2  A    between atoms: C4_9  and  O1_1 
REMARK    3  A    between atoms: C2_7  and  C6_11 
REMARK    4  A    between atoms: C13_18  and  C14_19 
ROOT
HETATM    1  O2  UNK     1      27.622  -6.977  35.778  1.00  0.00    -0.286 OA
HETATM    2  C1  UNK     1      30.805  -5.617  35.875  1.00  0.00     0.013 A 
HETATM    3  C2  UNK     1      29.393  -6.394  34.220  1.00  0.00     0.060 A 
HETATM    4  C3  UNK     1      29.666  -6.032  36.552  1.00  0.00     0.028 A 
HETATM    5  C4  UNK     1      30.606  -5.856  34.459  1.00  0.00     0.105 A 
HETATM    6  C5  UNK     1      28.730  -6.537  35.552  1.00  0.00     0.197 A 
HETATM    7  C7  UNK     1      31.873  -5.086  36.579  1.00  0.00     0.015 A 
HETATM    8  C8  UNK     1      29.527  -5.945  37.923  1.00  0.00     0.016 A 
HETATM    9  C9  UNK     1      31.764  -4.984  37.970  1.00  0.00     0.001 A 
HETATM   10  C10 UNK     1      30.600  -5.411  38.637  1.00  0.00     0.001 A 
ENDROOT
BRANCH   5  11
HETATM   11  O1  UNK     1      31.608  -5.558  33.585  1.00  0.00    -0.273 OA
BRANCH  11  12
HETATM   12  C14 UNK     1      32.598  -6.495  33.543  1.00  0.00     0.304 C 
HETATM   13  O4  UNK     1      33.675  -6.498  34.121  1.00  0.00    -0.259 OA
BRANCH  12  14
HETATM   14  C13 UNK     1      32.171  -7.569  32.639  1.00  0.00     0.116 A 
HETATM   15  C16 UNK     1      31.900  -7.209  31.379  1.00  0.00     0.038 A 
HETATM   16  C15 UNK     1      31.469  -8.204  30.409  1.00  0.00    -0.001 A 
HETATM   17  C17 UNK     1      31.345  -9.529  30.814  1.00  0.00     0.089 A 
HETATM   18  C22 UNK     1      31.175  -7.873  29.084  1.00  0.00     0.014 A 
HETATM   19  O3  UNK     1      31.633  -9.902  32.141  1.00  0.00    -0.274 OA
HETATM   20  C23 UNK     1      30.937 -10.530  29.934  1.00  0.00     0.038 A 
HETATM   21  C20 UNK     1      32.046  -8.973  33.092  1.00  0.00     0.304 A 
HETATM   22  O5  UNK     1      32.294  -9.306  34.245  1.00  0.00    -0.259 OA
HETATM   23  C25 UNK     1      30.645 -10.192  28.614  1.00  0.00     0.003 A 
HETATM   24  C24 UNK     1      30.765  -8.867  28.189  1.00  0.00     0.001 A 
ENDBRANCH  12  14
ENDBRANCH  11  12
ENDBRANCH   5  11
BRANCH   3  25
HETATM   25  C6  UNK     1      28.801  -6.795  32.946  1.00  0.00    -0.019 A 
HETATM   26  C11 UNK     1      28.526  -5.839  31.959  1.00  0.00     0.012 A 
HETATM   27  C18 UNK     1      27.961  -6.223  30.743  1.00  0.00     0.001 A 
HETATM   28  C21 UNK     1      27.668  -7.565  30.502  1.00  0.00     0.000 A 
HETATM   29  C19 UNK     1      27.940  -8.524  31.478  1.00  0.00     0.001 A 
HETATM   30  C12 UNK     1      28.504  -8.142  32.694  1.00  0.00     0.012 A 
ENDBRANCH   3  25
TORSDOF 4
ENDMDL
MODEL 9
REMARK VINA RESULT:      -9.1     11.159     13.960
REMARK  4 active torsions:
REMARK  status: ('A' for Active; 'I' for Inactive)
REMARK    1  A    between atoms: C14_19  and  O1_1 
REMARK    2  A    between atoms: C4_9  and  O1_1 
REMARK    3  A    between atoms: C2_7  and  C6_11 
REMARK    4  A    between atoms: C13_18  and  C14_19 
ROOT
HETATM    1  O2  UNK     1      30.910  -8.782  36.597  1.00  0.00    -0.286 OA
HETATM    2  C1  UNK     1      31.746  -5.780  35.086  1.00  0.00     0.013 A 
HETATM    3  C2  UNK     1      31.150  -7.887  34.350  1.00  0.00     0.060 A 
HETATM    4  C3  UNK     1      31.550  -6.515  36.247  1.00  0.00     0.028 A 
HETATM    5  C4  UNK     1      31.499  -6.647  33.950  1.00  0.00     0.105 A 
HETATM    6  C5  UNK     1      31.170  -7.865  35.844  1.00  0.00     0.197 A 
HETATM    7  C7  UNK     1      32.118  -4.448  35.164  1.00  0.00     0.015 A 
HETATM    8  C8  UNK     1      31.707  -5.985  37.513  1.00  0.00     0.016 A 
HETATM    9  C9  UNK     1      32.286  -3.881  36.432  1.00  0.00     0.001 A 
HETATM   10  C10 UNK     1      32.082  -4.644  37.597  1.00  0.00     0.001 A 
ENDROOT
BRANCH   5  11
HETATM   11  O1  UNK     1      31.661  -6.158  32.690  1.00  0.00    -0.273 OA
BRANCH  11  12
HETATM   12  C14 UNK     1      30.543  -5.563  32.182  1.00  0.00     0.304 C 
HETATM   13  O4  UNK     1      30.167  -4.407  32.306  1.00  0.00    -0.259 OA
BRANCH  12  14
HETATM   14  C13 UNK     1      29.795  -6.572  31.422  1.00  0.00     0.116 A 
HETATM   15  C16 UNK     1      30.477  -7.223  30.473  1.00  0.00     0.038 A 
HETATM   16  C15 UNK     1      29.821  -8.242  29.666  1.00  0.00    -0.001 A 
HETATM   17  C17 UNK     1      28.480  -8.524  29.901  1.00  0.00     0.089 A 
HETATM   18  C22 UNK     1      30.494  -8.945  28.665  1.00  0.00     0.014 A 
HETATM   19  O3  UNK     1      27.767  -7.835  30.902  1.00  0.00    -0.274 OA
HETATM   20  C23 UNK     1      27.793  -9.487  29.163  1.00  0.00     0.038 A 
HETATM   21  C20 UNK     1      28.367  -6.856  31.689  1.00  0.00     0.304 A 
HETATM   22  O5  UNK     1      27.740  -6.262  32.558  1.00  0.00    -0.259 OA
HETATM   23  C25 UNK     1      28.471 -10.184  28.166  1.00  0.00     0.003 A 
HETATM   24  C24 UNK     1      29.819  -9.915  27.917  1.00  0.00     0.001 A 
ENDBRANCH  12  14
ENDBRANCH  11  12
ENDBRANCH   5  11
BRANCH   3  25
HETATM   25  C6  UNK     1      30.829  -9.058  33.536  1.00  0.00    -0.019 A 
HETATM   26  C11 UNK     1      29.539  -9.602  33.553  1.00  0.00     0.012 A 
HETATM   27  C18 UNK     1      29.233 -10.719  32.776  1.00  0.00     0.001 A 
HETATM   28  C21 UNK     1      30.216 -11.301  31.975  1.00  0.00     0.000 A 
HETATM   29  C19 UNK     1      31.503 -10.765  31.950  1.00  0.00     0.001 A 
HETATM   30  C12 UNK     1      31.810  -9.649  32.727  1.00  0.00     0.012 A 
ENDBRANCH   3  25
TORSDOF 4
ENDMDL
MODEL 10
REMARK VINA RESULT:      -9.1     12.475     15.078
REMARK  4 active torsions:
REMARK  status: ('A' for Active; 'I' for Inactive)
REMARK    1  A    between atoms: C14_19  and  O1_1 
REMARK    2  A    between atoms: C4_9  and  O1_1 
REMARK    3  A    between atoms: C2_7  and  C6_11 
REMARK    4  A    between atoms: C13_18  and  C14_19 
ROOT
HETATM    1  O2  UNK     1      30.250  -4.818  38.201  1.00  0.00    -0.286 OA
HETATM    2  C1  UNK     1      29.924  -8.265  38.150  1.00  0.00     0.013 A 
HETATM    3  C2  UNK     1      31.445  -6.740  37.315  1.00  0.00     0.060 A 
HETATM    4  C3  UNK     1      29.432  -7.028  38.543  1.00  0.00     0.028 A 
HETATM    5  C4  UNK     1      31.147  -8.052  37.401  1.00  0.00     0.105 A 
HETATM    6  C5  UNK     1      30.356  -6.017  38.040  1.00  0.00     0.197 A 
HETATM    7  C7  UNK     1      29.243  -9.421  38.493  1.00  0.00     0.015 A 
HETATM    8  C8  UNK     1      28.271  -6.873  39.276  1.00  0.00     0.016 A 
HETATM    9  C9  UNK     1      28.063  -9.299  39.235  1.00  0.00     0.001 A 
HETATM   10  C10 UNK     1      27.581  -8.035  39.623  1.00  0.00     0.001 A 
ENDROOT
BRANCH   5  11
HETATM   11  O1  UNK     1      31.804  -9.124  36.877  1.00  0.00    -0.273 OA
BRANCH  11  12
HETATM   12  C14 UNK     1      31.313  -9.537  35.674  1.00  0.00     0.304 C 
HETATM   13  O4  UNK     1      30.407 -10.326  35.446  1.00  0.00    -0.259 OA
BRANCH  12  14
HETATM   14  C13 UNK     1      32.078  -8.868  34.615  1.00  0.00     0.116 A 
HETATM   15  C16 UNK     1      33.411  -8.908  34.734  1.00  0.00     0.038 A 
HETATM   16  C15 UNK     1      34.255  -8.273  33.734  1.00  0.00    -0.001 A 
HETATM   17  C17 UNK     1      33.654  -7.628  32.658  1.00  0.00     0.089 A 
HETATM   18  C22 UNK     1      35.649  -8.289  33.818  1.00  0.00     0.014 A 
HETATM   19  O3  UNK     1      32.251  -7.590  32.539  1.00  0.00    -0.274 OA
HETATM   20  C23 UNK     1      34.406  -6.999  31.667  1.00  0.00     0.038 A 
HETATM   21  C20 UNK     1      31.418  -8.188  33.479  1.00  0.00     0.304 A 
HETATM   22  O5  UNK     1      30.198  -8.150  33.368  1.00  0.00    -0.259 OA
HETATM   23  C25 UNK     1      35.796  -7.019  31.758  1.00  0.00     0.003 A 
HETATM   24  C24 UNK     1      36.417  -7.664  32.830  1.00  0.00     0.001 A 
ENDBRANCH  12  14
ENDBRANCH  11  12
ENDBRANCH   5  11
BRANCH   3  25
HETATM   25  C6  UNK     1      32.573  -6.096  36.645  1.00  0.00    -0.019 A 
HETATM   26  C11 UNK     1      32.367  -5.320  35.497  1.00  0.00     0.012 A 
HETATM   27  C18 UNK     1      33.444  -4.706  34.858  1.00  0.00     0.001 A 
HETATM   28  C21 UNK     1      34.736  -4.862  35.362  1.00  0.00     0.000 A 
HETATM   29  C19 UNK     1      34.950  -5.632  36.505  1.00  0.00     0.001 A 
HETATM   30  C12 UNK     1      33.874  -6.247  37.144  1.00  0.00     0.012 A 
ENDBRANCH   3  25
TORSDOF 4
ENDMDL
