MODEL 1
REMARK VINA RESULT:      -7.3      0.000      0.000
REMARK  4 active torsions:
REMARK  status: ('A' for Active; 'I' for Inactive)
REMARK    1  A    between atoms: C13_17  and  O2_2 
REMARK    2  A    between atoms: C4_8  and  O2_2 
REMARK    3  A    between atoms: C10_14  and  C5_9 
REMARK    4  A    between atoms: C13_17  and  C15_19 
ROOT
HETATM    1  O1  UNK     1      18.862   0.638  30.842  1.00  0.00    -0.274 OA
HETATM    2  O4  UNK     1      19.040   1.464  28.717  1.00  0.00    -0.260 OA
HETATM    3  C1  UNK     1      18.315   2.160  32.673  1.00  0.00     0.006 A 
HETATM    4  C2  UNK     1      18.612   0.878  32.208  1.00  0.00     0.099 A 
HETATM    5  C3  UNK     1      18.677  -0.227  33.058  1.00  0.00     0.007 A 
HETATM    6  C4  UNK     1      18.439  -0.053  34.418  1.00  0.00     0.091 A 
HETATM    7  C5  UNK     1      18.140   1.216  34.911  1.00  0.00     0.044 A 
HETATM    8  C6  UNK     1      18.079   2.315  34.045  1.00  0.00     0.032 A 
HETATM    9  C7  UNK     1      18.268   3.266  31.707  1.00  0.00    -0.043 A 
HETATM   10  C8  UNK     1      18.997  -1.584  32.520  1.00  0.00     0.054 C 
HETATM   11  C9  UNK     1      18.510   3.008  30.414  1.00  0.00     0.090 A 
HETATM   12  C11 UNK     1      17.952   4.656  32.175  1.00  0.00     0.049 C 
HETATM   13  C12 UNK     1      18.823   1.662  29.908  1.00  0.00     0.288 A 
ENDROOT
BRANCH   6  14
HETATM   14  O2  UNK     1      18.498  -1.120  35.264  1.00  0.00    -0.346 OA
BRANCH  14  15
HETATM   15  C13 UNK     1      19.767  -1.418  35.842  1.00  0.00     0.202 C 
BRANCH  15  16
HETATM   16  C15 UNK     1      19.870  -2.894  36.038  1.00  0.00    -0.011 C 
HETATM   17  C16 UNK     1      20.338  -3.470  37.151  1.00  0.00     0.009 C 
ENDBRANCH  15  16
ENDBRANCH  14  15
ENDBRANCH   6  14
BRANCH   7  18
HETATM   18  C10 UNK     1      17.887   1.424  36.331  1.00  0.00     0.158 C 
HETATM   19  O3  UNK     1      18.744   1.904  37.087  1.00  0.00    -0.293 OA
HETATM   20  C14 UNK     1      16.543   1.049  36.926  1.00  0.00     0.097 C 
ENDBRANCH   7  18
TORSDOF 4
ENDMDL
MODEL 2
REMARK VINA RESULT:      -7.2      2.201      3.529
REMARK  4 active torsions:
REMARK  status: ('A' for Active; 'I' for Inactive)
REMARK    1  A    between atoms: C13_17  and  O2_2 
REMARK    2  A    between atoms: C4_8  and  O2_2 
REMARK    3  A    between atoms: C10_14  and  C5_9 
REMARK    4  A    between atoms: C13_17  and  C15_19 
ROOT
HETATM    1  O1  UNK     1      18.923   4.213  30.175  1.00  0.00    -0.274 OA
HETATM    2  O4  UNK     1      19.082   6.337  29.341  1.00  0.00    -0.260 OA
HETATM    3  C1  UNK     1      18.400   3.895  32.540  1.00  0.00     0.006 A 
HETATM    4  C2  UNK     1      18.688   3.370  31.280  1.00  0.00     0.099 A 
HETATM    5  C3  UNK     1      18.757   1.996  31.042  1.00  0.00     0.007 A 
HETATM    6  C4  UNK     1      18.534   1.113  32.094  1.00  0.00     0.091 A 
HETATM    7  C5  UNK     1      18.244   1.609  33.364  1.00  0.00     0.044 A 
HETATM    8  C6  UNK     1      18.178   2.989  33.586  1.00  0.00     0.032 A 
HETATM    9  C7  UNK     1      18.346   5.354  32.699  1.00  0.00    -0.043 A 
HETATM   10  C8  UNK     1      19.068   1.475  29.676  1.00  0.00     0.054 C 
HETATM   11  C9  UNK     1      18.574   6.132  31.631  1.00  0.00     0.090 A 
HETATM   12  C11 UNK     1      18.040   5.951  34.042  1.00  0.00     0.049 C 
HETATM   13  C12 UNK     1      18.878   5.594  30.295  1.00  0.00     0.288 A 
ENDROOT
BRANCH   6  14
HETATM   14  O2  UNK     1      18.598  -0.232  31.881  1.00  0.00    -0.346 OA
BRANCH  14  15
HETATM   15  C13 UNK     1      19.892  -0.830  31.904  1.00  0.00     0.202 C 
BRANCH  15  16
HETATM   16  C15 UNK     1      19.909  -1.976  30.947  1.00  0.00    -0.011 C 
HETATM   17  C16 UNK     1      20.462  -1.925  29.731  1.00  0.00     0.009 C 
ENDBRANCH  15  16
ENDBRANCH  14  15
ENDBRANCH   6  14
BRANCH   7  18
HETATM   18  C10 UNK     1      18.006   0.704  34.480  1.00  0.00     0.158 C 
HETATM   19  O3  UNK     1      18.934   0.238  35.157  1.00  0.00    -0.293 OA
HETATM   20  C14 UNK     1      16.589   0.304  34.846  1.00  0.00     0.097 C 
ENDBRANCH   7  18
TORSDOF 4
ENDMDL
MODEL 3
REMARK VINA RESULT:      -7.2      2.222      6.122
REMARK  4 active torsions:
REMARK  status: ('A' for Active; 'I' for Inactive)
REMARK    1  A    between atoms: C13_17  and  O2_2 
REMARK    2  A    between atoms: C4_8  and  O2_2 
REMARK    3  A    between atoms: C10_14  and  C5_9 
REMARK    4  A    between atoms: C13_17  and  C15_19 
ROOT
HETATM    1  O1  UNK     1      19.281  -0.728  33.408  1.00  0.00    -0.274 OA
HETATM    2  O4  UNK     1      20.064  -2.807  33.954  1.00  0.00    -0.260 OA
HETATM    3  C1  UNK     1      19.592   0.105  31.133  1.00  0.00     0.006 A 
HETATM    4  C2  UNK     1      19.119   0.277  32.434  1.00  0.00     0.099 A 
HETATM    5  C3  UNK     1      18.463   1.441  32.842  1.00  0.00     0.007 A 
HETATM    6  C4  UNK     1      18.273   2.469  31.924  1.00  0.00     0.091 A 
HETATM    7  C5  UNK     1      18.735   2.325  30.617  1.00  0.00     0.044 A 
HETATM    8  C6  UNK     1      19.390   1.152  30.223  1.00  0.00     0.032 A 
HETATM    9  C7  UNK     1      20.270  -1.152  30.791  1.00  0.00    -0.043 A 
HETATM   10  C8  UNK     1      17.971   1.585  34.245  1.00  0.00     0.054 C 
HETATM   11  C9  UNK     1      20.411  -2.092  31.737  1.00  0.00     0.090 A 
HETATM   12  C11 UNK     1      20.791  -1.369  29.400  1.00  0.00     0.049 C 
HETATM   13  C12 UNK     1      19.916  -1.925  33.114  1.00  0.00     0.288 A 
ENDROOT
BRANCH   6  14
HETATM   14  O2  UNK     1      17.635   3.613  32.303  1.00  0.00    -0.346 OA
BRANCH  14  15
HETATM   15  C13 UNK     1      18.295   4.432  33.266  1.00  0.00     0.202 C 
BRANCH  15  16
HETATM   16  C15 UNK     1      17.725   5.810  33.195  1.00  0.00    -0.011 C 
HETATM   17  C16 UNK     1      16.749   6.173  32.356  1.00  0.00     0.009 C 
ENDBRANCH  15  16
ENDBRANCH  14  15
ENDBRANCH   6  14
BRANCH   7  18
HETATM   18  C10 UNK     1      18.546   3.388  29.639  1.00  0.00     0.158 C 
HETATM   19  O3  UNK     1      17.903   3.212  28.594  1.00  0.00    -0.293 OA
HETATM   20  C14 UNK     1      19.144   4.762  29.883  1.00  0.00     0.097 C 
ENDBRANCH   7  18
TORSDOF 4
ENDMDL
MODEL 4
REMARK VINA RESULT:      -7.0      2.381      5.762
REMARK  4 active torsions:
REMARK  status: ('A' for Active; 'I' for Inactive)
REMARK    1  A    between atoms: C13_17  and  O2_2 
REMARK    2  A    between atoms: C4_8  and  O2_2 
REMARK    3  A    between atoms: C10_14  and  C5_9 
REMARK    4  A    between atoms: C13_17  and  C15_19 
ROOT
HETATM    1  O1  UNK     1      18.589   0.518  31.995  1.00  0.00    -0.274 OA
HETATM    2  O4  UNK     1      18.759  -1.700  32.525  1.00  0.00    -0.260 OA
HETATM    3  C1  UNK     1      18.289   2.153  33.785  1.00  0.00     0.006 A 
HETATM    4  C2  UNK     1      18.426   1.848  32.431  1.00  0.00     0.099 A 
HETATM    5  C3  UNK     1      18.411   2.832  31.439  1.00  0.00     0.007 A 
HETATM    6  C4  UNK     1      18.254   4.164  31.807  1.00  0.00     0.091 A 
HETATM    7  C5  UNK     1      18.115   4.499  33.153  1.00  0.00     0.044 A 
HETATM    8  C6  UNK     1      18.132   3.501  34.136  1.00  0.00     0.032 A 
HETATM    9  C7  UNK     1      18.317   1.055  34.760  1.00  0.00    -0.043 A 
HETATM   10  C8  UNK     1      18.561   2.463  29.999  1.00  0.00     0.054 C 
HETATM   11  C9  UNK     1      18.473  -0.201  34.318  1.00  0.00     0.090 A 
HETATM   12  C11 UNK     1      18.172   1.349  36.224  1.00  0.00     0.049 C 
HETATM   13  C12 UNK     1      18.619  -0.539  32.893  1.00  0.00     0.288 A 
ENDROOT
BRANCH   6  14
HETATM   14  O2  UNK     1      18.237   5.139  30.854  1.00  0.00    -0.346 OA
BRANCH  14  15
HETATM   15  C13 UNK     1      19.413   5.289  30.062  1.00  0.00     0.202 C 
BRANCH  15  16
HETATM   16  C15 UNK     1      20.370   6.176  30.787  1.00  0.00    -0.011 C 
HETATM   17  C16 UNK     1      21.551   5.768  31.263  1.00  0.00     0.009 C 
ENDBRANCH  15  16
ENDBRANCH  14  15
ENDBRANCH   6  14
BRANCH   7  18
HETATM   18  C10 UNK     1      17.950   5.887  33.563  1.00  0.00     0.158 C 
HETATM   19  O3  UNK     1      16.855   6.464  33.499  1.00  0.00    -0.293 OA
HETATM   20  C14 UNK     1      19.139   6.672  34.087  1.00  0.00     0.097 C 
ENDBRANCH   7  18
TORSDOF 4
ENDMDL
MODEL 5
REMARK VINA RESULT:      -6.9      2.530      5.035
REMARK  4 active torsions:
REMARK  status: ('A' for Active; 'I' for Inactive)
REMARK    1  A    between atoms: C13_17  and  O2_2 
REMARK    2  A    between atoms: C4_8  and  O2_2 
REMARK    3  A    between atoms: C10_14  and  C5_9 
REMARK    4  A    between atoms: C13_17  and  C15_19 
ROOT
HETATM    1  O1  UNK     1      17.920   4.320  33.511  1.00  0.00    -0.274 OA
HETATM    2  O4  UNK     1      17.598   6.424  34.347  1.00  0.00    -0.260 OA
HETATM    3  C1  UNK     1      18.599   4.053  31.180  1.00  0.00     0.006 A 
HETATM    4  C2  UNK     1      18.265   3.501  32.417  1.00  0.00     0.099 A 
HETATM    5  C3  UNK     1      18.255   2.123  32.641  1.00  0.00     0.007 A 
HETATM    6  C4  UNK     1      18.588   1.263  31.599  1.00  0.00     0.091 A 
HETATM    7  C5  UNK     1      18.926   1.786  30.352  1.00  0.00     0.044 A 
HETATM    8  C6  UNK     1      18.932   3.170  30.143  1.00  0.00     0.032 A 
HETATM    9  C7  UNK     1      18.584   5.514  31.033  1.00  0.00    -0.043 A 
HETATM   10  C8  UNK     1      17.892   1.573  33.982  1.00  0.00     0.054 C 
HETATM   11  C9  UNK     1      18.251   6.269  32.090  1.00  0.00     0.090 A 
HETATM   12  C11 UNK     1      18.938   6.139  29.715  1.00  0.00     0.049 C 
HETATM   13  C12 UNK     1      17.898   5.702  33.402  1.00  0.00     0.288 A 
ENDROOT
BRANCH   6  14
HETATM   14  O2  UNK     1      18.584  -0.085  31.798  1.00  0.00    -0.346 OA
BRANCH  14  15
HETATM   15  C13 UNK     1      19.792  -0.672  32.277  1.00  0.00     0.202 C 
BRANCH  15  16
HETATM   16  C15 UNK     1      19.878  -2.074  31.770  1.00  0.00    -0.011 C 
HETATM   17  C16 UNK     1      20.480  -2.419  30.626  1.00  0.00     0.009 C 
ENDBRANCH  15  16
ENDBRANCH  14  15
ENDBRANCH   6  14
BRANCH   7  18
HETATM   18  C10 UNK     1      19.278   0.906  29.246  1.00  0.00     0.158 C 
HETATM   19  O3  UNK     1      20.416   0.428  29.124  1.00  0.00    -0.293 OA
HETATM   20  C14 UNK     1      18.240   0.546  28.199  1.00  0.00     0.097 C 
ENDBRANCH   7  18
TORSDOF 4
ENDMDL
MODEL 6
REMARK VINA RESULT:      -6.9      6.722      8.566
REMARK  4 active torsions:
REMARK  status: ('A' for Active; 'I' for Inactive)
REMARK    1  A    between atoms: C13_17  and  O2_2 
REMARK    2  A    between atoms: C4_8  and  O2_2 
REMARK    3  A    between atoms: C10_14  and  C5_9 
REMARK    4  A    between atoms: C13_17  and  C15_19 
ROOT
HETATM    1  O1  UNK     1      20.860   6.823  33.090  1.00  0.00    -0.274 OA
HETATM    2  O4  UNK     1      22.779   5.770  32.426  1.00  0.00    -0.260 OA
HETATM    3  C1  UNK     1      18.875   6.692  31.674  1.00  0.00     0.006 A 
HETATM    4  C2  UNK     1      19.512   7.141  32.830  1.00  0.00     0.099 A 
HETATM    5  C3  UNK     1      18.860   7.923  33.787  1.00  0.00     0.007 A 
HETATM    6  C4  UNK     1      17.528   8.269  33.586  1.00  0.00     0.091 A 
HETATM    7  C5  UNK     1      16.865   7.834  32.440  1.00  0.00     0.044 A 
HETATM    8  C6  UNK     1      17.532   7.051  31.490  1.00  0.00     0.032 A 
HETATM    9  C7  UNK     1      19.637   5.874  30.722  1.00  0.00    -0.043 A 
HETATM   10  C8  UNK     1      19.580   8.384  35.012  1.00  0.00     0.054 C 
HETATM   11  C9  UNK     1      20.918   5.587  30.994  1.00  0.00     0.090 A 
HETATM   12  C11 UNK     1      18.981   5.375  29.468  1.00  0.00     0.049 C 
HETATM   13  C12 UNK     1      21.605   6.053  32.210  1.00  0.00     0.288 A 
ENDROOT
BRANCH   6  14
HETATM   14  O2  UNK     1      16.874   9.031  34.507  1.00  0.00    -0.346 OA
BRANCH  14  15
HETATM   15  C13 UNK     1      16.905  10.444  34.318  1.00  0.00     0.202 C 
BRANCH  15  16
HETATM   16  C15 UNK     1      15.597  11.016  34.755  1.00  0.00    -0.011 C 
HETATM   17  C16 UNK     1      14.555  10.278  35.155  1.00  0.00     0.009 C 
ENDBRANCH  15  16
ENDBRANCH  14  15
ENDBRANCH   6  14
BRANCH   7  18
HETATM   18  C10 UNK     1      15.470   8.184  32.208  1.00  0.00     0.158 C 
HETATM   19  O3  UNK     1      15.141   9.251  31.668  1.00  0.00    -0.293 OA
HETATM   20  C14 UNK     1      14.366   7.231  32.630  1.00  0.00     0.097 C 
ENDBRANCH   7  18
TORSDOF 4
ENDMDL
MODEL 7
REMARK VINA RESULT:      -6.8      1.506      5.498
REMARK  4 active torsions:
REMARK  status: ('A' for Active; 'I' for Inactive)
REMARK    1  A    between atoms: C13_17  and  O2_2 
REMARK    2  A    between atoms: C4_8  and  O2_2 
REMARK    3  A    between atoms: C10_14  and  C5_9 
REMARK    4  A    between atoms: C13_17  and  C15_19 
ROOT
HETATM    1  O1  UNK     1      19.003  -1.740  35.105  1.00  0.00    -0.274 OA
HETATM    2  O4  UNK     1      19.030  -2.786  37.138  1.00  0.00    -0.260 OA
HETATM    3  C1  UNK     1      18.222   0.570  34.962  1.00  0.00     0.006 A 
HETATM    4  C2  UNK     1      18.723  -0.580  34.354  1.00  0.00     0.099 A 
HETATM    5  C3  UNK     1      18.976  -0.650  32.982  1.00  0.00     0.007 A 
HETATM    6  C4  UNK     1      18.720   0.463  32.187  1.00  0.00     0.091 A 
HETATM    7  C5  UNK     1      18.219   1.627  32.767  1.00  0.00     0.044 A 
HETATM    8  C6  UNK     1      17.971   1.681  34.145  1.00  0.00     0.032 A 
HETATM    9  C7  UNK     1      17.986   0.555  36.412  1.00  0.00    -0.043 A 
HETATM   10  C8  UNK     1      19.514  -1.903  32.370  1.00  0.00     0.054 C 
HETATM   11  C9  UNK     1      18.261  -0.561  37.102  1.00  0.00     0.090 A 
HETATM   12  C11 UNK     1      17.447   1.777  37.096  1.00  0.00     0.049 C 
HETATM   13  C12 UNK     1      18.791  -1.783  36.475  1.00  0.00     0.288 A 
ENDROOT
BRANCH   6  14
HETATM   14  O2  UNK     1      18.960   0.415  30.846  1.00  0.00    -0.346 OA
BRANCH  14  15
HETATM   15  C13 UNK     1      20.318   0.531  30.428  1.00  0.00     0.202 C 
BRANCH  15  16
HETATM   16  C15 UNK     1      20.532  -0.351  29.242  1.00  0.00    -0.011 C 
HETATM   17  C16 UNK     1      19.594  -0.611  28.325  1.00  0.00     0.009 C 
ENDBRANCH  15  16
ENDBRANCH  14  15
ENDBRANCH   6  14
BRANCH   7  18
HETATM   18  C10 UNK     1      17.943   2.805  31.956  1.00  0.00     0.158 C 
HETATM   19  O3  UNK     1      17.317   2.735  30.889  1.00  0.00    -0.293 OA
HETATM   20  C14 UNK     1      18.427   4.171  32.409  1.00  0.00     0.097 C 
ENDBRANCH   7  18
TORSDOF 4
ENDMDL
MODEL 8
REMARK VINA RESULT:      -6.7     24.676     26.414
REMARK  4 active torsions:
REMARK  status: ('A' for Active; 'I' for Inactive)
REMARK    1  A    between atoms: C13_17  and  O2_2 
REMARK    2  A    between atoms: C4_8  and  O2_2 
REMARK    3  A    between atoms: C10_14  and  C5_9 
REMARK    4  A    between atoms: C13_17  and  C15_19 
ROOT
HETATM    1  O1  UNK     1       9.891   5.538   8.330  1.00  0.00    -0.274 OA
HETATM    2  O4  UNK     1       7.661   5.061   8.157  1.00  0.00    -0.260 OA
HETATM    3  C1  UNK     1      10.581   7.726   9.170  1.00  0.00     0.006 A 
HETATM    4  C2  UNK     1      10.899   6.459   8.679  1.00  0.00     0.099 A 
HETATM    5  C3  UNK     1      12.218   6.034   8.509  1.00  0.00     0.007 A 
HETATM    6  C4  UNK     1      13.258   6.899   8.837  1.00  0.00     0.091 A 
HETATM    7  C5  UNK     1      12.970   8.171   9.330  1.00  0.00     0.044 A 
HETATM    8  C6  UNK     1      11.642   8.583   9.495  1.00  0.00     0.032 A 
HETATM    9  C7  UNK     1       9.166   8.089   9.317  1.00  0.00    -0.043 A 
HETATM   10  C8  UNK     1      12.516   4.668   7.981  1.00  0.00     0.054 C 
HETATM   11  C9  UNK     1       8.227   7.194   8.977  1.00  0.00     0.090 A 
HETATM   12  C11 UNK     1       8.790   9.444   9.841  1.00  0.00     0.049 C 
HETATM   13  C12 UNK     1       8.547   5.853   8.459  1.00  0.00     0.288 A 
ENDROOT
BRANCH   6  14
HETATM   14  O2  UNK     1      14.552   6.503   8.678  1.00  0.00    -0.346 OA
BRANCH  14  15
HETATM   15  C13 UNK     1      15.196   5.925   9.812  1.00  0.00     0.202 C 
BRANCH  15  16
HETATM   16  C15 UNK     1      16.660   6.201   9.725  1.00  0.00    -0.011 C 
HETATM   17  C16 UNK     1      17.236   7.324  10.168  1.00  0.00     0.009 C 
ENDBRANCH  15  16
ENDBRANCH  14  15
ENDBRANCH   6  14
BRANCH   7  18
HETATM   18  C10 UNK     1      14.042   9.094   9.680  1.00  0.00     0.158 C 
HETATM   19  O3  UNK     1      14.384   9.285  10.856  1.00  0.00    -0.293 OA
HETATM   20  C14 UNK     1      14.776   9.856   8.593  1.00  0.00     0.097 C 
ENDBRANCH   7  18
TORSDOF 4
ENDMDL
MODEL 9
REMARK VINA RESULT:      -6.6     12.046     15.479
REMARK  4 active torsions:
REMARK  status: ('A' for Active; 'I' for Inactive)
REMARK    1  A    between atoms: C13_17  and  O2_2 
REMARK    2  A    between atoms: C4_8  and  O2_2 
REMARK    3  A    between atoms: C10_14  and  C5_9 
REMARK    4  A    between atoms: C13_17  and  C15_19 
ROOT
HETATM    1  O1  UNK     1      28.136  -5.097  38.313  1.00  0.00    -0.274 OA
HETATM    2  O4  UNK     1      25.939  -5.189  38.944  1.00  0.00    -0.260 OA
HETATM    3  C1  UNK     1      29.405  -7.174  38.106  1.00  0.00     0.006 A 
HETATM    4  C2  UNK     1      29.333  -5.783  38.025  1.00  0.00     0.099 A 
HETATM    5  C3  UNK     1      30.428  -4.998  37.656  1.00  0.00     0.007 A 
HETATM    6  C4  UNK     1      31.637  -5.619  37.358  1.00  0.00     0.091 A 
HETATM    7  C5  UNK     1      31.739  -7.007  37.431  1.00  0.00     0.044 A 
HETATM    8  C6  UNK     1      30.632  -7.780  37.802  1.00  0.00     0.032 A 
HETATM    9  C7  UNK     1      28.204  -7.920  38.502  1.00  0.00    -0.043 A 
HETATM   10  C8  UNK     1      30.307  -3.511  37.581  1.00  0.00     0.054 C 
HETATM   11  C9  UNK     1      27.079  -7.242  38.771  1.00  0.00     0.090 A 
HETATM   12  C11 UNK     1      28.249  -9.416  38.599  1.00  0.00     0.049 C 
HETATM   13  C12 UNK     1      26.986  -5.775  38.689  1.00  0.00     0.288 A 
ENDROOT
BRANCH   6  14
HETATM   14  O2  UNK     1      32.717  -4.870  36.996  1.00  0.00    -0.346 OA
BRANCH  14  15
HETATM   15  C13 UNK     1      32.841  -4.538  35.615  1.00  0.00     0.202 C 
BRANCH  15  16
HETATM   16  C15 UNK     1      34.288  -4.368  35.290  1.00  0.00    -0.011 C 
HETATM   17  C16 UNK     1      35.124  -5.384  35.051  1.00  0.00     0.009 C 
ENDBRANCH  15  16
ENDBRANCH  14  15
ENDBRANCH   6  14
BRANCH   7  18
HETATM   18  C10 UNK     1      32.995  -7.678  37.123  1.00  0.00     0.158 C 
HETATM   19  O3  UNK     1      33.975  -7.615  37.879  1.00  0.00    -0.293 OA
HETATM   20  C14 UNK     1      33.133  -8.486  35.846  1.00  0.00     0.097 C 
ENDBRANCH   7  18
TORSDOF 4
ENDMDL
MODEL 10
REMARK VINA RESULT:      -6.5      6.293      9.741
REMARK  4 active torsions:
REMARK  status: ('A' for Active; 'I' for Inactive)
REMARK    1  A    between atoms: C13_17  and  O2_2 
REMARK    2  A    between atoms: C4_8  and  O2_2 
REMARK    3  A    between atoms: C10_14  and  C5_9 
REMARK    4  A    between atoms: C13_17  and  C15_19 
ROOT
HETATM    1  O1  UNK     1      16.401   6.068  32.500  1.00  0.00    -0.274 OA
HETATM    2  O4  UNK     1      17.607   4.231  31.866  1.00  0.00    -0.260 OA
HETATM    3  C1  UNK     1      17.558   7.961  33.522  1.00  0.00     0.006 A 
HETATM    4  C2  UNK     1      16.384   7.355  33.072  1.00  0.00     0.099 A 
HETATM    5  C3  UNK     1      15.140   7.982  33.160  1.00  0.00     0.007 A 
HETATM    6  C4  UNK     1      15.059   9.256  33.716  1.00  0.00     0.091 A 
HETATM    7  C5  UNK     1      16.215   9.885  34.174  1.00  0.00     0.044 A 
HETATM    8  C6  UNK     1      17.456   9.243  34.079  1.00  0.00     0.032 A 
HETATM    9  C7  UNK     1      18.823   7.228  33.390  1.00  0.00    -0.043 A 
HETATM   10  C8  UNK     1      13.906   7.299  32.666  1.00  0.00     0.054 C 
HETATM   11  C9  UNK     1      18.810   6.004  32.842  1.00  0.00     0.090 A 
HETATM   12  C11 UNK     1      20.103   7.851  33.865  1.00  0.00     0.049 C 
HETATM   13  C12 UNK     1      17.581   5.352  32.361  1.00  0.00     0.288 A 
ENDROOT
BRANCH   6  14
HETATM   14  O2  UNK     1      13.853   9.884  33.811  1.00  0.00    -0.346 OA
BRANCH  14  15
HETATM   15  C13 UNK     1      13.533  10.827  32.790  1.00  0.00     0.202 C 
BRANCH  15  16
HETATM   16  C15 UNK     1      12.553  11.812  33.336  1.00  0.00    -0.011 C 
HETATM   17  C16 UNK     1      12.513  12.193  34.617  1.00  0.00     0.009 C 
ENDBRANCH  15  16
ENDBRANCH  14  15
ENDBRANCH   6  14
BRANCH   7  18
HETATM   18  C10 UNK     1      16.156  11.218  34.759  1.00  0.00     0.158 C 
HETATM   19  O3  UNK     1      15.656  11.424  35.874  1.00  0.00    -0.293 OA
HETATM   20  C14 UNK     1      16.716  12.407  34.001  1.00  0.00     0.097 C 
ENDBRANCH   7  18
TORSDOF 4
ENDMDL
