MODEL 1
REMARK VINA RESULT:      -8.9      0.000      0.000
REMARK  3 active torsions:
REMARK  status: ('A' for Active; 'I' for Inactive)
REMARK    1  A    between atoms: C11_13  and  C9_11 
REMARK    2  A    between atoms: C11_13  and  C12_14 
REMARK    3  A    between atoms: C13_15  and  C14_16 
ROOT
HETATM    1  O1  UNK     1      17.816   5.389  33.975  1.00  0.00    -0.351 OA
HETATM    2  C1  UNK     1      18.776   8.323  33.806  1.00  0.00     0.007 C 
HETATM    3  C2  UNK     1      19.903   7.356  33.446  1.00  0.00     0.041 C 
HETATM    4  C3  UNK     1      17.708   7.712  34.715  1.00  0.00     0.027 C 
HETATM    5  C4  UNK     1      19.487   6.284  32.472  1.00  0.00    -0.025 A 
HETATM    6  C5  UNK     1      16.975   6.543  34.073  1.00  0.00     0.175 C 
HETATM    7  C6  UNK     1      18.482   5.358  32.778  1.00  0.00     0.075 A 
HETATM    8  C7  UNK     1      20.146   6.167  31.239  1.00  0.00     0.011 A 
HETATM    9  C8  UNK     1      18.164   4.320  31.898  1.00  0.00     0.052 A 
HETATM   10  C9  UNK     1      18.826   4.221  30.676  1.00  0.00     0.017 A 
HETATM   11  C10 UNK     1      19.813   5.146  30.345  1.00  0.00     0.016 A 
ENDROOT
BRANCH  10  12
HETATM   12  C11 UNK     1      18.491   3.150  29.751  1.00  0.00     0.182 C 
HETATM   13  O2  UNK     1      18.034   3.402  28.626  1.00  0.00    -0.288 OA
BRANCH  12  14
HETATM   14  C12 UNK     1      18.679   1.728  30.197  1.00  0.00     0.056 C 
HETATM   15  C13 UNK     1      19.844   1.096  29.991  1.00  0.00     0.015 C 
BRANCH  15  16
HETATM   16  C14 UNK     1      20.118  -0.299  30.378  1.00  0.00    -0.036 A 
HETATM   17  C16 UNK     1      20.610  -1.183  29.431  1.00  0.00     0.011 A 
HETATM   18  C18 UNK     1      20.869  -2.503  29.797  1.00  0.00     0.001 A 
HETATM   19  C19 UNK     1      20.632  -2.922  31.106  1.00  0.00     0.000 A 
HETATM   20  C17 UNK     1      20.137  -2.022  32.049  1.00  0.00     0.001 A 
HETATM   21  C15 UNK     1      19.878  -0.700  31.682  1.00  0.00     0.011 A 
ENDBRANCH  15  16
ENDBRANCH  12  14
ENDBRANCH  10  12
TORSDOF 3
ENDMDL
MODEL 2
REMARK VINA RESULT:      -8.7      1.756      7.486
REMARK  3 active torsions:
REMARK  status: ('A' for Active; 'I' for Inactive)
REMARK    1  A    between atoms: C11_13  and  C9_11 
REMARK    2  A    between atoms: C11_13  and  C12_14 
REMARK    3  A    between atoms: C13_15  and  C14_16 
ROOT
HETATM    1  O1  UNK     1      18.627  -1.247  32.785  1.00  0.00    -0.351 OA
HETATM    2  C1  UNK     1      21.302  -2.786  32.592  1.00  0.00     0.007 C 
HETATM    3  C2  UNK     1      20.610  -2.716  31.231  1.00  0.00     0.041 C 
HETATM    4  C3  UNK     1      20.341  -2.674  33.777  1.00  0.00     0.027 C 
HETATM    5  C4  UNK     1      20.115  -1.337  30.879  1.00  0.00    -0.025 A 
HETATM    6  C5  UNK     1      19.605  -1.342  33.826  1.00  0.00     0.175 C 
HETATM    7  C6  UNK     1      19.155  -0.677  31.656  1.00  0.00     0.075 A 
HETATM    8  C7  UNK     1      20.583  -0.702  29.718  1.00  0.00     0.011 A 
HETATM    9  C8  UNK     1      18.646   0.566  31.271  1.00  0.00     0.052 A 
HETATM   10  C9  UNK     1      19.123   1.184  30.118  1.00  0.00     0.017 A 
HETATM   11  C10 UNK     1      20.095   0.552  29.345  1.00  0.00     0.016 A 
ENDROOT
BRANCH  10  12
HETATM   12  C11 UNK     1      18.606   2.483  29.720  1.00  0.00     0.182 C 
HETATM   13  O2  UNK     1      18.307   2.713  28.538  1.00  0.00    -0.288 OA
BRANCH  12  14
HETATM   14  C12 UNK     1      18.468   3.555  30.764  1.00  0.00     0.056 C 
HETATM   15  C13 UNK     1      19.060   4.747  30.602  1.00  0.00     0.015 C 
BRANCH  15  16
HETATM   16  C14 UNK     1      18.995   5.852  31.575  1.00  0.00    -0.036 A 
HETATM   17  C16 UNK     1      17.840   6.612  31.661  1.00  0.00     0.011 A 
HETATM   18  C18 UNK     1      17.778   7.657  32.583  1.00  0.00     0.001 A 
HETATM   19  C19 UNK     1      18.871   7.928  33.406  1.00  0.00     0.000 A 
HETATM   20  C17 UNK     1      20.027   7.153  33.307  1.00  0.00     0.001 A 
HETATM   21  C15 UNK     1      20.089   6.107  32.386  1.00  0.00     0.011 A 
ENDBRANCH  15  16
ENDBRANCH  12  14
ENDBRANCH  10  12
TORSDOF 3
ENDMDL
MODEL 3
REMARK VINA RESULT:      -8.3     22.281     24.400
REMARK  3 active torsions:
REMARK  status: ('A' for Active; 'I' for Inactive)
REMARK    1  A    between atoms: C11_13  and  C9_11 
REMARK    2  A    between atoms: C11_13  and  C12_14 
REMARK    3  A    between atoms: C13_15  and  C14_16 
ROOT
HETATM    1  O1  UNK     1      14.947  10.473   9.014  1.00  0.00    -0.351 OA
HETATM    2  C1  UNK     1      17.908  11.179   8.469  1.00  0.00     0.007 C 
HETATM    3  C2  UNK     1      17.751  10.479   9.818  1.00  0.00     0.041 C 
HETATM    4  C3  UNK     1      16.645  11.905   8.002  1.00  0.00     0.027 C 
HETATM    5  C4  UNK     1      16.893   9.241   9.757  1.00  0.00    -0.025 A 
HETATM    6  C5  UNK     1      15.466  10.968   7.776  1.00  0.00     0.175 C 
HETATM    7  C6  UNK     1      15.547   9.294   9.370  1.00  0.00     0.075 A 
HETATM    8  C7  UNK     1      17.427   8.001  10.139  1.00  0.00     0.011 A 
HETATM    9  C8  UNK     1      14.743   8.151   9.397  1.00  0.00     0.052 A 
HETATM   10  C9  UNK     1      15.291   6.928   9.776  1.00  0.00     0.017 A 
HETATM   11  C10 UNK     1      16.632   6.852  10.142  1.00  0.00     0.016 A 
ENDROOT
BRANCH  10  12
HETATM   12  C11 UNK     1      14.461   5.733   9.794  1.00  0.00     0.182 C 
HETATM   13  O2  UNK     1      14.934   4.637  10.130  1.00  0.00    -0.288 OA
BRANCH  12  14
HETATM   14  C12 UNK     1      13.025   5.847   9.366  1.00  0.00     0.056 C 
HETATM   15  C13 UNK     1      12.697   5.833   8.066  1.00  0.00     0.015 C 
BRANCH  15  16
HETATM   16  C14 UNK     1      11.321   5.954   7.552  1.00  0.00    -0.036 A 
HETATM   17  C16 UNK     1      10.258   5.917   8.440  1.00  0.00     0.011 A 
HETATM   18  C18 UNK     1       8.956   6.031   7.953  1.00  0.00     0.001 A 
HETATM   19  C19 UNK     1       8.735   6.181   6.584  1.00  0.00     0.000 A 
HETATM   20  C17 UNK     1       9.814   6.217   5.702  1.00  0.00     0.001 A 
HETATM   21  C15 UNK     1      11.117   6.103   6.190  1.00  0.00     0.011 A 
ENDBRANCH  15  16
ENDBRANCH  12  14
ENDBRANCH  10  12
TORSDOF 3
ENDMDL
MODEL 4
REMARK VINA RESULT:      -8.1      3.416      4.450
REMARK  3 active torsions:
REMARK  status: ('A' for Active; 'I' for Inactive)
REMARK    1  A    between atoms: C11_13  and  C9_11 
REMARK    2  A    between atoms: C11_13  and  C12_14 
REMARK    3  A    between atoms: C13_15  and  C14_16 
ROOT
HETATM    1  O1  UNK     1      16.903   8.524  34.956  1.00  0.00    -0.351 OA
HETATM    2  C1  UNK     1      18.715  10.725  33.760  1.00  0.00     0.007 C 
HETATM    3  C2  UNK     1      19.544   9.674  34.499  1.00  0.00     0.041 C 
HETATM    4  C3  UNK     1      17.274  10.833  34.259  1.00  0.00     0.027 C 
HETATM    5  C4  UNK     1      19.169   8.257  34.148  1.00  0.00    -0.025 A 
HETATM    6  C5  UNK     1      16.474   9.553  34.059  1.00  0.00     0.175 C 
HETATM    7  C6  UNK     1      17.886   7.751  34.396  1.00  0.00     0.075 A 
HETATM    8  C7  UNK     1      20.130   7.394  33.603  1.00  0.00     0.011 A 
HETATM    9  C8  UNK     1      17.577   6.412  34.141  1.00  0.00     0.052 A 
HETATM   10  C9  UNK     1      18.543   5.570  33.596  1.00  0.00     0.017 A 
HETATM   11  C10 UNK     1      19.817   6.062  33.323  1.00  0.00     0.016 A 
ENDROOT
BRANCH  10  12
HETATM   12  C11 UNK     1      18.223   4.179  33.317  1.00  0.00     0.182 C 
HETATM   13  O2  UNK     1      17.832   3.830  32.193  1.00  0.00    -0.288 OA
BRANCH  12  14
HETATM   14  C12 UNK     1      18.347   3.175  34.429  1.00  0.00     0.056 C 
HETATM   15  C13 UNK     1      17.942   1.909  34.253  1.00  0.00     0.015 C 
BRANCH  15  16
HETATM   16  C14 UNK     1      18.009   0.860  35.286  1.00  0.00    -0.036 A 
HETATM   17  C16 UNK     1      17.630   1.161  36.584  1.00  0.00     0.011 A 
HETATM   18  C18 UNK     1      17.693   0.168  37.561  1.00  0.00     0.001 A 
HETATM   19  C19 UNK     1      18.134  -1.113  37.227  1.00  0.00     0.000 A 
HETATM   20  C17 UNK     1      18.512  -1.401  35.916  1.00  0.00     0.001 A 
HETATM   21  C15 UNK     1      18.448  -0.407  34.938  1.00  0.00     0.011 A 
ENDBRANCH  15  16
ENDBRANCH  12  14
ENDBRANCH  10  12
TORSDOF 3
ENDMDL
MODEL 5
REMARK VINA RESULT:      -8.0      5.942     10.506
REMARK  3 active torsions:
REMARK  status: ('A' for Active; 'I' for Inactive)
REMARK    1  A    between atoms: C11_13  and  C9_11 
REMARK    2  A    between atoms: C11_13  and  C12_14 
REMARK    3  A    between atoms: C13_15  and  C14_16 
ROOT
HETATM    1  O1  UNK     1      19.685  -7.466  35.604  1.00  0.00    -0.351 OA
HETATM    2  C1  UNK     1      20.116  -8.499  38.486  1.00  0.00     0.007 C 
HETATM    3  C2  UNK     1      21.277  -7.608  38.043  1.00  0.00     0.041 C 
HETATM    4  C3  UNK     1      19.378  -9.168  37.326  1.00  0.00     0.027 C 
HETATM    5  C4  UNK     1      20.834  -6.320  37.399  1.00  0.00    -0.025 A 
HETATM    6  C5  UNK     1      18.715  -8.171  36.385  1.00  0.00     0.175 C 
HETATM    7  C6  UNK     1      20.075  -6.307  36.221  1.00  0.00     0.075 A 
HETATM    8  C7  UNK     1      21.222  -5.091  37.954  1.00  0.00     0.011 A 
HETATM    9  C8  UNK     1      19.741  -5.105  35.591  1.00  0.00     0.052 A 
HETATM   10  C9  UNK     1      20.133  -3.894  36.157  1.00  0.00     0.017 A 
HETATM   11  C10 UNK     1      20.868  -3.887  37.340  1.00  0.00     0.016 A 
ENDROOT
BRANCH  10  12
HETATM   12  C11 UNK     1      19.778  -2.640  35.512  1.00  0.00     0.182 C 
HETATM   13  O2  UNK     1      19.124  -1.776  36.117  1.00  0.00    -0.288 OA
BRANCH  12  14
HETATM   14  C12 UNK     1      20.192  -2.422  34.085  1.00  0.00     0.056 C 
HETATM   15  C13 UNK     1      19.468  -1.634  33.276  1.00  0.00     0.015 C 
BRANCH  15  16
HETATM   16  C14 UNK     1      19.786  -1.373  31.861  1.00  0.00    -0.036 A 
HETATM   17  C16 UNK     1      20.353  -2.379  31.096  1.00  0.00     0.011 A 
HETATM   18  C18 UNK     1      20.654  -2.132  29.756  1.00  0.00     0.001 A 
HETATM   19  C19 UNK     1      20.383  -0.881  29.201  1.00  0.00     0.000 A 
HETATM   20  C17 UNK     1      19.812   0.122  29.983  1.00  0.00     0.001 A 
HETATM   21  C15 UNK     1      19.511  -0.126  31.323  1.00  0.00     0.011 A 
ENDBRANCH  15  16
ENDBRANCH  12  14
ENDBRANCH  10  12
TORSDOF 3
ENDMDL
MODEL 6
REMARK VINA RESULT:      -8.0      7.738     12.237
REMARK  3 active torsions:
REMARK  status: ('A' for Active; 'I' for Inactive)
REMARK    1  A    between atoms: C11_13  and  C9_11 
REMARK    2  A    between atoms: C11_13  and  C12_14 
REMARK    3  A    between atoms: C13_15  and  C14_16 
ROOT
HETATM    1  O1  UNK     1      20.035  -8.936  36.466  1.00  0.00    -0.351 OA
HETATM    2  C1  UNK     1      19.916  -9.628  39.477  1.00  0.00     0.007 C 
HETATM    3  C2  UNK     1      21.117  -8.735  39.167  1.00  0.00     0.041 C 
HETATM    4  C3  UNK     1      19.438 -10.454  38.282  1.00  0.00     0.027 C 
HETATM    5  C4  UNK     1      20.777  -7.547  38.304  1.00  0.00    -0.025 A 
HETATM    6  C5  UNK     1      18.948  -9.598  37.122  1.00  0.00     0.175 C 
HETATM    7  C6  UNK     1      20.265  -7.699  37.008  1.00  0.00     0.075 A 
HETATM    8  C7  UNK     1      21.016  -6.249  38.777  1.00  0.00     0.011 A 
HETATM    9  C8  UNK     1      20.031  -6.590  36.191  1.00  0.00     0.052 A 
HETATM   10  C9  UNK     1      20.272  -5.307  36.677  1.00  0.00     0.017 A 
HETATM   11  C10 UNK     1      20.759  -5.137  37.971  1.00  0.00     0.016 A 
ENDROOT
BRANCH  10  12
HETATM   12  C11 UNK     1      20.019  -4.150  35.835  1.00  0.00     0.182 C 
HETATM   13  O2  UNK     1      20.347  -4.150  34.639  1.00  0.00    -0.288 OA
BRANCH  12  14
HETATM   14  C12 UNK     1      19.378  -2.938  36.449  1.00  0.00     0.056 C 
HETATM   15  C13 UNK     1      19.228  -1.810  35.739  1.00  0.00     0.015 C 
BRANCH  15  16
HETATM   16  C14 UNK     1      18.627  -0.569  36.259  1.00  0.00    -0.036 A 
HETATM   17  C16 UNK     1      18.659   0.578  35.483  1.00  0.00     0.011 A 
HETATM   18  C18 UNK     1      18.090   1.752  35.975  1.00  0.00     0.001 A 
HETATM   19  C19 UNK     1      17.495   1.763  37.237  1.00  0.00     0.000 A 
HETATM   20  C17 UNK     1      17.470   0.601  38.006  1.00  0.00     0.001 A 
HETATM   21  C15 UNK     1      18.039  -0.574  37.514  1.00  0.00     0.011 A 
ENDBRANCH  15  16
ENDBRANCH  12  14
ENDBRANCH  10  12
TORSDOF 3
ENDMDL
MODEL 7
REMARK VINA RESULT:      -7.9      1.820      8.149
REMARK  3 active torsions:
REMARK  status: ('A' for Active; 'I' for Inactive)
REMARK    1  A    between atoms: C11_13  and  C9_11 
REMARK    2  A    between atoms: C11_13  and  C12_14 
REMARK    3  A    between atoms: C13_15  and  C14_16 
ROOT
HETATM    1  O1  UNK     1      19.185  -0.803  31.423  1.00  0.00    -0.351 OA
HETATM    2  C1  UNK     1      20.544  -0.517  28.660  1.00  0.00     0.007 C 
HETATM    3  C2  UNK     1      19.194   0.200  28.684  1.00  0.00     0.041 C 
HETATM    4  C3  UNK     1      20.651  -1.660  29.670  1.00  0.00     0.027 C 
HETATM    5  C4  UNK     1      18.995   1.068  29.900  1.00  0.00    -0.025 A 
HETATM    6  C5  UNK     1      20.526  -1.196  31.115  1.00  0.00     0.175 C 
HETATM    7  C6  UNK     1      18.993   0.534  31.195  1.00  0.00     0.075 A 
HETATM    8  C7  UNK     1      18.758   2.442  29.746  1.00  0.00     0.011 A 
HETATM    9  C8  UNK     1      18.726   1.339  32.307  1.00  0.00     0.052 A 
HETATM   10  C9  UNK     1      18.496   2.702  32.136  1.00  0.00     0.017 A 
HETATM   11  C10 UNK     1      18.517   3.254  30.857  1.00  0.00     0.016 A 
ENDROOT
BRANCH  10  12
HETATM   12  C11 UNK     1      18.230   3.545  33.290  1.00  0.00     0.182 C 
HETATM   13  O2  UNK     1      17.996   3.046  34.402  1.00  0.00    -0.288 OA
BRANCH  12  14
HETATM   14  C12 UNK     1      18.214   5.036  33.104  1.00  0.00     0.056 C 
HETATM   15  C13 UNK     1      18.460   5.856  34.137  1.00  0.00     0.015 C 
BRANCH  15  16
HETATM   16  C14 UNK     1      18.451   7.327  34.055  1.00  0.00    -0.036 A 
HETATM   17  C16 UNK     1      19.604   8.031  34.364  1.00  0.00     0.011 A 
HETATM   18  C18 UNK     1      19.596   9.423  34.287  1.00  0.00     0.001 A 
HETATM   19  C19 UNK     1      18.435  10.094  33.901  1.00  0.00     0.000 A 
HETATM   20  C17 UNK     1      17.282   9.372  33.593  1.00  0.00     0.001 A 
HETATM   21  C15 UNK     1      17.290   7.978  33.670  1.00  0.00     0.011 A 
ENDBRANCH  15  16
ENDBRANCH  12  14
ENDBRANCH  10  12
TORSDOF 3
ENDMDL
MODEL 8
REMARK VINA RESULT:      -7.9      7.589     11.935
REMARK  3 active torsions:
REMARK  status: ('A' for Active; 'I' for Inactive)
REMARK    1  A    between atoms: C11_13  and  C9_11 
REMARK    2  A    between atoms: C11_13  and  C12_14 
REMARK    3  A    between atoms: C13_15  and  C14_16 
ROOT
HETATM    1  O1  UNK     1      22.127  -6.260  39.435  1.00  0.00    -0.351 OA
HETATM    2  C1  UNK     1      21.094  -9.173  39.532  1.00  0.00     0.007 C 
HETATM    3  C2  UNK     1      19.937  -8.178  39.607  1.00  0.00     0.041 C 
HETATM    4  C3  UNK     1      22.424  -8.607  40.033  1.00  0.00     0.027 C 
HETATM    5  C4  UNK     1      20.018  -7.081  38.577  1.00  0.00    -0.025 A 
HETATM    6  C5  UNK     1      22.921  -7.428  39.208  1.00  0.00     0.175 C 
HETATM    7  C6  UNK     1      21.091  -6.180  38.542  1.00  0.00     0.075 A 
HETATM    8  C7  UNK     1      18.979  -6.914  37.650  1.00  0.00     0.011 A 
HETATM    9  C8  UNK     1      21.112  -5.119  37.633  1.00  0.00     0.052 A 
HETATM   10  C9  UNK     1      20.073  -4.969  36.718  1.00  0.00     0.017 A 
HETATM   11  C10 UNK     1      19.010  -5.869  36.723  1.00  0.00     0.016 A 
ENDROOT
BRANCH  10  12
HETATM   12  C11 UNK     1      20.096  -3.874  35.762  1.00  0.00     0.182 C 
HETATM   13  O2  UNK     1      20.359  -4.078  34.567  1.00  0.00    -0.288 OA
BRANCH  12  14
HETATM   14  C12 UNK     1      19.826  -2.481  36.256  1.00  0.00     0.056 C 
HETATM   15  C13 UNK     1      18.701  -1.839  35.907  1.00  0.00     0.015 C 
BRANCH  15  16
HETATM   16  C14 UNK     1      18.356  -0.470  36.329  1.00  0.00    -0.036 A 
HETATM   17  C16 UNK     1      18.670   0.595  35.500  1.00  0.00     0.011 A 
HETATM   18  C18 UNK     1      18.344   1.891  35.899  1.00  0.00     0.001 A 
HETATM   19  C19 UNK     1      17.707   2.105  37.121  1.00  0.00     0.000 A 
HETATM   20  C17 UNK     1      17.397   1.023  37.945  1.00  0.00     0.001 A 
HETATM   21  C15 UNK     1      17.724  -0.274  37.546  1.00  0.00     0.011 A 
ENDBRANCH  15  16
ENDBRANCH  12  14
ENDBRANCH  10  12
TORSDOF 3
ENDMDL
MODEL 9
REMARK VINA RESULT:      -7.8     22.491     24.568
REMARK  3 active torsions:
REMARK  status: ('A' for Active; 'I' for Inactive)
REMARK    1  A    between atoms: C11_13  and  C9_11 
REMARK    2  A    between atoms: C11_13  and  C12_14 
REMARK    3  A    between atoms: C13_15  and  C14_16 
ROOT
HETATM    1  O1  UNK     1      15.143  11.279   8.642  1.00  0.00    -0.351 OA
HETATM    2  C1  UNK     1      18.165  11.593   8.071  1.00  0.00     0.007 C 
HETATM    3  C2  UNK     1      17.927  11.051   9.480  1.00  0.00     0.041 C 
HETATM    4  C3  UNK     1      16.993  12.406   7.519  1.00  0.00     0.027 C 
HETATM    5  C4  UNK     1      16.936   9.917   9.529  1.00  0.00    -0.025 A 
HETATM    6  C5  UNK     1      15.717  11.589   7.369  1.00  0.00     0.175 C 
HETATM    7  C6  UNK     1      15.606  10.081   9.120  1.00  0.00     0.075 A 
HETATM    8  C7  UNK     1      17.326   8.669  10.037  1.00  0.00     0.011 A 
HETATM    9  C8  UNK     1      14.679   9.043   9.247  1.00  0.00     0.052 A 
HETATM   10  C9  UNK     1      15.084   7.810   9.752  1.00  0.00     0.017 A 
HETATM   11  C10 UNK     1      16.408   7.622  10.142  1.00  0.00     0.016 A 
ENDROOT
BRANCH  10  12
HETATM   12  C11 UNK     1      14.126   6.723   9.875  1.00  0.00     0.182 C 
HETATM   13  O2  UNK     1      14.436   5.664  10.441  1.00  0.00    -0.288 OA
BRANCH  12  14
HETATM   14  C12 UNK     1      12.759   6.896   9.274  1.00  0.00     0.056 C 
HETATM   15  C13 UNK     1      12.223   5.935   8.508  1.00  0.00     0.015 C 
BRANCH  15  16
HETATM   16  C14 UNK     1      10.900   6.020   7.866  1.00  0.00    -0.036 A 
HETATM   17  C16 UNK     1      10.821   6.247   6.501  1.00  0.00     0.011 A 
HETATM   18  C18 UNK     1       9.569   6.327   5.893  1.00  0.00     0.001 A 
HETATM   19  C19 UNK     1       8.411   6.179   6.658  1.00  0.00     0.000 A 
HETATM   20  C17 UNK     1       8.507   5.951   8.030  1.00  0.00     0.001 A 
HETATM   21  C15 UNK     1       9.760   5.870   8.639  1.00  0.00     0.011 A 
ENDBRANCH  15  16
ENDBRANCH  12  14
ENDBRANCH  10  12
TORSDOF 3
ENDMDL
MODEL 10
REMARK VINA RESULT:      -7.8      7.766     12.583
REMARK  3 active torsions:
REMARK  status: ('A' for Active; 'I' for Inactive)
REMARK    1  A    between atoms: C11_13  and  C9_11 
REMARK    2  A    between atoms: C11_13  and  C12_14 
REMARK    3  A    between atoms: C13_15  and  C14_16 
ROOT
HETATM    1  O1  UNK     1      21.748  -8.422  37.807  1.00  0.00    -0.351 OA
HETATM    2  C1  UNK     1      19.764 -10.652  37.000  1.00  0.00     0.007 C 
HETATM    3  C2  UNK     1      19.096  -9.629  37.918  1.00  0.00     0.041 C 
HETATM    4  C3  UNK     1      21.282 -10.731  37.170  1.00  0.00     0.027 C 
HETATM    5  C4  UNK     1      19.356  -8.200  37.517  1.00  0.00    -0.025 A 
HETATM    6  C5  UNK     1      21.992  -9.430  36.821  1.00  0.00     0.175 C 
HETATM    7  C6  UNK     1      20.651  -7.666  37.487  1.00  0.00     0.075 A 
HETATM    8  C7  UNK     1      18.280  -7.354  37.208  1.00  0.00     0.011 A 
HETATM    9  C8  UNK     1      20.869  -6.318  37.192  1.00  0.00     0.052 A 
HETATM   10  C9  UNK     1      19.790  -5.493  36.884  1.00  0.00     0.017 A 
HETATM   11  C10 UNK     1      18.497  -6.011  36.888  1.00  0.00     0.016 A 
ENDROOT
BRANCH  10  12
HETATM   12  C11 UNK     1      20.012  -4.091  36.565  1.00  0.00     0.182 C 
HETATM   13  O2  UNK     1      21.161  -3.649  36.413  1.00  0.00    -0.288 OA
BRANCH  12  14
HETATM   14  C12 UNK     1      18.823  -3.180  36.453  1.00  0.00     0.056 C 
HETATM   15  C13 UNK     1      18.951  -1.861  36.657  1.00  0.00     0.015 C 
BRANCH  15  16
HETATM   16  C14 UNK     1      17.842  -0.893  36.584  1.00  0.00    -0.036 A 
HETATM   17  C16 UNK     1      17.746   0.101  37.543  1.00  0.00     0.011 A 
HETATM   18  C18 UNK     1      16.697   1.018  37.474  1.00  0.00     0.001 A 
HETATM   19  C19 UNK     1      15.758   0.927  36.446  1.00  0.00     0.000 A 
HETATM   20  C17 UNK     1      15.869  -0.079  35.487  1.00  0.00     0.001 A 
HETATM   21  C15 UNK     1      16.919  -0.996  35.556  1.00  0.00     0.011 A 
ENDBRANCH  15  16
ENDBRANCH  12  14
ENDBRANCH  10  12
TORSDOF 3
ENDMDL
