MODEL 1
REMARK VINA RESULT:      -8.8      0.000      0.000
REMARK  6 active torsions:
REMARK  status: ('A' for Active; 'I' for Inactive)
REMARK    1  A    between atoms: C17_25  and  O3_3 
REMARK    2  A    between atoms: C18_26  and  O4_4 
REMARK    3  A    between atoms: C1_9  and  N1_8 
REMARK       I    between atoms: C10_18  and  N1_8 
REMARK    4  A    between atoms: C10_18  and  C3_11 
REMARK    5  A    between atoms: C18_26  and  C8_16 
REMARK    6  A    between atoms: C17_25  and  C9_17 
ROOT
HETATM    1  O2  UNK     1      19.202   5.826  33.138  1.00  0.00    -0.267 OA
HETATM    2  N1  UNK     1      17.398   4.615  32.229  1.00  0.00    -0.323 N 
HETATM    3  C10 UNK     1      18.051   5.741  32.714  1.00  0.00     0.262 C 
HETATM    4  H4  UNK     1      16.444   4.716  31.893  1.00  0.00     0.169 HD
ENDROOT
BRANCH   2   5
HETATM    5  C1  UNK     1      17.913   3.301  32.111  1.00  0.00     0.036 A 
HETATM    6  C6  UNK     1      18.336   2.848  30.873  1.00  0.00     0.047 A 
HETATM    7  C8  UNK     1      18.843   1.554  30.757  1.00  0.00     0.042 A 
HETATM    8  C11 UNK     1      18.920   0.732  31.881  1.00  0.00     0.035 A 
HETATM    9  C9  UNK     1      18.491   1.204  33.122  1.00  0.00     0.042 A 
HETATM   10  C7  UNK     1      17.983   2.498  33.237  1.00  0.00     0.047 A 
BRANCH   7  11
HETATM   11  C18 UNK     1      19.292   1.061  29.464  1.00  0.00     0.293 C 
HETATM   12  O7  UNK     1      18.707   1.271  28.394  1.00  0.00    -0.259 OA
BRANCH  11  13
HETATM   13  O4  UNK     1      20.446   0.335  29.576  1.00  0.00    -0.323 OA
HETATM   14  C20 UNK     1      20.489  -0.921  28.892  1.00  0.00     0.213 C 
ENDBRANCH  11  13
ENDBRANCH   7  11
BRANCH   9  15
HETATM   15  C17 UNK     1      18.571   0.347  34.294  1.00  0.00     0.293 C 
HETATM   16  O6  UNK     1      19.253   0.596  35.298  1.00  0.00    -0.259 OA
BRANCH  15  17
HETATM   17  O3  UNK     1      17.798  -0.773  34.153  1.00  0.00    -0.323 OA
HETATM   18  C19 UNK     1      16.512  -0.755  34.783  1.00  0.00     0.213 C 
ENDBRANCH  15  17
ENDBRANCH   9  15
ENDBRANCH   2   5
BRANCH   3  19
HETATM   19  C3  UNK     1      17.195   6.933  32.683  1.00  0.00     0.108 A 
HETATM   20  C13 UNK     1      16.826   7.603  31.416  1.00  0.00     0.304 A 
HETATM   21  O1  UNK     1      16.008   8.724  31.517  1.00  0.00    -0.274 OA
HETATM   22  O5  UNK     1      17.218   7.193  30.328  1.00  0.00    -0.259 OA
HETATM   23  C4  UNK     1      15.552   9.201  32.761  1.00  0.00     0.089 A 
HETATM   24  C14 UNK     1      14.736  10.332  32.762  1.00  0.00     0.038 A 
HETATM   25  C2  UNK     1      15.911   8.557  33.940  1.00  0.00    -0.001 A 
HETATM   26  C16 UNK     1      14.269  10.827  33.977  1.00  0.00     0.003 A 
HETATM   27  C15 UNK     1      14.619  10.194  35.171  1.00  0.00     0.001 A 
HETATM   28  C12 UNK     1      15.439   9.061  35.155  1.00  0.00     0.014 A 
HETATM   29  C5  UNK     1      16.765   7.381  33.868  1.00  0.00     0.037 A 
ENDBRANCH   3  19
TORSDOF 6
ENDMDL
MODEL 2
REMARK VINA RESULT:      -8.8      5.864     11.811
REMARK  6 active torsions:
REMARK  status: ('A' for Active; 'I' for Inactive)
REMARK    1  A    between atoms: C17_25  and  O3_3 
REMARK    2  A    between atoms: C18_26  and  O4_4 
REMARK    3  A    between atoms: C1_9  and  N1_8 
REMARK       I    between atoms: C10_18  and  N1_8 
REMARK    4  A    between atoms: C10_18  and  C3_11 
REMARK    5  A    between atoms: C18_26  and  C8_16 
REMARK    6  A    between atoms: C17_25  and  C9_17 
ROOT
HETATM    1  O2  UNK     1      20.741  -3.079  37.707  1.00  0.00    -0.267 OA
HETATM    2  N1  UNK     1      19.062  -3.231  36.062  1.00  0.00    -0.323 N 
HETATM    3  C10 UNK     1      20.008  -3.718  36.955  1.00  0.00     0.262 C 
HETATM    4  H4  UNK     1      18.517  -3.898  35.522  1.00  0.00     0.169 HD
ENDROOT
BRANCH   2   5
HETATM    5  C1  UNK     1      18.726  -1.877  35.813  1.00  0.00     0.036 A 
HETATM    6  C6  UNK     1      18.877  -1.367  34.536  1.00  0.00     0.047 A 
HETATM    7  C8  UNK     1      18.546  -0.033  34.290  1.00  0.00     0.042 A 
HETATM    8  C11 UNK     1      18.070   0.768  35.327  1.00  0.00     0.035 A 
HETATM    9  C9  UNK     1      17.923   0.238  36.609  1.00  0.00     0.042 A 
HETATM   10  C7  UNK     1      18.254  -1.095  36.854  1.00  0.00     0.047 A 
BRANCH   7  11
HETATM   11  C18 UNK     1      18.697   0.520  32.954  1.00  0.00     0.293 C 
HETATM   12  O7  UNK     1      18.228   1.606  32.589  1.00  0.00    -0.259 OA
BRANCH  11  13
HETATM   13  O4  UNK     1      19.424  -0.310  32.145  1.00  0.00    -0.323 OA
HETATM   14  C20 UNK     1      19.898   0.240  30.912  1.00  0.00     0.213 C 
ENDBRANCH  11  13
ENDBRANCH   7  11
BRANCH   9  15
HETATM   15  C17 UNK     1      17.426   1.074  37.690  1.00  0.00     0.293 C 
HETATM   16  O6  UNK     1      17.934   1.136  38.818  1.00  0.00    -0.259 OA
BRANCH  15  17
HETATM   17  O3  UNK     1      16.323   1.788  37.308  1.00  0.00    -0.323 OA
HETATM   18  C19 UNK     1      15.181   1.036  36.880  1.00  0.00     0.213 C 
ENDBRANCH  15  17
ENDBRANCH   9  15
ENDBRANCH   2   5
BRANCH   3  19
HETATM   19  C3  UNK     1      20.078  -5.184  36.940  1.00  0.00     0.108 A 
HETATM   20  C13 UNK     1      20.214  -5.951  35.682  1.00  0.00     0.304 A 
HETATM   21  O1  UNK     1      20.271  -7.338  35.798  1.00  0.00    -0.274 OA
HETATM   22  O5  UNK     1      20.276  -5.399  34.589  1.00  0.00    -0.259 OA
HETATM   23  C4  UNK     1      20.202  -7.981  37.048  1.00  0.00     0.089 A 
HETATM   24  C14 UNK     1      20.268  -9.374  37.064  1.00  0.00     0.038 A 
HETATM   25  C2  UNK     1      20.073  -7.241  38.219  1.00  0.00    -0.001 A 
HETATM   26  C16 UNK     1      20.202 -10.039  38.286  1.00  0.00     0.003 A 
HETATM   27  C15 UNK     1      20.073  -9.313  39.471  1.00  0.00     0.001 A 
HETATM   28  C12 UNK     1      20.008  -7.917  39.440  1.00  0.00     0.014 A 
HETATM   29  C5  UNK     1      20.012  -5.790  38.131  1.00  0.00     0.037 A 
ENDBRANCH   3  19
TORSDOF 6
ENDMDL
MODEL 3
REMARK VINA RESULT:      -8.8      5.861     12.267
REMARK  6 active torsions:
REMARK  status: ('A' for Active; 'I' for Inactive)
REMARK    1  A    between atoms: C17_25  and  O3_3 
REMARK    2  A    between atoms: C18_26  and  O4_4 
REMARK    3  A    between atoms: C1_9  and  N1_8 
REMARK       I    between atoms: C10_18  and  N1_8 
REMARK    4  A    between atoms: C10_18  and  C3_11 
REMARK    5  A    between atoms: C18_26  and  C8_16 
REMARK    6  A    between atoms: C17_25  and  C9_17 
ROOT
HETATM    1  O2  UNK     1      20.812  -3.043  37.630  1.00  0.00    -0.267 OA
HETATM    2  N1  UNK     1      19.035  -3.195  36.093  1.00  0.00    -0.323 N 
HETATM    3  C10 UNK     1      20.028  -3.683  36.931  1.00  0.00     0.262 C 
HETATM    4  H4  UNK     1      18.451  -3.862  35.595  1.00  0.00     0.169 HD
ENDROOT
BRANCH   2   5
HETATM    5  C1  UNK     1      18.698  -1.841  35.850  1.00  0.00     0.036 A 
HETATM    6  C6  UNK     1      18.219  -1.066  36.891  1.00  0.00     0.047 A 
HETATM    7  C8  UNK     1      17.886   0.268  36.652  1.00  0.00     0.042 A 
HETATM    8  C11 UNK     1      18.038   0.805  35.374  1.00  0.00     0.035 A 
HETATM    9  C9  UNK     1      18.522   0.010  34.335  1.00  0.00     0.042 A 
HETATM   10  C7  UNK     1      18.854  -1.323  34.575  1.00  0.00     0.047 A 
BRANCH   7  11
HETATM   11  C18 UNK     1      17.382   1.098  37.735  1.00  0.00     0.293 C 
HETATM   12  O7  UNK     1      17.914   1.195  38.848  1.00  0.00    -0.259 OA
BRANCH  11  13
HETATM   13  O4  UNK     1      16.243   1.763  37.370  1.00  0.00    -0.323 OA
HETATM   14  C20 UNK     1      15.174   0.972  36.840  1.00  0.00     0.213 C 
ENDBRANCH  11  13
ENDBRANCH   7  11
BRANCH   9  15
HETATM   15  C17 UNK     1      18.681   0.571  33.003  1.00  0.00     0.293 C 
HETATM   16  O6  UNK     1      18.198   1.651  32.636  1.00  0.00    -0.259 OA
BRANCH  15  17
HETATM   17  O3  UNK     1      19.431  -0.244  32.199  1.00  0.00    -0.323 OA
HETATM   18  C19 UNK     1      19.791   0.269  30.912  1.00  0.00     0.213 C 
ENDBRANCH  15  17
ENDBRANCH   9  15
ENDBRANCH   2   5
BRANCH   3  19
HETATM   19  C3  UNK     1      20.083  -5.150  36.929  1.00  0.00     0.108 A 
HETATM   20  C13 UNK     1      20.205  -5.929  35.677  1.00  0.00     0.304 A 
HETATM   21  O1  UNK     1      20.249  -7.315  35.804  1.00  0.00    -0.274 OA
HETATM   22  O5  UNK     1      20.268  -5.387  34.578  1.00  0.00    -0.259 OA
HETATM   23  C4  UNK     1      20.179  -7.947  37.061  1.00  0.00     0.089 A 
HETATM   24  C14 UNK     1      20.230  -9.341  37.088  1.00  0.00     0.038 A 
HETATM   25  C2  UNK     1      20.063  -7.196  38.225  1.00  0.00    -0.001 A 
HETATM   26  C16 UNK     1      20.163  -9.994  38.316  1.00  0.00     0.003 A 
HETATM   27  C15 UNK     1      20.046  -9.257  39.495  1.00  0.00     0.001 A 
HETATM   28  C12 UNK     1      19.996  -7.861  39.453  1.00  0.00     0.014 A 
HETATM   29  C5  UNK     1      20.016  -5.745  38.125  1.00  0.00     0.037 A 
ENDBRANCH   3  19
TORSDOF 6
ENDMDL
MODEL 4
REMARK VINA RESULT:      -8.7     14.779     19.166
REMARK  6 active torsions:
REMARK  status: ('A' for Active; 'I' for Inactive)
REMARK    1  A    between atoms: C17_25  and  O3_3 
REMARK    2  A    between atoms: C18_26  and  O4_4 
REMARK    3  A    between atoms: C1_9  and  N1_8 
REMARK       I    between atoms: C10_18  and  N1_8 
REMARK    4  A    between atoms: C10_18  and  C3_11 
REMARK    5  A    between atoms: C18_26  and  C8_16 
REMARK    6  A    between atoms: C17_25  and  C9_17 
ROOT
HETATM    1  O2  UNK     1      17.651  -2.313  16.109  1.00  0.00    -0.267 OA
HETATM    2  N1  UNK     1      19.744  -1.908  15.108  1.00  0.00    -0.323 N 
HETATM    3  C10 UNK     1      18.699  -1.681  15.994  1.00  0.00     0.262 C 
HETATM    4  H4  UNK     1      20.560  -1.303  15.155  1.00  0.00     0.169 HD
ENDROOT
BRANCH   2   5
HETATM    5  C1  UNK     1      19.838  -2.926  14.127  1.00  0.00     0.036 A 
HETATM    6  C6  UNK     1      20.316  -4.173  14.490  1.00  0.00     0.047 A 
HETATM    7  C8  UNK     1      20.410  -5.176  13.524  1.00  0.00     0.042 A 
HETATM    8  C11 UNK     1      20.024  -4.915  12.210  1.00  0.00     0.035 A 
HETATM    9  C9  UNK     1      19.543  -3.652  11.861  1.00  0.00     0.042 A 
HETATM   10  C7  UNK     1      19.450  -2.650  12.827  1.00  0.00     0.047 A 
BRANCH   7  11
HETATM   11  C18 UNK     1      20.909  -6.492  13.887  1.00  0.00     0.293 C 
HETATM   12  O7  UNK     1      21.674  -6.714  14.834  1.00  0.00    -0.259 OA
BRANCH  11  13
HETATM   13  O4  UNK     1      20.426  -7.461  13.051  1.00  0.00    -0.323 OA
HETATM   14  C20 UNK     1      21.288  -8.572  12.782  1.00  0.00     0.213 C 
ENDBRANCH  11  13
ENDBRANCH   7  11
BRANCH   9  15
HETATM   15  C17 UNK     1      19.141  -3.380  10.490  1.00  0.00     0.293 C 
HETATM   16  O6  UNK     1      19.770  -2.657   9.706  1.00  0.00    -0.259 OA
BRANCH  15  17
HETATM   17  O3  UNK     1      17.976  -4.024  10.170  1.00  0.00    -0.323 OA
HETATM   18  C19 UNK     1      17.952  -4.740   8.931  1.00  0.00     0.213 C 
ENDBRANCH  15  17
ENDBRANCH   9  15
ENDBRANCH   2   5
BRANCH   3  19
HETATM   19  C3  UNK     1      18.957  -0.530  16.869  1.00  0.00     0.108 A 
HETATM   20  C13 UNK     1      19.200   0.827  16.330  1.00  0.00     0.304 A 
HETATM   21  O1  UNK     1      19.431   1.837  17.260  1.00  0.00    -0.274 OA
HETATM   22  O5  UNK     1      19.197   1.057  15.125  1.00  0.00    -0.259 OA
HETATM   23  C4  UNK     1      19.435   1.583  18.645  1.00  0.00     0.089 A 
HETATM   24  C14 UNK     1      19.675   2.659  19.499  1.00  0.00     0.038 A 
HETATM   25  C2  UNK     1      19.205   0.301  19.130  1.00  0.00    -0.001 A 
HETATM   26  C16 UNK     1      19.686   2.440  20.874  1.00  0.00     0.003 A 
HETATM   27  C15 UNK     1      19.457   1.159  21.380  1.00  0.00     0.001 A 
HETATM   28  C12 UNK     1      19.217   0.090  20.512  1.00  0.00     0.014 A 
HETATM   29  C5  UNK     1      18.959  -0.777  18.184  1.00  0.00     0.037 A 
ENDBRANCH   3  19
TORSDOF 6
ENDMDL
MODEL 5
REMARK VINA RESULT:      -8.7      2.037      8.987
REMARK  6 active torsions:
REMARK  status: ('A' for Active; 'I' for Inactive)
REMARK    1  A    between atoms: C17_25  and  O3_3 
REMARK    2  A    between atoms: C18_26  and  O4_4 
REMARK    3  A    between atoms: C1_9  and  N1_8 
REMARK       I    between atoms: C10_18  and  N1_8 
REMARK    4  A    between atoms: C10_18  and  C3_11 
REMARK    5  A    between atoms: C18_26  and  C8_16 
REMARK    6  A    between atoms: C17_25  and  C9_17 
ROOT
HETATM    1  O2  UNK     1      18.471   4.673  30.326  1.00  0.00    -0.267 OA
HETATM    2  N1  UNK     1      17.829   4.586  32.590  1.00  0.00    -0.323 N 
HETATM    3  C10 UNK     1      18.305   4.077  31.389  1.00  0.00     0.262 C 
HETATM    4  H4  UNK     1      17.770   3.961  33.391  1.00  0.00     0.169 HD
ENDROOT
BRANCH   2   5
HETATM    5  C1  UNK     1      17.423   5.914  32.866  1.00  0.00     0.036 A 
HETATM    6  C6  UNK     1      16.083   6.248  32.764  1.00  0.00     0.047 A 
HETATM    7  C8  UNK     1      15.683   7.557  33.035  1.00  0.00     0.042 A 
HETATM    8  C11 UNK     1      16.630   8.512  33.403  1.00  0.00     0.035 A 
HETATM    9  C9  UNK     1      17.976   8.159  33.502  1.00  0.00     0.042 A 
HETATM   10  C7  UNK     1      18.375   6.851  33.231  1.00  0.00     0.047 A 
BRANCH   7  11
HETATM   11  C18 UNK     1      14.280   7.925  32.934  1.00  0.00     0.293 C 
HETATM   12  O7  UNK     1      13.449   7.329  32.235  1.00  0.00    -0.259 OA
BRANCH  11  13
HETATM   13  O4  UNK     1      13.989   9.014  33.708  1.00  0.00    -0.323 OA
HETATM   14  C20 UNK     1      13.640  10.221  33.022  1.00  0.00     0.213 C 
ENDBRANCH  11  13
ENDBRANCH   7  11
BRANCH   9  15
HETATM   15  C17 UNK     1      18.963   9.156  33.887  1.00  0.00     0.293 C 
HETATM   16  O6  UNK     1      19.965   8.920  34.575  1.00  0.00    -0.259 OA
BRANCH  15  17
HETATM   17  O3  UNK     1      18.649  10.393  33.393  1.00  0.00    -0.323 OA
HETATM   18  C19 UNK     1      18.535  11.459  34.342  1.00  0.00     0.213 C 
ENDBRANCH  15  17
ENDBRANCH   9  15
ENDBRANCH   2   5
BRANCH   3  19
HETATM   19  C3  UNK     1      18.629   2.648  31.483  1.00  0.00     0.108 A 
HETATM   20  C13 UNK     1      18.380   1.866  32.714  1.00  0.00     0.304 A 
HETATM   21  O1  UNK     1      18.728   0.518  32.679  1.00  0.00    -0.274 OA
HETATM   22  O5  UNK     1      17.890   2.373  33.717  1.00  0.00    -0.259 OA
HETATM   23  C4  UNK     1      19.290  -0.074  31.531  1.00  0.00     0.089 A 
HETATM   24  C14 UNK     1      19.606  -1.431  31.592  1.00  0.00     0.038 A 
HETATM   25  C2  UNK     1      19.516   0.680  30.385  1.00  0.00    -0.001 A 
HETATM   26  C16 UNK     1      20.163  -2.045  30.473  1.00  0.00     0.003 A 
HETATM   27  C15 UNK     1      20.397  -1.303  29.313  1.00  0.00     0.001 A 
HETATM   28  C12 UNK     1      20.075   0.056  29.267  1.00  0.00     0.014 A 
HETATM   29  C5  UNK     1      19.162   2.091  30.389  1.00  0.00     0.037 A 
ENDBRANCH   3  19
TORSDOF 6
ENDMDL
MODEL 6
REMARK VINA RESULT:      -8.7      2.035      8.959
REMARK  6 active torsions:
REMARK  status: ('A' for Active; 'I' for Inactive)
REMARK    1  A    between atoms: C17_25  and  O3_3 
REMARK    2  A    between atoms: C18_26  and  O4_4 
REMARK    3  A    between atoms: C1_9  and  N1_8 
REMARK       I    between atoms: C10_18  and  N1_8 
REMARK    4  A    between atoms: C10_18  and  C3_11 
REMARK    5  A    between atoms: C18_26  and  C8_16 
REMARK    6  A    between atoms: C17_25  and  C9_17 
ROOT
HETATM    1  O2  UNK     1      18.408   4.617  30.309  1.00  0.00    -0.267 OA
HETATM    2  N1  UNK     1      17.843   4.555  32.595  1.00  0.00    -0.323 N 
HETATM    3  C10 UNK     1      18.282   4.034  31.385  1.00  0.00     0.262 C 
HETATM    4  H4  UNK     1      17.816   3.941  33.405  1.00  0.00     0.169 HD
ENDROOT
BRANCH   2   5
HETATM    5  C1  UNK     1      17.436   5.884  32.866  1.00  0.00     0.036 A 
HETATM    6  C6  UNK     1      18.385   6.820  33.239  1.00  0.00     0.047 A 
HETATM    7  C8  UNK     1      17.985   8.129  33.506  1.00  0.00     0.042 A 
HETATM    8  C11 UNK     1      16.640   8.482  33.398  1.00  0.00     0.035 A 
HETATM    9  C9  UNK     1      15.696   7.527  33.020  1.00  0.00     0.042 A 
HETATM   10  C7  UNK     1      16.097   6.218  32.753  1.00  0.00     0.047 A 
BRANCH   7  11
HETATM   11  C18 UNK     1      18.969   9.126  33.898  1.00  0.00     0.293 C 
HETATM   12  O7  UNK     1      19.973   8.887  34.581  1.00  0.00    -0.259 OA
BRANCH  11  13
HETATM   13  O4  UNK     1      18.647  10.366  33.417  1.00  0.00    -0.323 OA
HETATM   14  C20 UNK     1      18.574  11.430  34.371  1.00  0.00     0.213 C 
ENDBRANCH  11  13
ENDBRANCH   7  11
BRANCH   9  15
HETATM   15  C17 UNK     1      14.293   7.896  32.907  1.00  0.00     0.293 C 
HETATM   16  O6  UNK     1      13.469   7.303  32.197  1.00  0.00    -0.259 OA
BRANCH  15  17
HETATM   17  O3  UNK     1      13.993   8.982  33.684  1.00  0.00    -0.323 OA
HETATM   18  C19 UNK     1      13.687  10.202  33.000  1.00  0.00     0.213 C 
ENDBRANCH  15  17
ENDBRANCH   9  15
ENDBRANCH   2   5
BRANCH   3  19
HETATM   19  C3  UNK     1      18.620   2.609  31.486  1.00  0.00     0.108 A 
HETATM   20  C13 UNK     1      18.353   1.824  32.712  1.00  0.00     0.304 A 
HETATM   21  O1  UNK     1      18.718   0.480  32.686  1.00  0.00    -0.274 OA
HETATM   22  O5  UNK     1      17.835   2.325  33.704  1.00  0.00    -0.259 OA
HETATM   23  C4  UNK     1      19.312  -0.105  31.551  1.00  0.00     0.089 A 
HETATM   24  C14 UNK     1      19.643  -1.458  31.619  1.00  0.00     0.038 A 
HETATM   25  C2  UNK     1      19.555   0.651  30.410  1.00  0.00    -0.001 A 
HETATM   26  C16 UNK     1      20.232  -2.065  30.513  1.00  0.00     0.003 A 
HETATM   27  C15 UNK     1      20.483  -1.322  29.358  1.00  0.00     0.001 A 
HETATM   28  C12 UNK     1      20.147   0.034  29.305  1.00  0.00     0.014 A 
HETATM   29  C5  UNK     1      19.185   2.058  30.405  1.00  0.00     0.037 A 
ENDBRANCH   3  19
TORSDOF 6
ENDMDL
MODEL 7
REMARK VINA RESULT:      -8.6      1.494      3.774
REMARK  6 active torsions:
REMARK  status: ('A' for Active; 'I' for Inactive)
REMARK    1  A    between atoms: C17_25  and  O3_3 
REMARK    2  A    between atoms: C18_26  and  O4_4 
REMARK    3  A    between atoms: C1_9  and  N1_8 
REMARK       I    between atoms: C10_18  and  N1_8 
REMARK    4  A    between atoms: C10_18  and  C3_11 
REMARK    5  A    between atoms: C18_26  and  C8_16 
REMARK    6  A    between atoms: C17_25  and  C9_17 
ROOT
HETATM    1  O2  UNK     1      19.423   6.005  31.434  1.00  0.00    -0.267 OA
HETATM    2  N1  UNK     1      17.734   4.793  32.541  1.00  0.00    -0.323 N 
HETATM    3  C10 UNK     1      18.405   5.933  32.120  1.00  0.00     0.262 C 
HETATM    4  H4  UNK     1      16.886   4.905  33.091  1.00  0.00     0.169 HD
ENDROOT
BRANCH   2   5
HETATM    5  C1  UNK     1      18.072   3.444  32.274  1.00  0.00     0.036 A 
HETATM    6  C6  UNK     1      18.067   2.527  33.310  1.00  0.00     0.047 A 
HETATM    7  C8  UNK     1      18.400   1.198  33.047  1.00  0.00     0.042 A 
HETATM    8  C11 UNK     1      18.734   0.806  31.751  1.00  0.00     0.035 A 
HETATM    9  C9  UNK     1      18.733   1.743  30.717  1.00  0.00     0.042 A 
HETATM   10  C7  UNK     1      18.400   3.072  30.981  1.00  0.00     0.047 A 
BRANCH   7  11
HETATM   11  C18 UNK     1      18.399   0.220  34.124  1.00  0.00     0.293 C 
HETATM   12  O7  UNK     1      19.183   0.234  35.082  1.00  0.00    -0.259 OA
BRANCH  11  13
HETATM   13  O4  UNK     1      17.422  -0.721  33.948  1.00  0.00    -0.323 OA
HETATM   14  C20 UNK     1      16.425  -0.817  34.971  1.00  0.00     0.213 C 
ENDBRANCH  11  13
ENDBRANCH   7  11
BRANCH   9  15
HETATM   15  C17 UNK     1      19.081   1.335  29.365  1.00  0.00     0.293 C 
HETATM   16  O6  UNK     1      18.452   1.666  28.351  1.00  0.00    -0.259 OA
BRANCH  15  17
HETATM   17  O3  UNK     1      20.193   0.538  29.350  1.00  0.00    -0.323 OA
HETATM   18  C19 UNK     1      20.075  -0.725  28.687  1.00  0.00     0.213 C 
ENDBRANCH  15  17
ENDBRANCH   9  15
ENDBRANCH   2   5
BRANCH   3  19
HETATM   19  C3  UNK     1      17.756   7.163  32.593  1.00  0.00     0.108 A 
HETATM   20  C13 UNK     1      16.288   7.345  32.544  1.00  0.00     0.304 A 
HETATM   21  O1  UNK     1      15.791   8.554  33.023  1.00  0.00    -0.274 OA
HETATM   22  O5  UNK     1      15.541   6.476  32.106  1.00  0.00    -0.259 OA
HETATM   23  C4  UNK     1      16.641   9.557  33.528  1.00  0.00     0.089 A 
HETATM   24  C14 UNK     1      16.051  10.735  33.985  1.00  0.00     0.038 A 
HETATM   25  C2  UNK     1      18.018   9.366  33.564  1.00  0.00    -0.001 A 
HETATM   26  C16 UNK     1      16.866  11.746  34.491  1.00  0.00     0.003 A 
HETATM   27  C15 UNK     1      18.250  11.571  34.535  1.00  0.00     0.001 A 
HETATM   28  C12 UNK     1      18.827  10.385  34.073  1.00  0.00     0.014 A 
HETATM   29  C5  UNK     1      18.568   8.112  33.072  1.00  0.00     0.037 A 
ENDBRANCH   3  19
TORSDOF 6
ENDMDL
MODEL 8
REMARK VINA RESULT:      -8.6      2.248      3.101
REMARK  6 active torsions:
REMARK  status: ('A' for Active; 'I' for Inactive)
REMARK    1  A    between atoms: C17_25  and  O3_3 
REMARK    2  A    between atoms: C18_26  and  O4_4 
REMARK    3  A    between atoms: C1_9  and  N1_8 
REMARK       I    between atoms: C10_18  and  N1_8 
REMARK    4  A    between atoms: C10_18  and  C3_11 
REMARK    5  A    between atoms: C18_26  and  C8_16 
REMARK    6  A    between atoms: C17_25  and  C9_17 
ROOT
HETATM    1  O2  UNK     1      17.546   4.349  32.334  1.00  0.00    -0.267 OA
HETATM    2  N1  UNK     1      18.398   4.083  34.513  1.00  0.00    -0.323 N 
HETATM    3  C10 UNK     1      18.014   4.791  33.382  1.00  0.00     0.262 C 
HETATM    4  H4  UNK     1      18.749   4.603  35.313  1.00  0.00     0.169 HD
ENDROOT
BRANCH   2   5
HETATM    5  C1  UNK     1      18.338   2.683  34.718  1.00  0.00     0.036 A 
HETATM    6  C6  UNK     1      18.495   1.834  33.636  1.00  0.00     0.047 A 
HETATM    7  C8  UNK     1      18.436   0.454  33.837  1.00  0.00     0.042 A 
HETATM    8  C11 UNK     1      18.222  -0.054  35.117  1.00  0.00     0.035 A 
HETATM    9  C9  UNK     1      18.067   0.816  36.197  1.00  0.00     0.042 A 
HETATM   10  C7  UNK     1      18.125   2.194  35.996  1.00  0.00     0.047 A 
BRANCH   7  11
HETATM   11  C18 UNK     1      18.599  -0.453  32.712  1.00  0.00     0.293 C 
HETATM   12  O7  UNK     1      17.843  -1.401  32.463  1.00  0.00    -0.259 OA
BRANCH  11  13
HETATM   13  O4  UNK     1      19.694  -0.129  31.959  1.00  0.00    -0.323 OA
HETATM   14  C20 UNK     1      20.295  -1.185  31.203  1.00  0.00     0.213 C 
ENDBRANCH  11  13
ENDBRANCH   7  11
BRANCH   9  15
HETATM   15  C17 UNK     1      17.844   0.285  37.533  1.00  0.00     0.293 C 
HETATM   16  O6  UNK     1      17.895   0.958  38.571  1.00  0.00    -0.259 OA
BRANCH  15  17
HETATM   17  O3  UNK     1      17.569  -1.055  37.503  1.00  0.00    -0.323 OA
HETATM   18  C19 UNK     1      18.562  -1.932  38.047  1.00  0.00     0.213 C 
ENDBRANCH  15  17
ENDBRANCH   9  15
ENDBRANCH   2   5
BRANCH   3  19
HETATM   19  C3  UNK     1      18.221   6.236  33.537  1.00  0.00     0.108 A 
HETATM   20  C13 UNK     1      19.569   6.845  33.496  1.00  0.00     0.304 A 
HETATM   21  O1  UNK     1      19.636   8.227  33.653  1.00  0.00    -0.274 OA
HETATM   22  O5  UNK     1      20.580   6.171  33.329  1.00  0.00    -0.259 OA
HETATM   23  C4  UNK     1      18.481   9.009  33.844  1.00  0.00     0.089 A 
HETATM   24  C14 UNK     1      18.648  10.385  33.993  1.00  0.00     0.038 A 
HETATM   25  C2  UNK     1      17.223   8.416  33.880  1.00  0.00    -0.001 A 
HETATM   26  C16 UNK     1      17.524  11.185  34.183  1.00  0.00     0.003 A 
HETATM   27  C15 UNK     1      16.254  10.608  34.222  1.00  0.00     0.001 A 
HETATM   28  C12 UNK     1      16.101   9.227  34.072  1.00  0.00     0.014 A 
HETATM   29  C5  UNK     1      17.120   6.974  33.717  1.00  0.00     0.037 A 
ENDBRANCH   3  19
TORSDOF 6
ENDMDL
MODEL 9
REMARK VINA RESULT:      -8.5      5.843     11.550
REMARK  6 active torsions:
REMARK  status: ('A' for Active; 'I' for Inactive)
REMARK    1  A    between atoms: C17_25  and  O3_3 
REMARK    2  A    between atoms: C18_26  and  O4_4 
REMARK    3  A    between atoms: C1_9  and  N1_8 
REMARK       I    between atoms: C10_18  and  N1_8 
REMARK    4  A    between atoms: C10_18  and  C3_11 
REMARK    5  A    between atoms: C18_26  and  C8_16 
REMARK    6  A    between atoms: C17_25  and  C9_17 
ROOT
HETATM    1  O2  UNK     1      20.359  -2.396  37.310  1.00  0.00    -0.267 OA
HETATM    2  N1  UNK     1      19.779  -3.465  35.293  1.00  0.00    -0.323 N 
HETATM    3  C10 UNK     1      20.150  -3.399  36.629  1.00  0.00     0.262 C 
HETATM    4  H4  UNK     1      19.622  -4.380  34.879  1.00  0.00     0.169 HD
ENDROOT
BRANCH   2   5
HETATM    5  C1  UNK     1      19.554  -2.385  34.405  1.00  0.00     0.036 A 
HETATM    6  C6  UNK     1      20.107  -2.426  33.136  1.00  0.00     0.047 A 
HETATM    7  C8  UNK     1      19.886  -1.362  32.261  1.00  0.00     0.042 A 
HETATM    8  C11 UNK     1      19.116  -0.273  32.668  1.00  0.00     0.035 A 
HETATM    9  C9  UNK     1      18.566  -0.248  33.949  1.00  0.00     0.042 A 
HETATM   10  C7  UNK     1      18.787  -1.311  34.824  1.00  0.00     0.047 A 
BRANCH   7  11
HETATM   11  C18 UNK     1      20.459  -1.389  30.924  1.00  0.00     0.293 C 
HETATM   12  O7  UNK     1      20.629  -2.417  30.256  1.00  0.00    -0.259 OA
BRANCH  11  13
HETATM   13  O4  UNK     1      20.787  -0.133  30.492  1.00  0.00    -0.323 OA
HETATM   14  C20 UNK     1      20.171   0.317  29.281  1.00  0.00     0.213 C 
ENDBRANCH  11  13
ENDBRANCH   7  11
BRANCH   9  15
HETATM   15  C17 UNK     1      17.763   0.888  34.374  1.00  0.00     0.293 C 
HETATM   16  O6  UNK     1      18.227   1.946  34.820  1.00  0.00    -0.259 OA
BRANCH  15  17
HETATM   17  O3  UNK     1      16.425   0.645  34.219  1.00  0.00    -0.323 OA
HETATM   18  C19 UNK     1      15.698   0.257  35.390  1.00  0.00     0.213 C 
ENDBRANCH  15  17
ENDBRANCH   9  15
ENDBRANCH   2   5
BRANCH   3  19
HETATM   19  C3  UNK     1      20.289  -4.731  37.231  1.00  0.00     0.108 A 
HETATM   20  C13 UNK     1      19.230  -5.758  37.117  1.00  0.00     0.304 A 
HETATM   21  O1  UNK     1      19.479  -6.983  37.729  1.00  0.00    -0.274 OA
HETATM   22  O5  UNK     1      18.184  -5.548  36.512  1.00  0.00    -0.259 OA
HETATM   23  C4  UNK     1      20.677  -7.235  38.425  1.00  0.00     0.089 A 
HETATM   24  C14 UNK     1      20.837  -8.493  39.006  1.00  0.00     0.038 A 
HETATM   25  C2  UNK     1      21.659  -6.255  38.521  1.00  0.00    -0.001 A 
HETATM   26  C16 UNK     1      22.011  -8.772  39.700  1.00  0.00     0.003 A 
HETATM   27  C15 UNK     1      23.008  -7.801  39.807  1.00  0.00     0.001 A 
HETATM   28  C12 UNK     1      22.834  -6.544  39.220  1.00  0.00     0.014 A 
HETATM   29  C5  UNK     1      21.429  -4.964  37.890  1.00  0.00     0.037 A 
ENDBRANCH   3  19
TORSDOF 6
ENDMDL
MODEL 10
REMARK VINA RESULT:      -8.5      5.847     11.979
REMARK  6 active torsions:
REMARK  status: ('A' for Active; 'I' for Inactive)
REMARK    1  A    between atoms: C17_25  and  O3_3 
REMARK    2  A    between atoms: C18_26  and  O4_4 
REMARK    3  A    between atoms: C1_9  and  N1_8 
REMARK       I    between atoms: C10_18  and  N1_8 
REMARK    4  A    between atoms: C10_18  and  C3_11 
REMARK    5  A    between atoms: C18_26  and  C8_16 
REMARK    6  A    between atoms: C17_25  and  C9_17 
ROOT
HETATM    1  O2  UNK     1      20.466  -2.423  37.266  1.00  0.00    -0.267 OA
HETATM    2  N1  UNK     1      19.798  -3.506  35.285  1.00  0.00    -0.323 N 
HETATM    3  C10 UNK     1      20.215  -3.430  36.607  1.00  0.00     0.262 C 
HETATM    4  H4  UNK     1      19.610  -4.423  34.888  1.00  0.00     0.169 HD
ENDROOT
BRANCH   2   5
HETATM    5  C1  UNK     1      19.566  -2.433  34.389  1.00  0.00     0.036 A 
HETATM    6  C6  UNK     1      18.796  -1.360  34.804  1.00  0.00     0.047 A 
HETATM    7  C8  UNK     1      18.567  -0.304  33.922  1.00  0.00     0.042 A 
HETATM    8  C11 UNK     1      19.112  -0.336  32.639  1.00  0.00     0.035 A 
HETATM    9  C9  UNK     1      19.887  -1.425  32.237  1.00  0.00     0.042 A 
HETATM   10  C7  UNK     1      20.115  -2.481  33.119  1.00  0.00     0.047 A 
BRANCH   7  11
HETATM   11  C18 UNK     1      17.760   0.832  34.341  1.00  0.00     0.293 C 
HETATM   12  O7  UNK     1      16.561   0.977  34.069  1.00  0.00    -0.259 OA
BRANCH  11  13
HETATM   13  O4  UNK     1      18.492   1.724  35.076  1.00  0.00    -0.323 OA
HETATM   14  C20 UNK     1      18.120   1.890  36.448  1.00  0.00     0.213 C 
ENDBRANCH  11  13
ENDBRANCH   7  11
BRANCH   9  15
HETATM   15  C17 UNK     1      20.455  -1.459  30.899  1.00  0.00     0.293 C 
HETATM   16  O6  UNK     1      20.687  -2.496  30.263  1.00  0.00    -0.259 OA
BRANCH  15  17
HETATM   17  O3  UNK     1      20.704  -0.199  30.426  1.00  0.00    -0.323 OA
HETATM   18  C19 UNK     1      20.162   0.129  29.142  1.00  0.00     0.213 C 
ENDBRANCH  15  17
ENDBRANCH   9  15
ENDBRANCH   2   5
BRANCH   3  19
HETATM   19  C3  UNK     1      20.347  -4.757  37.222  1.00  0.00     0.108 A 
HETATM   20  C13 UNK     1      19.286  -5.782  37.114  1.00  0.00     0.304 A 
HETATM   21  O1  UNK     1      19.528  -7.002  37.739  1.00  0.00    -0.274 OA
HETATM   22  O5  UNK     1      18.242  -5.573  36.504  1.00  0.00    -0.259 OA
HETATM   23  C4  UNK     1      20.724  -7.251  38.441  1.00  0.00     0.089 A 
HETATM   24  C14 UNK     1      20.877  -8.504  39.034  1.00  0.00     0.038 A 
HETATM   25  C2  UNK     1      21.709  -6.274  38.531  1.00  0.00    -0.001 A 
HETATM   26  C16 UNK     1      22.048  -8.780  39.735  1.00  0.00     0.003 A 
HETATM   27  C15 UNK     1      23.048  -7.811  39.835  1.00  0.00     0.001 A 
HETATM   28  C12 UNK     1      22.881  -6.560  39.236  1.00  0.00     0.014 A 
HETATM   29  C5  UNK     1      21.485  -4.988  37.887  1.00  0.00     0.037 A 
ENDBRANCH   3  19
TORSDOF 6
ENDMDL
