MODEL 1
REMARK VINA RESULT:      -7.5      0.000      0.000
REMARK  2 active torsions:
REMARK  status: ('A' for Active; 'I' for Inactive)
REMARK    1  A    between atoms: C1_6  and  C4_9 
REMARK    2  A    between atoms: C3_8  and  C6_11 
ROOT
HETATM    1 Br1  UNK     1      29.535  -4.322  39.055  1.00  0.00    -0.048 Br
HETATM    2 Cl1  UNK     1      27.781  -9.554  39.268  1.00  0.00    -0.084 Cl
HETATM    3  O1  UNK     1      30.731  -5.322  36.432  1.00  0.00    -0.273 OA
HETATM    4  O2  UNK     1      31.974  -4.593  34.674  1.00  0.00    -0.259 OA
HETATM    5  C1  UNK     1      30.632  -7.889  35.208  1.00  0.00     0.004 A 
HETATM    6  C2  UNK     1      29.969  -7.628  36.504  1.00  0.00     0.013 A 
HETATM    7  C3  UNK     1      31.296  -6.871  34.607  1.00  0.00     0.062 A 
HETATM    8  C5  UNK     1      30.040  -6.361  37.070  1.00  0.00     0.108 A 
HETATM    9  C7  UNK     1      31.370  -5.512  35.219  1.00  0.00     0.300 A 
HETATM   10  C8  UNK     1      29.259  -8.614  37.205  1.00  0.00     0.039 A 
HETATM   11  C9  UNK     1      29.434  -6.054  38.291  1.00  0.00     0.047 A 
HETATM   12  C12 UNK     1      28.646  -8.323  38.429  1.00  0.00     0.036 A 
HETATM   13  C15 UNK     1      28.734  -7.043  38.971  1.00  0.00     0.046 A 
ENDROOT
BRANCH   7  14
HETATM   14  C6  UNK     1      31.972  -7.070  33.322  1.00  0.00    -0.019 A 
HETATM   15  C13 UNK     1      33.314  -7.428  33.300  1.00  0.00     0.014 A 
HETATM   16  C18 UNK     1      33.958  -7.614  32.078  1.00  0.00     0.020 A 
HETATM   17  C21 UNK     1      33.255  -7.444  30.885  1.00  0.00     0.011 A 
HETATM   18 Br2  UNK     1      34.128  -7.696  29.228  1.00  0.00    -0.051 Br
HETATM   19  C19 UNK     1      31.907  -7.086  30.915  1.00  0.00     0.020 A 
HETATM   20  C14 UNK     1      31.263  -6.897  32.139  1.00  0.00     0.014 A 
ENDBRANCH   7  14
BRANCH   5  21
HETATM   21  C4  UNK     1      30.609  -9.194  34.537  1.00  0.00    -0.024 A 
HETATM   22  C10 UNK     1      29.592  -9.481  33.635  1.00  0.00     0.012 A 
HETATM   23  C16 UNK     1      29.570 -10.722  32.997  1.00  0.00     0.001 A 
HETATM   24  C20 UNK     1      30.563 -11.662  33.267  1.00  0.00     0.000 A 
HETATM   25  C17 UNK     1      31.580 -11.363  34.175  1.00  0.00     0.001 A 
HETATM   26  C11 UNK     1      31.603 -10.123  34.813  1.00  0.00     0.012 A 
ENDBRANCH   5  21
TORSDOF 2
ENDMDL
MODEL 2
REMARK VINA RESULT:      -7.4      2.615      4.200
REMARK  2 active torsions:
REMARK  status: ('A' for Active; 'I' for Inactive)
REMARK    1  A    between atoms: C1_6  and  C4_9 
REMARK    2  A    between atoms: C3_8  and  C6_11 
ROOT
HETATM    1 Br1  UNK     1      26.671  -8.283  38.630  1.00  0.00    -0.048 Br
HETATM    2 Cl1  UNK     1      29.480  -3.694  39.874  1.00  0.00    -0.084 Cl
HETATM    3  O1  UNK     1      28.966  -8.588  36.643  1.00  0.00    -0.273 OA
HETATM    4  O2  UNK     1      29.714  -9.995  35.021  1.00  0.00    -0.259 OA
HETATM    5  C1  UNK     1      31.222  -6.927  36.145  1.00  0.00     0.004 A 
HETATM    6  C2  UNK     1      30.220  -6.575  37.174  1.00  0.00     0.013 A 
HETATM    7  C3  UNK     1      31.045  -8.068  35.435  1.00  0.00     0.062 A 
HETATM    8  C5  UNK     1      29.131  -7.412  37.388  1.00  0.00     0.108 A 
HETATM    9  C7  UNK     1      29.873  -8.964  35.668  1.00  0.00     0.300 A 
HETATM   10  C8  UNK     1      30.312  -5.417  37.960  1.00  0.00     0.039 A 
HETATM   11  C9  UNK     1      28.152  -7.134  38.345  1.00  0.00     0.047 A 
HETATM   12  C12 UNK     1      29.341  -5.124  38.923  1.00  0.00     0.036 A 
HETATM   13  C15 UNK     1      28.261  -5.982  39.115  1.00  0.00     0.046 A 
ENDROOT
BRANCH   7  14
HETATM   14  C6  UNK     1      32.005  -8.467  34.403  1.00  0.00    -0.019 A 
HETATM   15  C13 UNK     1      33.071  -9.292  34.738  1.00  0.00     0.014 A 
HETATM   16  C18 UNK     1      33.986  -9.670  33.757  1.00  0.00     0.020 A 
HETATM   17  C21 UNK     1      33.828  -9.223  32.445  1.00  0.00     0.011 A 
HETATM   18 Br2  UNK     1      35.068  -9.734  31.114  1.00  0.00    -0.051 Br
HETATM   19  C19 UNK     1      32.754  -8.395  32.116  1.00  0.00     0.020 A 
HETATM   20  C14 UNK     1      31.839  -8.016  33.099  1.00  0.00     0.014 A 
ENDBRANCH   7  14
BRANCH   5  21
HETATM   21  C4  UNK     1      32.401  -6.104  35.852  1.00  0.00    -0.024 A 
HETATM   22  C10 UNK     1      33.599  -6.369  36.503  1.00  0.00     0.012 A 
HETATM   23  C16 UNK     1      34.720  -5.586  36.225  1.00  0.00     0.001 A 
HETATM   24  C20 UNK     1      34.633  -4.547  35.299  1.00  0.00     0.000 A 
HETATM   25  C17 UNK     1      33.425  -4.290  34.651  1.00  0.00     0.001 A 
HETATM   26  C11 UNK     1      32.303  -5.072  34.929  1.00  0.00     0.012 A 
ENDBRANCH   5  21
TORSDOF 2
ENDMDL
MODEL 3
REMARK VINA RESULT:      -7.2      3.419      6.660
REMARK  2 active torsions:
REMARK  status: ('A' for Active; 'I' for Inactive)
REMARK    1  A    between atoms: C1_6  and  C4_9 
REMARK    2  A    between atoms: C3_8  and  C6_11 
ROOT
HETATM    1 Br1  UNK     1      31.677 -14.035  33.353  1.00  0.00    -0.048 Br
HETATM    2 Cl1  UNK     1      29.886 -11.214  28.956  1.00  0.00    -0.084 Cl
HETATM    3  O1  UNK     1      31.151 -11.349  34.704  1.00  0.00    -0.273 OA
HETATM    4  O2  UNK     1      31.286 -10.348  36.740  1.00  0.00    -0.259 OA
HETATM    5  C1  UNK     1      30.180  -8.896  33.639  1.00  0.00     0.004 A 
HETATM    6  C2  UNK     1      30.359 -10.089  32.783  1.00  0.00     0.013 A 
HETATM    7  C3  UNK     1      30.490  -8.993  34.955  1.00  0.00     0.062 A 
HETATM    8  C5  UNK     1      30.837 -11.270  33.340  1.00  0.00     0.108 A 
HETATM    9  C7  UNK     1      31.003 -10.264  35.549  1.00  0.00     0.300 A 
HETATM   10  C8  UNK     1      30.068 -10.090  31.411  1.00  0.00     0.039 A 
HETATM   11  C9  UNK     1      31.026 -12.428  32.584  1.00  0.00     0.047 A 
HETATM   12  C12 UNK     1      30.252 -11.242  30.639  1.00  0.00     0.036 A 
HETATM   13  C15 UNK     1      30.731 -12.411  31.226  1.00  0.00     0.046 A 
ENDROOT
BRANCH   7  14
HETATM   14  C6  UNK     1      30.333  -7.845  35.851  1.00  0.00    -0.019 A 
HETATM   15  C13 UNK     1      29.134  -7.661  36.528  1.00  0.00     0.014 A 
HETATM   16  C18 UNK     1      28.983  -6.567  37.379  1.00  0.00     0.020 A 
HETATM   17  C21 UNK     1      30.034  -5.665  37.549  1.00  0.00     0.011 A 
HETATM   18 Br2  UNK     1      29.830  -4.181  38.701  1.00  0.00    -0.051 Br
HETATM   19  C19 UNK     1      31.235  -5.856  36.865  1.00  0.00     0.020 A 
HETATM   20  C14 UNK     1      31.385  -6.951  36.012  1.00  0.00     0.014 A 
ENDBRANCH   7  14
BRANCH   5  21
HETATM   21  C4  UNK     1      29.682  -7.610  33.137  1.00  0.00    -0.024 A 
HETATM   22  C10 UNK     1      28.319  -7.343  33.173  1.00  0.00     0.012 A 
HETATM   23  C16 UNK     1      27.846  -6.120  32.696  1.00  0.00     0.001 A 
HETATM   24  C20 UNK     1      28.738  -5.178  32.188  1.00  0.00     0.000 A 
HETATM   25  C17 UNK     1      30.105  -5.456  32.157  1.00  0.00     0.001 A 
HETATM   26  C11 UNK     1      30.579  -6.678  32.633  1.00  0.00     0.012 A 
ENDBRANCH   5  21
TORSDOF 2
ENDMDL
MODEL 4
REMARK VINA RESULT:      -7.1      3.322      6.687
REMARK  2 active torsions:
REMARK  status: ('A' for Active; 'I' for Inactive)
REMARK    1  A    between atoms: C1_6  and  C4_9 
REMARK    2  A    between atoms: C3_8  and  C6_11 
ROOT
HETATM    1 Br1  UNK     1      37.021  -8.641  33.445  1.00  0.00    -0.048 Br
HETATM    2 Cl1  UNK     1      34.051  -7.688  28.888  1.00  0.00    -0.084 Cl
HETATM    3  O1  UNK     1      34.328  -8.057  34.756  1.00  0.00    -0.273 OA
HETATM    4  O2  UNK     1      33.364  -7.925  36.811  1.00  0.00    -0.259 OA
HETATM    5  C1  UNK     1      31.811  -7.391  33.608  1.00  0.00     0.004 A 
HETATM    6  C2  UNK     1      33.001  -7.635  32.765  1.00  0.00     0.013 A 
HETATM    7  C3  UNK     1      31.942  -7.491  34.954  1.00  0.00     0.062 A 
HETATM    8  C5  UNK     1      34.214  -7.958  33.363  1.00  0.00     0.108 A 
HETATM    9  C7  UNK     1      33.247  -7.838  35.592  1.00  0.00     0.300 A 
HETATM   10  C8  UNK     1      32.969  -7.554  31.365  1.00  0.00     0.039 A 
HETATM   11  C9  UNK     1      35.371  -8.200  32.620  1.00  0.00     0.047 A 
HETATM   12  C12 UNK     1      34.120  -7.794  30.606  1.00  0.00     0.036 A 
HETATM   13  C15 UNK     1      35.320  -8.116  31.234  1.00  0.00     0.046 A 
ENDROOT
BRANCH   7  14
HETATM   14  C6  UNK     1      30.799  -7.260  35.840  1.00  0.00    -0.019 A 
HETATM   15  C13 UNK     1      30.533  -5.975  36.298  1.00  0.00     0.014 A 
HETATM   16  C18 UNK     1      29.446  -5.756  37.143  1.00  0.00     0.020 A 
HETATM   17  C21 UNK     1      28.630  -6.822  37.523  1.00  0.00     0.011 A 
HETATM   18 Br2  UNK     1      27.158  -6.526  38.669  1.00  0.00    -0.051 Br
HETATM   19  C19 UNK     1      28.904  -8.109  37.058  1.00  0.00     0.020 A 
HETATM   20  C14 UNK     1      29.993  -8.329  36.213  1.00  0.00     0.014 A 
ENDBRANCH   7  14
BRANCH   5  21
HETATM   21  C4  UNK     1      30.493  -7.045  33.065  1.00  0.00    -0.024 A 
HETATM   22  C10 UNK     1      29.573  -8.054  32.807  1.00  0.00     0.012 A 
HETATM   23  C16 UNK     1      28.320  -7.725  32.289  1.00  0.00     0.001 A 
HETATM   24  C20 UNK     1      27.999  -6.393  32.034  1.00  0.00     0.000 A 
HETATM   25  C17 UNK     1      28.930  -5.388  32.297  1.00  0.00     0.001 A 
HETATM   26  C11 UNK     1      30.183  -5.715  32.814  1.00  0.00     0.012 A 
ENDBRANCH   5  21
TORSDOF 2
ENDMDL
MODEL 5
REMARK VINA RESULT:      -7.0      2.733      4.457
REMARK  2 active torsions:
REMARK  status: ('A' for Active; 'I' for Inactive)
REMARK    1  A    between atoms: C1_6  and  C4_9 
REMARK    2  A    between atoms: C3_8  and  C6_11 
ROOT
HETATM    1 Br1  UNK     1      28.078  -5.428  38.697  1.00  0.00    -0.048 Br
HETATM    2 Cl1  UNK     1      32.480  -2.965  36.449  1.00  0.00    -0.084 Cl
HETATM    3  O1  UNK     1      28.971  -7.676  36.838  1.00  0.00    -0.273 OA
HETATM    4  O2  UNK     1      28.388  -9.785  36.221  1.00  0.00    -0.259 OA
HETATM    5  C1  UNK     1      31.158  -7.824  35.024  1.00  0.00     0.004 A 
HETATM    6  C2  UNK     1      30.913  -6.613  35.837  1.00  0.00     0.013 A 
HETATM    7  C3  UNK     1      30.312  -8.875  35.160  1.00  0.00     0.062 A 
HETATM    8  C5  UNK     1      29.834  -6.579  36.712  1.00  0.00     0.108 A 
HETATM    9  C7  UNK     1      29.154  -8.833  36.101  1.00  0.00     0.300 A 
HETATM   10  C8  UNK     1      31.729  -5.474  35.767  1.00  0.00     0.039 A 
HETATM   11  C9  UNK     1      29.552  -5.465  37.505  1.00  0.00     0.047 A 
HETATM   12  C12 UNK     1      31.461  -4.350  36.555  1.00  0.00     0.036 A 
HETATM   13  C15 UNK     1      30.372  -4.346  37.424  1.00  0.00     0.046 A 
ENDROOT
BRANCH   7  14
HETATM   14  C6  UNK     1      30.505 -10.100  34.381  1.00  0.00    -0.019 A 
HETATM   15  C13 UNK     1      29.855 -10.250  33.163  1.00  0.00     0.014 A 
HETATM   16  C18 UNK     1      30.036 -11.417  32.422  1.00  0.00     0.020 A 
HETATM   17  C21 UNK     1      30.868 -12.428  32.905  1.00  0.00     0.011 A 
HETATM   18 Br2  UNK     1      31.114 -14.011  31.903  1.00  0.00    -0.051 Br
HETATM   19  C19 UNK     1      31.518 -12.270  34.130  1.00  0.00     0.020 A 
HETATM   20  C14 UNK     1      31.335 -11.102  34.871  1.00  0.00     0.014 A 
ENDBRANCH   7  14
BRANCH   5  21
HETATM   21  C4  UNK     1      32.272  -7.949  34.076  1.00  0.00    -0.024 A 
HETATM   22  C10 UNK     1      32.091  -7.561  32.754  1.00  0.00     0.012 A 
HETATM   23  C16 UNK     1      33.150  -7.681  31.853  1.00  0.00     0.001 A 
HETATM   24  C20 UNK     1      34.376  -8.188  32.280  1.00  0.00     0.000 A 
HETATM   25  C17 UNK     1      34.545  -8.575  33.610  1.00  0.00     0.001 A 
HETATM   26  C11 UNK     1      33.489  -8.456  34.512  1.00  0.00     0.012 A 
ENDBRANCH   5  21
TORSDOF 2
ENDMDL
MODEL 6
REMARK VINA RESULT:      -7.0      3.689      7.348
REMARK  2 active torsions:
REMARK  status: ('A' for Active; 'I' for Inactive)
REMARK    1  A    between atoms: C1_6  and  C4_9 
REMARK    2  A    between atoms: C3_8  and  C6_11 
ROOT
HETATM    1 Br1  UNK     1      34.894 -11.173  31.242  1.00  0.00    -0.048 Br
HETATM    2 Cl1  UNK     1      36.172  -5.891  32.226  1.00  0.00    -0.084 Cl
HETATM    3  O1  UNK     1      32.999 -10.662  33.579  1.00  0.00    -0.273 OA
HETATM    4  O2  UNK     1      31.434 -11.724  34.839  1.00  0.00    -0.259 OA
HETATM    5  C1  UNK     1      32.559  -8.318  35.131  1.00  0.00     0.004 A 
HETATM    6  C2  UNK     1      33.544  -8.337  34.029  1.00  0.00     0.013 A 
HETATM    7  C3  UNK     1      31.861  -9.451  35.392  1.00  0.00     0.062 A 
HETATM    8  C5  UNK     1      33.732  -9.502  33.293  1.00  0.00     0.108 A 
HETATM    9  C7  UNK     1      32.066 -10.700  34.599  1.00  0.00     0.300 A 
HETATM   10  C8  UNK     1      34.316  -7.218  33.682  1.00  0.00     0.039 A 
HETATM   11  C9  UNK     1      34.647  -9.581  32.241  1.00  0.00     0.047 A 
HETATM   12  C12 UNK     1      35.238  -7.281  32.631  1.00  0.00     0.036 A 
HETATM   13  C15 UNK     1      35.402  -8.462  31.911  1.00  0.00     0.046 A 
ENDROOT
BRANCH   7  14
HETATM   14  C6  UNK     1      30.871  -9.492  36.471  1.00  0.00    -0.019 A 
HETATM   15  C13 UNK     1      31.262  -9.880  37.747  1.00  0.00     0.014 A 
HETATM   16  C18 UNK     1      30.320  -9.921  38.774  1.00  0.00     0.020 A 
HETATM   17  C21 UNK     1      28.993  -9.573  38.519  1.00  0.00     0.011 A 
HETATM   18 Br2  UNK     1      27.715  -9.630  39.910  1.00  0.00    -0.051 Br
HETATM   19  C19 UNK     1      28.609  -9.185  37.235  1.00  0.00     0.020 A 
HETATM   20  C14 UNK     1      29.552  -9.144  36.207  1.00  0.00     0.014 A 
ENDBRANCH   7  14
BRANCH   5  21
HETATM   21  C4  UNK     1      32.295  -7.136  35.959  1.00  0.00    -0.024 A 
HETATM   22  C10 UNK     1      33.034  -6.934  37.118  1.00  0.00     0.012 A 
HETATM   23  C16 UNK     1      32.782  -5.810  37.906  1.00  0.00     0.001 A 
HETATM   24  C20 UNK     1      31.796  -4.901  37.529  1.00  0.00     0.000 A 
HETATM   25  C17 UNK     1      31.060  -5.113  36.363  1.00  0.00     0.001 A 
HETATM   26  C11 UNK     1      31.310  -6.236  35.575  1.00  0.00     0.012 A 
ENDBRANCH   5  21
TORSDOF 2
ENDMDL
MODEL 7
REMARK VINA RESULT:      -6.9      5.507      7.228
REMARK  2 active torsions:
REMARK  status: ('A' for Active; 'I' for Inactive)
REMARK    1  A    between atoms: C1_6  and  C4_9 
REMARK    2  A    between atoms: C3_8  and  C6_11 
ROOT
HETATM    1 Br1  UNK     1      29.132  -9.955  28.197  1.00  0.00    -0.048 Br
HETATM    2 Cl1  UNK     1      29.509  -5.114  30.826  1.00  0.00    -0.084 Cl
HETATM    3  O1  UNK     1      31.843 -10.362  29.537  1.00  0.00    -0.273 OA
HETATM    4  O2  UNK     1      33.506 -11.902  29.711  1.00  0.00    -0.259 OA
HETATM    5  C1  UNK     1      33.342  -8.652  31.247  1.00  0.00     0.004 A 
HETATM    6  C2  UNK     1      32.029  -8.240  30.705  1.00  0.00     0.013 A 
HETATM    7  C3  UNK     1      33.824  -9.874  30.911  1.00  0.00     0.062 A 
HETATM    8  C5  UNK     1      31.327  -9.103  29.872  1.00  0.00     0.108 A 
HETATM    9  C7  UNK     1      33.066 -10.798  30.016  1.00  0.00     0.300 A 
HETATM   10  C8  UNK     1      31.446  -6.996  30.992  1.00  0.00     0.039 A 
HETATM   11  C9  UNK     1      30.084  -8.771  29.330  1.00  0.00     0.047 A 
HETATM   12  C12 UNK     1      30.201  -6.648  30.457  1.00  0.00     0.036 A 
HETATM   13  C15 UNK     1      29.521  -7.535  29.626  1.00  0.00     0.046 A 
ENDROOT
BRANCH   7  14
HETATM   14  C6  UNK     1      35.118 -10.336  31.418  1.00  0.00    -0.019 A 
HETATM   15  C13 UNK     1      36.280 -10.028  30.720  1.00  0.00     0.014 A 
HETATM   16  C18 UNK     1      37.511 -10.470  31.201  1.00  0.00     0.020 A 
HETATM   17  C21 UNK     1      37.574 -11.217  32.378  1.00  0.00     0.011 A 
HETATM   18 Br2  UNK     1      39.243 -11.818  33.030  1.00  0.00    -0.051 Br
HETATM   19  C19 UNK     1      36.403 -11.522  33.073  1.00  0.00     0.020 A 
HETATM   20  C14 UNK     1      35.170 -11.080  32.590  1.00  0.00     0.014 A 
ENDBRANCH   7  14
BRANCH   5  21
HETATM   21  C4  UNK     1      34.152  -7.807  32.132  1.00  0.00    -0.024 A 
HETATM   22  C10 UNK     1      33.923  -7.834  33.502  1.00  0.00     0.012 A 
HETATM   23  C16 UNK     1      34.693  -7.031  34.343  1.00  0.00     0.001 A 
HETATM   24  C20 UNK     1      35.683  -6.207  33.807  1.00  0.00     0.000 A 
HETATM   25  C17 UNK     1      35.904  -6.188  32.430  1.00  0.00     0.001 A 
HETATM   26  C11 UNK     1      35.135  -6.991  31.588  1.00  0.00     0.012 A 
ENDBRANCH   5  21
TORSDOF 2
ENDMDL
MODEL 8
REMARK VINA RESULT:      -6.9      3.631      6.952
REMARK  2 active torsions:
REMARK  status: ('A' for Active; 'I' for Inactive)
REMARK    1  A    between atoms: C1_6  and  C4_9 
REMARK    2  A    between atoms: C3_8  and  C6_11 
ROOT
HETATM    1 Br1  UNK     1      31.620 -13.401  32.958  1.00  0.00    -0.048 Br
HETATM    2 Cl1  UNK     1      36.369 -10.787  31.906  1.00  0.00    -0.084 Cl
HETATM    3  O1  UNK     1      31.127 -10.866  34.584  1.00  0.00    -0.273 OA
HETATM    4  O2  UNK     1      29.556  -9.910  35.920  1.00  0.00    -0.259 OA
HETATM    5  C1  UNK     1      32.758  -8.568  34.976  1.00  0.00     0.004 A 
HETATM    6  C2  UNK     1      33.209  -9.697  34.133  1.00  0.00     0.013 A 
HETATM    7  C3  UNK     1      31.540  -8.649  35.566  1.00  0.00     0.062 A 
HETATM    8  C5  UNK     1      32.383 -10.802  33.966  1.00  0.00     0.108 A 
HETATM    9  C7  UNK     1      30.657  -9.839  35.383  1.00  0.00     0.300 A 
HETATM   10  C8  UNK     1      34.452  -9.709  33.483  1.00  0.00     0.039 A 
HETATM   11  C9  UNK     1      32.753 -11.897  33.182  1.00  0.00     0.047 A 
HETATM   12  C12 UNK     1      34.837 -10.798  32.694  1.00  0.00     0.036 A 
HETATM   13  C15 UNK     1      33.988 -11.892  32.544  1.00  0.00     0.046 A 
ENDROOT
BRANCH   7  14
HETATM   14  C6  UNK     1      31.041  -7.562  36.412  1.00  0.00    -0.019 A 
HETATM   15  C13 UNK     1      31.277  -7.593  37.781  1.00  0.00     0.014 A 
HETATM   16  C18 UNK     1      30.800  -6.560  38.586  1.00  0.00     0.020 A 
HETATM   17  C21 UNK     1      30.091  -5.501  38.018  1.00  0.00     0.011 A 
HETATM   18 Br2  UNK     1      29.443  -4.101  39.109  1.00  0.00    -0.051 Br
HETATM   19  C19 UNK     1      29.858  -5.477  36.642  1.00  0.00     0.020 A 
HETATM   20  C14 UNK     1      30.335  -6.512  35.836  1.00  0.00     0.014 A 
ENDBRANCH   7  14
BRANCH   5  21
HETATM   21  C4  UNK     1      33.562  -7.362  35.209  1.00  0.00    -0.024 A 
HETATM   22  C10 UNK     1      33.507  -6.317  34.296  1.00  0.00     0.012 A 
HETATM   23  C16 UNK     1      34.272  -5.171  34.518  1.00  0.00     0.001 A 
HETATM   24  C20 UNK     1      35.083  -5.081  35.647  1.00  0.00     0.000 A 
HETATM   25  C17 UNK     1      35.130  -6.137  36.558  1.00  0.00     0.001 A 
HETATM   26  C11 UNK     1      34.367  -7.283  36.338  1.00  0.00     0.012 A 
ENDBRANCH   5  21
TORSDOF 2
ENDMDL
MODEL 9
REMARK VINA RESULT:      -6.9      4.184      5.676
REMARK  2 active torsions:
REMARK  status: ('A' for Active; 'I' for Inactive)
REMARK    1  A    between atoms: C1_6  and  C4_9 
REMARK    2  A    between atoms: C3_8  and  C6_11 
ROOT
HETATM    1 Br1  UNK     1      35.398  -5.789  36.337  1.00  0.00    -0.048 Br
HETATM    2 Cl1  UNK     1      37.356  -9.246  32.501  1.00  0.00    -0.084 Cl
HETATM    3  O1  UNK     1      32.893  -6.039  34.612  1.00  0.00    -0.273 OA
HETATM    4  O2  UNK     1      30.751  -5.286  34.501  1.00  0.00    -0.259 OA
HETATM    5  C1  UNK     1      32.418  -7.532  32.237  1.00  0.00     0.004 A 
HETATM    6  C2  UNK     1      33.733  -7.561  32.914  1.00  0.00     0.013 A 
HETATM    7  C3  UNK     1      31.432  -6.772  32.774  1.00  0.00     0.062 A 
HETATM    8  C5  UNK     1      33.926  -6.817  34.072  1.00  0.00     0.108 A 
HETATM    9  C7  UNK     1      31.645  -5.975  34.018  1.00  0.00     0.300 A 
HETATM   10  C8  UNK     1      34.816  -8.314  32.437  1.00  0.00     0.039 A 
HETATM   11  C9  UNK     1      35.143  -6.805  34.756  1.00  0.00     0.047 A 
HETATM   12  C12 UNK     1      36.042  -8.312  33.110  1.00  0.00     0.036 A 
HETATM   13  C15 UNK     1      36.206  -7.558  34.269  1.00  0.00     0.046 A 
ENDROOT
BRANCH   7  14
HETATM   14  C6  UNK     1      30.110  -6.705  32.147  1.00  0.00    -0.019 A 
HETATM   15  C13 UNK     1      29.119  -7.599  32.534  1.00  0.00     0.014 A 
HETATM   16  C18 UNK     1      27.861  -7.536  31.936  1.00  0.00     0.020 A 
HETATM   17  C21 UNK     1      27.601  -6.578  30.956  1.00  0.00     0.011 A 
HETATM   18 Br2  UNK     1      25.897  -6.493  30.144  1.00  0.00    -0.051 Br
HETATM   19  C19 UNK     1      28.601  -5.683  30.573  1.00  0.00     0.020 A 
HETATM   20  C14 UNK     1      29.860  -5.747  31.171  1.00  0.00     0.014 A 
ENDBRANCH   7  14
BRANCH   5  21
HETATM   21  C4  UNK     1      32.124  -8.284  31.011  1.00  0.00    -0.024 A 
HETATM   22  C10 UNK     1      31.606  -9.569  31.105  1.00  0.00     0.012 A 
HETATM   23  C16 UNK     1      31.327 -10.284  29.940  1.00  0.00     0.001 A 
HETATM   24  C20 UNK     1      31.569  -9.709  28.694  1.00  0.00     0.000 A 
HETATM   25  C17 UNK     1      32.089  -8.417  28.611  1.00  0.00     0.001 A 
HETATM   26  C11 UNK     1      32.368  -7.701  29.775  1.00  0.00     0.012 A 
ENDBRANCH   5  21
TORSDOF 2
ENDMDL
MODEL 10
REMARK VINA RESULT:      -6.9      3.130      4.295
REMARK  2 active torsions:
REMARK  status: ('A' for Active; 'I' for Inactive)
REMARK    1  A    between atoms: C1_6  and  C4_9 
REMARK    2  A    between atoms: C3_8  and  C6_11 
ROOT
HETATM    1 Br1  UNK     1      30.270  -4.222  37.678  1.00  0.00    -0.048 Br
HETATM    2 Cl1  UNK     1      35.529  -5.560  36.652  1.00  0.00    -0.084 Cl
HETATM    3  O1  UNK     1      29.851  -5.838  35.123  1.00  0.00    -0.273 OA
HETATM    4  O2  UNK     1      28.192  -6.531  33.732  1.00  0.00    -0.259 OA
HETATM    5  C1  UNK     1      31.721  -7.174  33.446  1.00  0.00     0.004 A 
HETATM    6  C2  UNK     1      32.158  -6.440  34.653  1.00  0.00     0.013 A 
HETATM    7  C3  UNK     1      30.398  -7.199  33.149  1.00  0.00     0.062 A 
HETATM    8  C5  UNK     1      31.214  -5.799  35.447  1.00  0.00     0.108 A 
HETATM    9  C7  UNK     1      29.388  -6.509  34.005  1.00  0.00     0.300 A 
HETATM   10  C8  UNK     1      33.502  -6.354  35.044  1.00  0.00     0.039 A 
HETATM   11  C9  UNK     1      31.565  -5.092  36.599  1.00  0.00     0.047 A 
HETATM   12  C12 UNK     1      33.870  -5.649  36.195  1.00  0.00     0.036 A 
HETATM   13  C15 UNK     1      32.902  -5.018  36.972  1.00  0.00     0.046 A 
ENDROOT
BRANCH   7  14
HETATM   14  C6  UNK     1      29.907  -7.910  31.966  1.00  0.00    -0.019 A 
HETATM   15  C13 UNK     1      29.653  -9.274  32.040  1.00  0.00     0.014 A 
HETATM   16  C18 UNK     1      29.188  -9.951  30.914  1.00  0.00     0.020 A 
HETATM   17  C21 UNK     1      28.978  -9.259  29.720  1.00  0.00     0.011 A 
HETATM   18 Br2  UNK     1      28.349 -10.176  28.192  1.00  0.00    -0.051 Br
HETATM   19  C19 UNK     1      29.235  -7.889  29.654  1.00  0.00     0.020 A 
HETATM   20  C14 UNK     1      29.702  -7.212  30.781  1.00  0.00     0.014 A 
ENDBRANCH   7  14
BRANCH   5  21
HETATM   21  C4  UNK     1      32.646  -7.879  32.550  1.00  0.00    -0.024 A 
HETATM   22  C10 UNK     1      33.116  -7.238  31.411  1.00  0.00     0.012 A 
HETATM   23  C16 UNK     1      33.994  -7.908  30.559  1.00  0.00     0.001 A 
HETATM   24  C20 UNK     1      34.393  -9.211  30.853  1.00  0.00     0.000 A 
HETATM   25  C17 UNK     1      33.915  -9.845  32.000  1.00  0.00     0.001 A 
HETATM   26  C11 UNK     1      33.036  -9.176  32.852  1.00  0.00     0.012 A 
ENDBRANCH   5  21
TORSDOF 2
ENDMDL
