MODEL 1
REMARK VINA RESULT:      -8.5      0.000      0.000
REMARK  4 active torsions:
REMARK  status: ('A' for Active; 'I' for Inactive)
REMARK    1  A    between atoms: C8_13  and  O2_2 
REMARK    2  A    between atoms: C11_16  and  O3_3 
REMARK    3  A    between atoms: C12_17  and  O4_4 
REMARK    4  A    between atoms: C1_6  and  C3_8 
ROOT
HETATM    1  O1  UNK     1      18.246   1.692  32.263  1.00  0.00    -0.271 OA
HETATM    2  O5  UNK     1      18.127   3.571  30.975  1.00  0.00    -0.259 OA
HETATM    3  C1  UNK     1      18.213   3.904  33.330  1.00  0.00     0.051 A 
HETATM    4  C2  UNK     1      18.373   1.884  34.679  1.00  0.00     0.002 A 
HETATM    5  C4  UNK     1      18.342   1.097  33.534  1.00  0.00     0.123 A 
HETATM    6  C5  UNK     1      18.299   3.330  34.539  1.00  0.00     0.032 A 
HETATM    7  C6  UNK     1      18.188   3.073  32.095  1.00  0.00     0.299 A 
HETATM    8  C8  UNK     1      18.405  -0.293  33.598  1.00  0.00     0.102 A 
HETATM    9  C10 UNK     1      18.470   1.261  35.925  1.00  0.00     0.014 A 
HETATM   10  C14 UNK     1      18.503  -0.909  34.843  1.00  0.00     0.040 A 
HETATM   11  C15 UNK     1      18.534  -0.134  36.006  1.00  0.00     0.004 A 
ENDROOT
BRANCH   3  12
HETATM   12  C3  UNK     1      18.123   5.374  33.240  1.00  0.00    -0.017 A 
HETATM   13  C7  UNK     1      17.008   5.970  32.652  1.00  0.00     0.052 A 
HETATM   14  C11 UNK     1      16.923   7.360  32.568  1.00  0.00     0.102 A 
HETATM   15  C12 UNK     1      17.954   8.154  33.071  1.00  0.00     0.101 A 
HETATM   16  C13 UNK     1      19.070   7.557  33.659  1.00  0.00     0.040 A 
HETATM   17  C9  UNK     1      19.155   6.166  33.744  1.00  0.00     0.015 A 
BRANCH  14  18
HETATM   18  O3  UNK     1      15.830   7.931  31.991  1.00  0.00    -0.353 OA
HETATM   19  C17 UNK     1      14.619   7.179  32.011  1.00  0.00     0.210 C 
ENDBRANCH  14  18
BRANCH  15  20
HETATM   20  O4  UNK     1      17.883   9.512  32.997  1.00  0.00    -0.353 OA
HETATM   21  C18 UNK     1      18.525  10.252  34.033  1.00  0.00     0.210 C 
ENDBRANCH  15  20
ENDBRANCH   3  12
BRANCH   8  22
HETATM   22  O2  UNK     1      18.375  -1.051  32.469  1.00  0.00    -0.353 OA
HETATM   23  C16 UNK     1      19.620  -1.569  32.000  1.00  0.00     0.210 C 
ENDBRANCH   8  22
TORSDOF 4
ENDMDL
MODEL 2
REMARK VINA RESULT:      -8.3      4.797     10.674
REMARK  4 active torsions:
REMARK  status: ('A' for Active; 'I' for Inactive)
REMARK    1  A    between atoms: C8_13  and  O2_2 
REMARK    2  A    between atoms: C11_16  and  O3_3 
REMARK    3  A    between atoms: C12_17  and  O4_4 
REMARK    4  A    between atoms: C1_6  and  C3_8 
ROOT
HETATM    1  O1  UNK     1      19.531  -1.072  34.931  1.00  0.00    -0.271 OA
HETATM    2  O5  UNK     1      20.572  -3.016  34.347  1.00  0.00    -0.259 OA
HETATM    3  C1  UNK     1      19.568  -2.958  36.504  1.00  0.00     0.051 A 
HETATM    4  C2  UNK     1      18.436  -0.884  37.088  1.00  0.00     0.002 A 
HETATM    5  C4  UNK     1      18.784  -0.329  35.863  1.00  0.00     0.123 A 
HETATM    6  C5  UNK     1      18.860  -2.241  37.391  1.00  0.00     0.032 A 
HETATM    7  C6  UNK     1      19.940  -2.378  35.184  1.00  0.00     0.299 A 
HETATM    8  C8  UNK     1      18.412   0.967  35.513  1.00  0.00     0.102 A 
HETATM    9  C10 UNK     1      17.692  -0.118  37.990  1.00  0.00     0.014 A 
HETATM   10  C14 UNK     1      17.671   1.725  36.416  1.00  0.00     0.040 A 
HETATM   11  C15 UNK     1      17.312   1.185  37.653  1.00  0.00     0.004 A 
ENDROOT
BRANCH   3  12
HETATM   12  C3  UNK     1      19.990  -4.325  36.862  1.00  0.00    -0.017 A 
HETATM   13  C7  UNK     1      19.219  -5.419  36.470  1.00  0.00     0.052 A 
HETATM   14  C11 UNK     1      19.619  -6.711  36.808  1.00  0.00     0.102 A 
HETATM   15  C12 UNK     1      20.790  -6.911  37.540  1.00  0.00     0.101 A 
HETATM   16  C13 UNK     1      21.561  -5.816  37.933  1.00  0.00     0.040 A 
HETATM   17  C9  UNK     1      21.161  -4.523  37.594  1.00  0.00     0.015 A 
BRANCH  14  18
HETATM   18  O3  UNK     1      18.858  -7.772  36.421  1.00  0.00    -0.353 OA
HETATM   19  C17 UNK     1      17.786  -7.505  35.517  1.00  0.00     0.210 C 
ENDBRANCH  14  18
BRANCH  15  20
HETATM   20  O4  UNK     1      21.192  -8.168  37.875  1.00  0.00    -0.353 OA
HETATM   21  C18 UNK     1      22.343  -8.680  37.207  1.00  0.00     0.210 C 
ENDBRANCH  15  20
ENDBRANCH   3  12
BRANCH   8  22
HETATM   22  O2  UNK     1      18.760   1.498  34.310  1.00  0.00    -0.353 OA
HETATM   23  C16 UNK     1      18.316   2.826  34.031  1.00  0.00     0.210 C 
ENDBRANCH   8  22
TORSDOF 4
ENDMDL
MODEL 3
REMARK VINA RESULT:      -8.2      1.567      7.581
REMARK  4 active torsions:
REMARK  status: ('A' for Active; 'I' for Inactive)
REMARK    1  A    between atoms: C8_13  and  O2_2 
REMARK    2  A    between atoms: C11_16  and  O3_3 
REMARK    3  A    between atoms: C12_17  and  O4_4 
REMARK    4  A    between atoms: C1_6  and  C3_8 
ROOT
HETATM    1  O1  UNK     1      16.913   7.772  32.888  1.00  0.00    -0.271 OA
HETATM    2  O5  UNK     1      15.945   5.849  32.133  1.00  0.00    -0.259 OA
HETATM    3  C1  UNK     1      18.217   5.691  32.823  1.00  0.00     0.051 A 
HETATM    4  C2  UNK     1      19.215   7.750  33.656  1.00  0.00     0.002 A 
HETATM    5  C4  UNK     1      18.030   8.437  33.425  1.00  0.00     0.123 A 
HETATM    6  C5  UNK     1      19.281   6.334  33.329  1.00  0.00     0.032 A 
HETATM    7  C6  UNK     1      16.939   6.414  32.579  1.00  0.00     0.299 A 
HETATM    8  C8  UNK     1      17.902   9.795  33.711  1.00  0.00     0.102 A 
HETATM    9  C10 UNK     1      20.305   8.442  34.190  1.00  0.00     0.014 A 
HETATM   10  C14 UNK     1      18.992  10.479  34.244  1.00  0.00     0.040 A 
HETATM   11  C15 UNK     1      20.192   9.804  34.483  1.00  0.00     0.004 A 
ENDROOT
BRANCH   3  12
HETATM   12  C3  UNK     1      18.337   4.259  32.493  1.00  0.00    -0.017 A 
HETATM   13  C7  UNK     1      18.600   3.866  31.180  1.00  0.00     0.052 A 
HETATM   14  C11 UNK     1      18.714   2.511  30.868  1.00  0.00     0.102 A 
HETATM   15  C12 UNK     1      18.565   1.549  31.868  1.00  0.00     0.101 A 
HETATM   16  C13 UNK     1      18.302   1.943  33.180  1.00  0.00     0.040 A 
HETATM   17  C9  UNK     1      18.189   3.298  33.493  1.00  0.00     0.015 A 
BRANCH  14  18
HETATM   18  O3  UNK     1      18.969   2.138  29.584  1.00  0.00    -0.353 OA
HETATM   19  C17 UNK     1      17.850   2.027  28.706  1.00  0.00     0.210 C 
ENDBRANCH  14  18
BRANCH  15  20
HETATM   20  O4  UNK     1      18.676   0.223  31.576  1.00  0.00    -0.353 OA
HETATM   21  C18 UNK     1      18.742  -0.679  32.678  1.00  0.00     0.210 C 
ENDBRANCH  15  20
ENDBRANCH   3  12
BRANCH   8  22
HETATM   22  O2  UNK     1      16.736  10.455  33.481  1.00  0.00    -0.353 OA
HETATM   23  C16 UNK     1      16.453  11.584  34.308  1.00  0.00     0.210 C 
ENDBRANCH   8  22
TORSDOF 4
ENDMDL
MODEL 4
REMARK VINA RESULT:      -8.2      1.667      7.701
REMARK  4 active torsions:
REMARK  status: ('A' for Active; 'I' for Inactive)
REMARK    1  A    between atoms: C8_13  and  O2_2 
REMARK    2  A    between atoms: C11_16  and  O3_3 
REMARK    3  A    between atoms: C12_17  and  O4_4 
REMARK    4  A    between atoms: C1_6  and  C3_8 
ROOT
HETATM    1  O1  UNK     1      17.083   8.150  32.876  1.00  0.00    -0.271 OA
HETATM    2  O5  UNK     1      16.051   6.348  31.932  1.00  0.00    -0.259 OA
HETATM    3  C1  UNK     1      18.350   6.082  32.486  1.00  0.00     0.051 A 
HETATM    4  C2  UNK     1      19.419   8.009  33.522  1.00  0.00     0.002 A 
HETATM    5  C4  UNK     1      18.235   8.732  33.437  1.00  0.00     0.123 A 
HETATM    6  C5  UNK     1      19.446   6.645  33.017  1.00  0.00     0.032 A 
HETATM    7  C6  UNK     1      17.073   6.843  32.398  1.00  0.00     0.299 A 
HETATM    8  C8  UNK     1      18.142  10.043  33.899  1.00  0.00     0.102 A 
HETATM    9  C10 UNK     1      20.543   8.617  34.086  1.00  0.00     0.014 A 
HETATM   10  C14 UNK     1      19.266  10.643  34.460  1.00  0.00     0.040 A 
HETATM   11  C15 UNK     1      20.465   9.932  34.553  1.00  0.00     0.004 A 
ENDROOT
BRANCH   3  12
HETATM   12  C3  UNK     1      18.432   4.702  31.972  1.00  0.00    -0.017 A 
HETATM   13  C7  UNK     1      18.187   3.625  32.824  1.00  0.00     0.052 A 
HETATM   14  C11 UNK     1      18.263   2.320  32.337  1.00  0.00     0.102 A 
HETATM   15  C12 UNK     1      18.586   2.092  30.998  1.00  0.00     0.101 A 
HETATM   16  C13 UNK     1      18.831   3.170  30.147  1.00  0.00     0.040 A 
HETATM   17  C9  UNK     1      18.754   4.476  30.634  1.00  0.00     0.015 A 
BRANCH  14  18
HETATM   18  O3  UNK     1      18.023   1.276  33.177  1.00  0.00    -0.353 OA
HETATM   19  C17 UNK     1      18.264   1.493  34.566  1.00  0.00     0.210 C 
ENDBRANCH  14  18
BRANCH  15  20
HETATM   20  O4  UNK     1      18.662   0.823  30.510  1.00  0.00    -0.353 OA
HETATM   21  C18 UNK     1      19.591   0.589  29.455  1.00  0.00     0.210 C 
ENDBRANCH  15  20
ENDBRANCH   3  12
BRANCH   8  22
HETATM   22  O2  UNK     1      16.977  10.738  33.811  1.00  0.00    -0.353 OA
HETATM   23  C16 UNK     1      16.979  12.078  34.305  1.00  0.00     0.210 C 
ENDBRANCH   8  22
TORSDOF 4
ENDMDL
MODEL 5
REMARK VINA RESULT:      -8.1      5.082     10.972
REMARK  4 active torsions:
REMARK  status: ('A' for Active; 'I' for Inactive)
REMARK    1  A    between atoms: C8_13  and  O2_2 
REMARK    2  A    between atoms: C11_16  and  O3_3 
REMARK    3  A    between atoms: C12_17  and  O4_4 
REMARK    4  A    between atoms: C1_6  and  C3_8 
ROOT
HETATM    1  O1  UNK     1      19.755  -1.105  34.982  1.00  0.00    -0.271 OA
HETATM    2  O5  UNK     1      20.849  -2.976  34.270  1.00  0.00    -0.259 OA
HETATM    3  C1  UNK     1      19.708  -3.144  36.352  1.00  0.00     0.051 A 
HETATM    4  C2  UNK     1      18.522  -1.144  37.072  1.00  0.00     0.002 A 
HETATM    5  C4  UNK     1      18.943  -0.464  35.936  1.00  0.00     0.123 A 
HETATM    6  C5  UNK     1      18.939  -2.524  37.260  1.00  0.00     0.032 A 
HETATM    7  C6  UNK     1      20.159  -2.430  35.125  1.00  0.00     0.299 A 
HETATM    8  C8  UNK     1      18.583   0.860  35.698  1.00  0.00     0.102 A 
HETATM    9  C10 UNK     1      17.716  -0.477  37.998  1.00  0.00     0.014 A 
HETATM   10  C14 UNK     1      17.778   1.519  36.624  1.00  0.00     0.040 A 
HETATM   11  C15 UNK     1      17.346   0.852  37.773  1.00  0.00     0.004 A 
ENDROOT
BRANCH   3  12
HETATM   12  C3  UNK     1      20.119  -4.539  36.594  1.00  0.00    -0.017 A 
HETATM   13  C7  UNK     1      20.828  -4.867  37.750  1.00  0.00     0.052 A 
HETATM   14  C11 UNK     1      21.215  -6.187  37.979  1.00  0.00     0.102 A 
HETATM   15  C12 UNK     1      20.895  -7.180  37.053  1.00  0.00     0.101 A 
HETATM   16  C13 UNK     1      20.186  -6.852  35.897  1.00  0.00     0.040 A 
HETATM   17  C9  UNK     1      19.798  -5.531  35.667  1.00  0.00     0.015 A 
BRANCH  14  18
HETATM   18  O3  UNK     1      21.908  -6.496  39.110  1.00  0.00    -0.353 OA
HETATM   19  C17 UNK     1      23.312  -6.246  39.099  1.00  0.00     0.210 C 
ENDBRANCH  14  18
BRANCH  15  20
HETATM   20  O4  UNK     1      21.266  -8.473  37.266  1.00  0.00    -0.353 OA
HETATM   21  C18 UNK     1      22.362  -8.967  36.499  1.00  0.00     0.210 C 
ENDBRANCH  15  20
ENDBRANCH   3  12
BRANCH   8  22
HETATM   22  O2  UNK     1      19.002   1.513  34.580  1.00  0.00    -0.353 OA
HETATM   23  C16 UNK     1      17.998   1.918  33.649  1.00  0.00     0.210 C 
ENDBRANCH   8  22
TORSDOF 4
ENDMDL
MODEL 6
REMARK VINA RESULT:      -8.1      1.861      7.684
REMARK  4 active torsions:
REMARK  status: ('A' for Active; 'I' for Inactive)
REMARK    1  A    between atoms: C8_13  and  O2_2 
REMARK    2  A    between atoms: C11_16  and  O3_3 
REMARK    3  A    between atoms: C12_17  and  O4_4 
REMARK    4  A    between atoms: C1_6  and  C3_8 
ROOT
HETATM    1  O1  UNK     1      18.944   8.016  33.100  1.00  0.00    -0.271 OA
HETATM    2  O5  UNK     1      20.377   6.401  32.363  1.00  0.00    -0.259 OA
HETATM    3  C1  UNK     1      18.062   5.849  32.353  1.00  0.00     0.051 A 
HETATM    4  C2  UNK     1      16.553   7.601  33.113  1.00  0.00     0.002 A 
HETATM    5  C4  UNK     1      17.629   8.446  33.353  1.00  0.00     0.123 A 
HETATM    6  C5  UNK     1      16.811   6.264  32.602  1.00  0.00     0.032 A 
HETATM    7  C6  UNK     1      19.223   6.748  32.597  1.00  0.00     0.299 A 
HETATM    8  C8  UNK     1      17.451   9.737  33.846  1.00  0.00     0.102 A 
HETATM    9  C10 UNK     1      15.260   8.061  33.374  1.00  0.00     0.014 A 
HETATM   10  C14 UNK     1      16.160  10.191  34.104  1.00  0.00     0.040 A 
HETATM   11  C15 UNK     1      15.066   9.354  33.869  1.00  0.00     0.004 A 
ENDROOT
BRANCH   3  12
HETATM   12  C3  UNK     1      18.275   4.478  31.851  1.00  0.00    -0.017 A 
HETATM   13  C7  UNK     1      18.173   3.393  32.721  1.00  0.00     0.052 A 
HETATM   14  C11 UNK     1      18.373   2.097  32.245  1.00  0.00     0.102 A 
HETATM   15  C12 UNK     1      18.676   1.886  30.899  1.00  0.00     0.101 A 
HETATM   16  C13 UNK     1      18.778   2.972  30.030  1.00  0.00     0.040 A 
HETATM   17  C9  UNK     1      18.577   4.269  30.505  1.00  0.00     0.015 A 
BRANCH  14  18
HETATM   18  O3  UNK     1      18.273   1.044  33.103  1.00  0.00    -0.353 OA
HETATM   19  C17 UNK     1      18.171   1.349  34.494  1.00  0.00     0.210 C 
ENDBRANCH  14  18
BRANCH  15  20
HETATM   20  O4  UNK     1      18.872   0.625  30.423  1.00  0.00    -0.353 OA
HETATM   21  C18 UNK     1      19.677   0.493  29.253  1.00  0.00     0.210 C 
ENDBRANCH  15  20
ENDBRANCH   3  12
BRANCH   8  22
HETATM   22  O2  UNK     1      18.514  10.555  34.076  1.00  0.00    -0.353 OA
HETATM   23  C16 UNK     1      18.249  11.954  34.175  1.00  0.00     0.210 C 
ENDBRANCH   8  22
TORSDOF 4
ENDMDL
MODEL 7
REMARK VINA RESULT:      -8.0      1.799      7.639
REMARK  4 active torsions:
REMARK  status: ('A' for Active; 'I' for Inactive)
REMARK    1  A    between atoms: C8_13  and  O2_2 
REMARK    2  A    between atoms: C11_16  and  O3_3 
REMARK    3  A    between atoms: C12_17  and  O4_4 
REMARK    4  A    between atoms: C1_6  and  C3_8 
ROOT
HETATM    1  O1  UNK     1      18.895   7.866  33.146  1.00  0.00    -0.271 OA
HETATM    2  O5  UNK     1      20.335   6.155  32.695  1.00  0.00    -0.259 OA
HETATM    3  C1  UNK     1      18.015   5.624  32.664  1.00  0.00     0.051 A 
HETATM    4  C2  UNK     1      16.499   7.474  33.116  1.00  0.00     0.002 A 
HETATM    5  C4  UNK     1      17.576   8.337  33.283  1.00  0.00     0.123 A 
HETATM    6  C5  UNK     1      16.760   6.078  32.802  1.00  0.00     0.032 A 
HETATM    7  C6  UNK     1      19.177   6.539  32.832  1.00  0.00     0.299 A 
HETATM    8  C8  UNK     1      17.395   9.684  33.588  1.00  0.00     0.102 A 
HETATM    9  C10 UNK     1      15.203   7.976  33.258  1.00  0.00     0.014 A 
HETATM   10  C14 UNK     1      16.101  10.178  33.728  1.00  0.00     0.040 A 
HETATM   11  C15 UNK     1      15.006   9.326  33.564  1.00  0.00     0.004 A 
ENDROOT
BRANCH   3  12
HETATM   12  C3  UNK     1      18.230   4.196  32.362  1.00  0.00    -0.017 A 
HETATM   13  C7  UNK     1      18.507   3.794  31.055  1.00  0.00     0.052 A 
HETATM   14  C11 UNK     1      18.711   2.444  30.770  1.00  0.00     0.102 A 
HETATM   15  C12 UNK     1      18.637   1.495  31.791  1.00  0.00     0.101 A 
HETATM   16  C13 UNK     1      18.360   1.898  33.098  1.00  0.00     0.040 A 
HETATM   17  C9  UNK     1      18.156   3.249  33.383  1.00  0.00     0.015 A 
BRANCH  14  18
HETATM   18  O3  UNK     1      18.979   2.062  29.491  1.00  0.00    -0.353 OA
HETATM   19  C17 UNK     1      17.867   1.924  28.609  1.00  0.00     0.210 C 
ENDBRANCH  14  18
BRANCH  15  20
HETATM   20  O4  UNK     1      18.836   0.174  31.526  1.00  0.00    -0.353 OA
HETATM   21  C18 UNK     1      18.809  -0.721  32.636  1.00  0.00     0.210 C 
ENDBRANCH  15  20
ENDBRANCH   3  12
BRANCH   8  22
HETATM   22  O2  UNK     1      18.458  10.517  33.749  1.00  0.00    -0.353 OA
HETATM   23  C16 UNK     1      18.176  11.875  34.086  1.00  0.00     0.210 C 
ENDBRANCH   8  22
TORSDOF 4
ENDMDL
MODEL 8
REMARK VINA RESULT:      -8.0      1.576      2.077
REMARK  4 active torsions:
REMARK  status: ('A' for Active; 'I' for Inactive)
REMARK    1  A    between atoms: C8_13  and  O2_2 
REMARK    2  A    between atoms: C11_16  and  O3_3 
REMARK    3  A    between atoms: C12_17  and  O4_4 
REMARK    4  A    between atoms: C1_6  and  C3_8 
ROOT
HETATM    1  O1  UNK     1      19.129   2.950  30.214  1.00  0.00    -0.271 OA
HETATM    2  O5  UNK     1      19.001   5.172  29.714  1.00  0.00    -0.259 OA
HETATM    3  C1  UNK     1      18.326   4.538  31.907  1.00  0.00     0.051 A 
HETATM    4  C2  UNK     1      18.504   2.167  32.425  1.00  0.00     0.002 A 
HETATM    5  C4  UNK     1      18.973   1.905  31.143  1.00  0.00     0.123 A 
HETATM    6  C5  UNK     1      18.174   3.536  32.786  1.00  0.00     0.032 A 
HETATM    7  C6  UNK     1      18.836   4.273  30.534  1.00  0.00     0.299 A 
HETATM    8  C8  UNK     1      19.303   0.615  30.733  1.00  0.00     0.102 A 
HETATM    9  C10 UNK     1      18.362   1.105  33.322  1.00  0.00     0.014 A 
HETATM   10  C14 UNK     1      19.160  -0.438  31.632  1.00  0.00     0.040 A 
HETATM   11  C15 UNK     1      18.689  -0.195  32.924  1.00  0.00     0.004 A 
ENDROOT
BRANCH   3  12
HETATM   12  C3  UNK     1      17.962   5.908  32.314  1.00  0.00    -0.017 A 
HETATM   13  C7  UNK     1      16.688   6.403  32.036  1.00  0.00     0.052 A 
HETATM   14  C11 UNK     1      16.343   7.699  32.422  1.00  0.00     0.102 A 
HETATM   15  C12 UNK     1      17.274   8.500  33.085  1.00  0.00     0.101 A 
HETATM   16  C13 UNK     1      18.548   8.005  33.362  1.00  0.00     0.040 A 
HETATM   17  C9  UNK     1      18.893   6.709  32.977  1.00  0.00     0.015 A 
BRANCH  14  18
HETATM   18  O3  UNK     1      15.097   8.172  32.146  1.00  0.00    -0.353 OA
HETATM   19  C17 UNK     1      14.003   7.281  32.357  1.00  0.00     0.210 C 
ENDBRANCH  14  18
BRANCH  15  20
HETATM   20  O4  UNK     1      16.949   9.766  33.468  1.00  0.00    -0.353 OA
HETATM   21  C18 UNK     1      18.016  10.602  33.913  1.00  0.00     0.210 C 
ENDBRANCH  15  20
ENDBRANCH   3  12
BRANCH   8  22
HETATM   22  O2  UNK     1      19.763   0.374  29.475  1.00  0.00    -0.353 OA
HETATM   23  C16 UNK     1      20.515  -0.823  29.276  1.00  0.00     0.210 C 
ENDBRANCH   8  22
TORSDOF 4
ENDMDL
MODEL 9
REMARK VINA RESULT:      -8.0      1.788      2.837
REMARK  4 active torsions:
REMARK  status: ('A' for Active; 'I' for Inactive)
REMARK    1  A    between atoms: C8_13  and  O2_2 
REMARK    2  A    between atoms: C11_16  and  O3_3 
REMARK    3  A    between atoms: C12_17  and  O4_4 
REMARK    4  A    between atoms: C1_6  and  C3_8 
ROOT
HETATM    1  O1  UNK     1      18.764   1.485  32.936  1.00  0.00    -0.271 OA
HETATM    2  O5  UNK     1      18.154   3.170  34.347  1.00  0.00    -0.259 OA
HETATM    3  C1  UNK     1      18.390   3.745  32.050  1.00  0.00     0.051 A 
HETATM    4  C2  UNK     1      19.010   1.922  30.561  1.00  0.00     0.002 A 
HETATM    5  C4  UNK     1      19.051   1.039  31.633  1.00  0.00     0.123 A 
HETATM    6  C5  UNK     1      18.670   3.314  30.810  1.00  0.00     0.032 A 
HETATM    7  C6  UNK     1      18.422   2.807  33.205  1.00  0.00     0.299 A 
HETATM    8  C8  UNK     1      19.373  -0.306  31.462  1.00  0.00     0.102 A 
HETATM    9  C10 UNK     1      19.299   1.444  29.280  1.00  0.00     0.014 A 
HETATM   10  C14 UNK     1      19.660  -0.776  30.183  1.00  0.00     0.040 A 
HETATM   11  C15 UNK     1      19.624   0.097  29.094  1.00  0.00     0.004 A 
ENDROOT
BRANCH   3  12
HETATM   12  C3  UNK     1      18.068   5.170  32.255  1.00  0.00    -0.017 A 
HETATM   13  C7  UNK     1      16.864   5.688  31.778  1.00  0.00     0.052 A 
HETATM   14  C11 UNK     1      16.559   7.035  31.973  1.00  0.00     0.102 A 
HETATM   15  C12 UNK     1      17.457   7.864  32.646  1.00  0.00     0.101 A 
HETATM   16  C13 UNK     1      18.661   7.345  33.123  1.00  0.00     0.040 A 
HETATM   17  C9  UNK     1      18.966   5.997  32.928  1.00  0.00     0.015 A 
BRANCH  14  18
HETATM   18  O3  UNK     1      15.382   7.532  31.502  1.00  0.00    -0.353 OA
HETATM   19  C17 UNK     1      14.202   7.210  32.237  1.00  0.00     0.210 C 
ENDBRANCH  14  18
BRANCH  15  20
HETATM   20  O4  UNK     1      17.170   9.181  32.845  1.00  0.00    -0.353 OA
HETATM   21  C18 UNK     1      16.711   9.555  34.142  1.00  0.00     0.210 C 
ENDBRANCH  15  20
ENDBRANCH   3  12
BRANCH   8  22
HETATM   22  O2  UNK     1      19.409  -1.160  32.521  1.00  0.00    -0.353 OA
HETATM   23  C16 UNK     1      20.442  -2.145  32.527  1.00  0.00     0.210 C 
ENDBRANCH   8  22
TORSDOF 4
ENDMDL
MODEL 10
REMARK VINA RESULT:      -7.8      1.830      2.918
REMARK  4 active torsions:
REMARK  status: ('A' for Active; 'I' for Inactive)
REMARK    1  A    between atoms: C8_13  and  O2_2 
REMARK    2  A    between atoms: C11_16  and  O3_3 
REMARK    3  A    between atoms: C12_17  and  O4_4 
REMARK    4  A    between atoms: C1_6  and  C3_8 
ROOT
HETATM    1  O1  UNK     1      19.100   2.921  30.360  1.00  0.00    -0.271 OA
HETATM    2  O5  UNK     1      18.897   5.179  30.105  1.00  0.00    -0.259 OA
HETATM    3  C1  UNK     1      18.283   4.294  32.226  1.00  0.00     0.051 A 
HETATM    4  C2  UNK     1      18.540   1.887  32.483  1.00  0.00     0.002 A 
HETATM    5  C4  UNK     1      18.992   1.779  31.173  1.00  0.00     0.123 A 
HETATM    6  C5  UNK     1      18.177   3.199  32.994  1.00  0.00     0.032 A 
HETATM    7  C6  UNK     1      18.774   4.193  30.825  1.00  0.00     0.299 A 
HETATM    8  C8  UNK     1      19.352   0.551  30.621  1.00  0.00     0.102 A 
HETATM    9  C10 UNK     1      18.446   0.731  33.263  1.00  0.00     0.014 A 
HETATM   10  C14 UNK     1      19.256  -0.597  31.404  1.00  0.00     0.040 A 
HETATM   11  C15 UNK     1      18.803  -0.508  32.722  1.00  0.00     0.004 A 
ENDROOT
BRANCH   3  12
HETATM   12  C3  UNK     1      17.886   5.600  32.784  1.00  0.00    -0.017 A 
HETATM   13  C7  UNK     1      18.741   6.274  33.657  1.00  0.00     0.052 A 
HETATM   14  C11 UNK     1      18.367   7.510  34.183  1.00  0.00     0.102 A 
HETATM   15  C12 UNK     1      17.137   8.073  33.838  1.00  0.00     0.101 A 
HETATM   16  C13 UNK     1      16.282   7.398  32.966  1.00  0.00     0.040 A 
HETATM   17  C9  UNK     1      16.657   6.161  32.439  1.00  0.00     0.015 A 
BRANCH  14  18
HETATM   18  O3  UNK     1      19.208   8.159  35.034  1.00  0.00    -0.353 OA
HETATM   19  C17 UNK     1      20.178   9.027  34.450  1.00  0.00     0.210 C 
ENDBRANCH  14  18
BRANCH  15  20
HETATM   20  O4  UNK     1      16.760   9.280  34.345  1.00  0.00    -0.353 OA
HETATM   21  C18 UNK     1      15.387   9.435  34.697  1.00  0.00     0.210 C 
ENDBRANCH  15  20
ENDBRANCH   3  12
BRANCH   8  22
HETATM   22  O2  UNK     1      19.794   0.461  29.338  1.00  0.00    -0.353 OA
HETATM   23  C16 UNK     1      20.491  -0.731  28.973  1.00  0.00     0.210 C 
ENDBRANCH   8  22
TORSDOF 4
ENDMDL
