MODEL 1
REMARK VINA RESULT:      -8.6      0.000      0.000
REMARK  6 active torsions:
REMARK  status: ('A' for Active; 'I' for Inactive)
REMARK    1  A    between atoms: C14_21  and  O3_4 
REMARK    2  A    between atoms: C20_27  and  O3_4 
REMARK    3  A    between atoms: C12_19  and  C6_13 
REMARK    4  A    between atoms: C10_17  and  C14_21 
REMARK    5  A    between atoms: C20_27  and  C22_29 
REMARK    6  A    between atoms: C22_29  and  C25_32 
ROOT
HETATM    1  O1  UNK     1      27.211 -10.021  35.845  1.00  0.00    -0.293 OA
HETATM    2  N1  UNK     1      28.420  -5.823  37.674  1.00  0.00    -0.362 N 
HETATM    3  C1  UNK     1      25.805  -8.328  38.727  1.00  0.00    -0.036 C 
HETATM    4  C2  UNK     1      26.364  -6.916  38.459  1.00  0.00     0.067 C 
HETATM    5  C3  UNK     1      25.659  -9.074  37.394  1.00  0.00     0.092 C 
HETATM    6  C4  UNK     1      27.561  -6.898  37.542  1.00  0.00     0.021 C 
HETATM    7  C5  UNK     1      27.834  -7.880  36.657  1.00  0.00     0.024 C 
HETATM    8  C6  UNK     1      29.059  -7.807  35.747  1.00  0.00     0.104 C 
HETATM    9  C7  UNK     1      26.938  -9.075  36.582  1.00  0.00     0.159 C 
HETATM   10  C8  UNK     1      26.730  -9.108  39.683  1.00  0.00     0.015 C 
HETATM   11  C9  UNK     1      24.423  -8.206  39.394  1.00  0.00     0.015 C 
HETATM   12  C10 UNK     1      30.011  -6.674  36.143  1.00  0.00     0.052 C 
HETATM   13  C11 UNK     1      29.649  -5.730  37.042  1.00  0.00     0.018 C 
HETATM   14  C13 UNK     1      30.487  -4.548  37.450  1.00  0.00     0.069 C 
HETATM   15  H12 UNK     1      28.180  -5.105  38.349  1.00  0.00     0.165 HD
ENDROOT
BRANCH   8  16
HETATM   16  C12 UNK     1      28.641  -7.655  34.306  1.00  0.00     0.029 A 
HETATM   17  C15 UNK     1      29.001  -8.729  33.346  1.00  0.00     0.194 A 
HETATM   18  O5  UNK     1      29.622  -9.727  33.688  1.00  0.00    -0.287 OA
HETATM   19  C17 UNK     1      28.568  -8.530  31.950  1.00  0.00     0.050 A 
HETATM   20  C18 UNK     1      27.863  -7.373  31.617  1.00  0.00     0.089 A 
HETATM   21  C19 UNK     1      28.859  -9.483  30.971  1.00  0.00     0.042 A 
HETATM   22  O2  UNK     1      27.551  -6.404  32.536  1.00  0.00    -0.321 OA
HETATM   23  C21 UNK     1      27.444  -7.165  30.303  1.00  0.00     0.040 A 
HETATM   24  C16 UNK     1      27.960  -6.604  33.833  1.00  0.00     0.154 A 
HETATM   25  C24 UNK     1      27.733  -8.115  29.324  1.00  0.00     0.026 A 
HETATM   26  C23 UNK     1      28.438  -9.272  29.658  1.00  0.00     0.035 A 
HETATM   27 Cl1  UNK     1      28.791 -10.442  28.444  1.00  0.00    -0.084 Cl
ENDBRANCH   8  16
BRANCH  12  28
HETATM   28  C14 UNK     1      31.354  -6.697  35.542  1.00  0.00     0.292 C 
HETATM   29  O4  UNK     1      32.274  -7.361  35.984  1.00  0.00    -0.259 OA
BRANCH  28  30
HETATM   30  O3  UNK     1      31.354  -5.878  34.464  1.00  0.00    -0.317 OA
BRANCH  30  31
HETATM   31  C20 UNK     1      31.996  -6.408  33.299  1.00  0.00     0.183 C 
BRANCH  31  32
HETATM   32  C22 UNK     1      31.210  -6.014  32.054  1.00  0.00     0.065 C 
BRANCH  32  33
HETATM   33  C25 UNK     1      31.505  -6.916  30.879  1.00  0.00    -0.056 A 
HETATM   34  C27 UNK     1      32.197  -8.100  31.089  1.00  0.00     0.007 A 
HETATM   35  C29 UNK     1      32.469  -8.933  30.005  1.00  0.00     0.001 A 
HETATM   36  C30 UNK     1      32.046  -8.574  28.725  1.00  0.00     0.000 A 
HETATM   37  C28 UNK     1      31.352  -7.381  28.530  1.00  0.00     0.001 A 
HETATM   38  C26 UNK     1      31.079  -6.547  29.614  1.00  0.00     0.007 A 
ENDBRANCH  32  33
ENDBRANCH  31  32
ENDBRANCH  30  31
ENDBRANCH  28  30
ENDBRANCH  12  28
TORSDOF 6
ENDMDL
MODEL 2
REMARK VINA RESULT:      -8.3      2.605      6.419
REMARK  6 active torsions:
REMARK  status: ('A' for Active; 'I' for Inactive)
REMARK    1  A    between atoms: C14_21  and  O3_4 
REMARK    2  A    between atoms: C20_27  and  O3_4 
REMARK    3  A    between atoms: C12_19  and  C6_13 
REMARK    4  A    between atoms: C10_17  and  C14_21 
REMARK    5  A    between atoms: C20_27  and  C22_29 
REMARK    6  A    between atoms: C22_29  and  C25_32 
ROOT
HETATM    1  O1  UNK     1      32.191  -5.409  33.627  1.00  0.00    -0.293 OA
HETATM    2  N1  UNK     1      32.741  -9.121  36.516  1.00  0.00    -0.362 N 
HETATM    3  C1  UNK     1      35.261  -6.755  35.008  1.00  0.00    -0.036 C 
HETATM    4  C2  UNK     1      34.726  -8.128  35.461  1.00  0.00     0.067 C 
HETATM    5  C3  UNK     1      34.417  -6.248  33.831  1.00  0.00     0.092 C 
HETATM    6  C4  UNK     1      33.229  -8.172  35.637  1.00  0.00     0.021 C 
HETATM    7  C5  UNK     1      32.383  -7.320  35.019  1.00  0.00     0.024 C 
HETATM    8  C6  UNK     1      30.873  -7.414  35.229  1.00  0.00     0.104 C 
HETATM    9  C7  UNK     1      32.933  -6.248  34.133  1.00  0.00     0.159 C 
HETATM   10  C8  UNK     1      35.224  -5.744  36.173  1.00  0.00     0.015 C 
HETATM   11  C9  UNK     1      36.725  -6.907  34.555  1.00  0.00     0.015 C 
HETATM   12  C10 UNK     1      30.502  -8.368  36.368  1.00  0.00     0.052 C 
HETATM   13  C11 UNK     1      31.420  -9.189  36.928  1.00  0.00     0.018 C 
HETATM   14  C13 UNK     1      31.142 -10.202  38.006  1.00  0.00     0.069 C 
HETATM   15  H12 UNK     1      33.408  -9.743  36.959  1.00  0.00     0.165 HD
ENDROOT
BRANCH   8  16
HETATM   16  C12 UNK     1      30.185  -7.834  33.954  1.00  0.00     0.029 A 
HETATM   17  C15 UNK     1      29.081  -6.989  33.433  1.00  0.00     0.194 A 
HETATM   18  O5  UNK     1      28.715  -5.970  34.003  1.00  0.00    -0.287 OA
HETATM   19  C17 UNK     1      28.443  -7.445  32.184  1.00  0.00     0.050 A 
HETATM   20  C18 UNK     1      28.900  -8.615  31.577  1.00  0.00     0.089 A 
HETATM   21  C19 UNK     1      27.394  -6.720  31.613  1.00  0.00     0.042 A 
HETATM   22  O2  UNK     1      29.925  -9.367  32.092  1.00  0.00    -0.321 OA
HETATM   23  C21 UNK     1      28.311  -9.065  30.394  1.00  0.00     0.040 A 
HETATM   24  C16 UNK     1      30.510  -8.929  33.256  1.00  0.00     0.154 A 
HETATM   25  C24 UNK     1      27.264  -8.342  29.822  1.00  0.00     0.026 A 
HETATM   26  C23 UNK     1      26.807  -7.172  30.430  1.00  0.00     0.035 A 
HETATM   27 Cl1  UNK     1      25.515  -6.284  29.719  1.00  0.00    -0.084 Cl
ENDBRANCH   8  16
BRANCH  12  28
HETATM   28  C14 UNK     1      29.116  -8.307  36.859  1.00  0.00     0.292 C 
HETATM   29  O4  UNK     1      28.351  -9.253  36.820  1.00  0.00    -0.259 OA
BRANCH  28  30
HETATM   30  O3  UNK     1      28.885  -7.061  37.334  1.00  0.00    -0.317 OA
BRANCH  30  31
HETATM   31  C20 UNK     1      28.638  -6.983  38.742  1.00  0.00     0.183 C 
BRANCH  31  32
HETATM   32  C22 UNK     1      29.077  -5.622  39.268  1.00  0.00     0.065 C 
BRANCH  32  33
HETATM   33  C25 UNK     1      30.238  -5.052  38.488  1.00  0.00    -0.056 A 
HETATM   34  C27 UNK     1      30.030  -3.959  37.661  1.00  0.00     0.007 A 
HETATM   35  C29 UNK     1      31.101  -3.433  36.941  1.00  0.00     0.001 A 
HETATM   36  C30 UNK     1      32.368  -4.007  37.056  1.00  0.00     0.000 A 
HETATM   37  C28 UNK     1      32.562  -5.106  37.892  1.00  0.00     0.001 A 
HETATM   38  C26 UNK     1      31.490  -5.632  38.613  1.00  0.00     0.007 A 
ENDBRANCH  32  33
ENDBRANCH  31  32
ENDBRANCH  30  31
ENDBRANCH  28  30
ENDBRANCH  12  28
TORSDOF 6
ENDMDL
MODEL 3
REMARK VINA RESULT:      -8.0      2.479      3.689
REMARK  6 active torsions:
REMARK  status: ('A' for Active; 'I' for Inactive)
REMARK    1  A    between atoms: C14_21  and  O3_4 
REMARK    2  A    between atoms: C20_27  and  O3_4 
REMARK    3  A    between atoms: C12_19  and  C6_13 
REMARK    4  A    between atoms: C10_17  and  C14_21 
REMARK    5  A    between atoms: C20_27  and  C22_29 
REMARK    6  A    between atoms: C22_29  and  C25_32 
ROOT
HETATM    1  O1  UNK     1      30.089  -9.648  35.141  1.00  0.00    -0.293 OA
HETATM    2  N1  UNK     1      28.831  -5.683  37.406  1.00  0.00    -0.362 N 
HETATM    3  C1  UNK     1      27.342  -9.147  37.454  1.00  0.00    -0.036 C 
HETATM    4  C2  UNK     1      27.302  -7.606  37.433  1.00  0.00     0.067 C 
HETATM    5  C3  UNK     1      27.912  -9.656  36.123  1.00  0.00     0.092 C 
HETATM    6  C4  UNK     1      28.584  -6.969  36.962  1.00  0.00     0.021 C 
HETATM    7  C5  UNK     1      29.487  -7.603  36.185  1.00  0.00     0.024 C 
HETATM    8  C6  UNK     1      30.769  -6.907  35.731  1.00  0.00     0.104 C 
HETATM    9  C7  UNK     1      29.243  -9.022  35.779  1.00  0.00     0.159 C 
HETATM   10  C8  UNK     1      28.195  -9.654  38.635  1.00  0.00     0.015 C 
HETATM   11  C9  UNK     1      25.911  -9.688  37.633  1.00  0.00     0.015 C 
HETATM   12  C10 UNK     1      30.995  -5.577  36.456  1.00  0.00     0.052 C 
HETATM   13  C11 UNK     1      30.029  -5.014  37.217  1.00  0.00     0.018 C 
HETATM   14  C13 UNK     1      30.132  -3.685  37.917  1.00  0.00     0.069 C 
HETATM   15  H12 UNK     1      28.128  -5.240  37.987  1.00  0.00     0.165 HD
ENDROOT
BRANCH   8  16
HETATM   16  C12 UNK     1      30.756  -6.689  34.239  1.00  0.00     0.029 A 
HETATM   17  C15 UNK     1      31.846  -7.285  33.426  1.00  0.00     0.194 A 
HETATM   18  O5  UNK     1      32.748  -7.943  33.928  1.00  0.00    -0.287 OA
HETATM   19  C17 UNK     1      31.785  -7.043  31.972  1.00  0.00     0.050 A 
HETATM   20  C18 UNK     1      30.734  -6.286  31.455  1.00  0.00     0.089 A 
HETATM   21  C19 UNK     1      32.765  -7.561  31.122  1.00  0.00     0.042 A 
HETATM   22  O2  UNK     1      29.746  -5.753  32.242  1.00  0.00    -0.321 OA
HETATM   23  C21 UNK     1      30.657  -6.044  30.083  1.00  0.00     0.040 A 
HETATM   24  C16 UNK     1      29.815  -5.988  33.594  1.00  0.00     0.154 A 
HETATM   25  C24 UNK     1      31.634  -6.561  29.231  1.00  0.00     0.026 A 
HETATM   26  C23 UNK     1      32.685  -7.318  29.750  1.00  0.00     0.035 A 
HETATM   27 Cl1  UNK     1      33.887  -7.953  28.694  1.00  0.00    -0.084 Cl
ENDBRANCH   8  16
BRANCH  12  28
HETATM   28  C14 UNK     1      32.332  -4.972  36.330  1.00  0.00     0.292 C 
HETATM   29  O4  UNK     1      32.625  -4.173  35.459  1.00  0.00    -0.259 OA
BRANCH  28  30
HETATM   30  O3  UNK     1      33.116  -5.457  37.321  1.00  0.00    -0.317 OA
BRANCH  30  31
HETATM   31  C20 UNK     1      34.066  -6.448  36.915  1.00  0.00     0.183 C 
BRANCH  31  32
HETATM   32  C22 UNK     1      35.310  -5.769  36.355  1.00  0.00     0.065 C 
BRANCH  32  33
HETATM   33  C25 UNK     1      35.698  -6.309  34.999  1.00  0.00    -0.056 A 
HETATM   34  C27 UNK     1      36.514  -7.428  34.923  1.00  0.00     0.007 A 
HETATM   35  C29 UNK     1      36.874  -7.927  33.672  1.00  0.00     0.001 A 
HETATM   36  C30 UNK     1      36.412  -7.303  32.513  1.00  0.00     0.000 A 
HETATM   37  C28 UNK     1      35.592  -6.179  32.605  1.00  0.00     0.001 A 
HETATM   38  C26 UNK     1      35.232  -5.679  33.857  1.00  0.00     0.007 A 
ENDBRANCH  32  33
ENDBRANCH  31  32
ENDBRANCH  30  31
ENDBRANCH  28  30
ENDBRANCH  12  28
TORSDOF 6
ENDMDL
MODEL 4
REMARK VINA RESULT:      -8.0      1.709      3.505
REMARK  6 active torsions:
REMARK  status: ('A' for Active; 'I' for Inactive)
REMARK    1  A    between atoms: C14_21  and  O3_4 
REMARK    2  A    between atoms: C20_27  and  O3_4 
REMARK    3  A    between atoms: C12_19  and  C6_13 
REMARK    4  A    between atoms: C10_17  and  C14_21 
REMARK    5  A    between atoms: C20_27  and  C22_29 
REMARK    6  A    between atoms: C22_29  and  C25_32 
ROOT
HETATM    1  O1  UNK     1      28.298  -9.733  35.707  1.00  0.00    -0.293 OA
HETATM    2  N1  UNK     1      28.544  -5.483  37.781  1.00  0.00    -0.362 N 
HETATM    3  C1  UNK     1      26.644  -8.599  38.728  1.00  0.00    -0.036 C 
HETATM    4  C2  UNK     1      26.840  -7.081  38.541  1.00  0.00     0.067 C 
HETATM    5  C3  UNK     1      26.627  -9.279  37.352  1.00  0.00     0.092 C 
HETATM    6  C4  UNK     1      27.961  -6.723  37.598  1.00  0.00     0.021 C 
HETATM    7  C5  UNK     1      28.425  -7.557  36.644  1.00  0.00     0.024 C 
HETATM    8  C6  UNK     1      29.560  -7.139  35.711  1.00  0.00     0.104 C 
HETATM    9  C7  UNK     1      27.836  -8.925  36.512  1.00  0.00     0.159 C 
HETATM   10  C8  UNK     1      27.766  -9.189  39.608  1.00  0.00     0.015 C 
HETATM   11  C9  UNK     1      25.300  -8.852  39.436  1.00  0.00     0.015 C 
HETATM   12  C10 UNK     1      30.230  -5.836  36.158  1.00  0.00     0.052 C 
HETATM   13  C11 UNK     1      29.690  -5.060  37.126  1.00  0.00     0.018 C 
HETATM   14  C13 UNK     1      30.237  -3.738  37.591  1.00  0.00     0.069 C 
HETATM   15  H12 UNK     1      28.167  -4.884  38.507  1.00  0.00     0.165 HD
ENDROOT
BRANCH   8  16
HETATM   16  C12 UNK     1      29.062  -7.007  34.294  1.00  0.00     0.029 A 
HETATM   17  C15 UNK     1      29.685  -7.849  33.242  1.00  0.00     0.194 A 
HETATM   18  O5  UNK     1      30.585  -8.641  33.489  1.00  0.00    -0.287 OA
HETATM   19  C17 UNK     1      29.160  -7.681  31.874  1.00  0.00     0.050 A 
HETATM   20  C18 UNK     1      28.133  -6.763  31.650  1.00  0.00     0.089 A 
HETATM   21  C19 UNK     1      29.680  -8.427  30.814  1.00  0.00     0.042 A 
HETATM   22  O2  UNK     1      27.585  -6.004  32.652  1.00  0.00    -0.321 OA
HETATM   23  C21 UNK     1      27.622  -6.588  30.363  1.00  0.00     0.040 A 
HETATM   24  C16 UNK     1      28.083  -6.172  33.921  1.00  0.00     0.154 A 
HETATM   25  C24 UNK     1      28.140  -7.332  29.303  1.00  0.00     0.026 A 
HETATM   26  C23 UNK     1      29.166  -8.250  29.528  1.00  0.00     0.035 A 
HETATM   27 Cl1  UNK     1      29.802  -9.166  28.216  1.00  0.00    -0.084 Cl
ENDBRANCH   8  16
BRANCH  12  28
HETATM   28  C14 UNK     1      31.515  -5.500  35.524  1.00  0.00     0.292 C 
HETATM   29  O4  UNK     1      31.665  -5.420  34.318  1.00  0.00    -0.259 OA
BRANCH  28  30
HETATM   30  O3  UNK     1      32.436  -5.309  36.498  1.00  0.00    -0.317 OA
BRANCH  30  31
HETATM   31  C20 UNK     1      33.731  -5.854  36.224  1.00  0.00     0.183 C 
BRANCH  31  32
HETATM   32  C22 UNK     1      34.061  -6.936  37.246  1.00  0.00     0.065 C 
BRANCH  32  33
HETATM   33  C25 UNK     1      33.029  -8.037  37.270  1.00  0.00    -0.056 A 
HETATM   34  C27 UNK     1      32.895  -8.867  36.168  1.00  0.00     0.007 A 
HETATM   35  C29 UNK     1      31.942  -9.884  36.189  1.00  0.00     0.001 A 
HETATM   36  C30 UNK     1      31.134 -10.059  37.312  1.00  0.00     0.000 A 
HETATM   37  C28 UNK     1      31.279  -9.216  38.414  1.00  0.00     0.001 A 
HETATM   38  C26 UNK     1      32.234  -8.199  38.393  1.00  0.00     0.007 A 
ENDBRANCH  32  33
ENDBRANCH  31  32
ENDBRANCH  30  31
ENDBRANCH  28  30
ENDBRANCH  12  28
TORSDOF 6
ENDMDL
MODEL 5
REMARK VINA RESULT:      -8.0      3.305      7.706
REMARK  6 active torsions:
REMARK  status: ('A' for Active; 'I' for Inactive)
REMARK    1  A    between atoms: C14_21  and  O3_4 
REMARK    2  A    between atoms: C20_27  and  O3_4 
REMARK    3  A    between atoms: C12_19  and  C6_13 
REMARK    4  A    between atoms: C10_17  and  C14_21 
REMARK    5  A    between atoms: C20_27  and  C22_29 
REMARK    6  A    between atoms: C22_29  and  C25_32 
ROOT
HETATM    1  O1  UNK     1      29.673  -7.278  32.286  1.00  0.00    -0.293 OA
HETATM    2  N1  UNK     1      34.254  -8.079  31.392  1.00  0.00    -0.362 N 
HETATM    3  C1  UNK     1      31.185  -8.592  29.263  1.00  0.00    -0.036 C 
HETATM    4  C2  UNK     1      32.567  -8.960  29.839  1.00  0.00     0.067 C 
HETATM    5  C3  UNK     1      30.139  -8.648  30.386  1.00  0.00     0.092 C 
HETATM    6  C4  UNK     1      32.909  -8.234  31.115  1.00  0.00     0.021 C 
HETATM    7  C5  UNK     1      31.981  -7.712  31.945  1.00  0.00     0.024 C 
HETATM    8  C6  UNK     1      32.384  -6.990  33.230  1.00  0.00     0.104 C 
HETATM    9  C7  UNK     1      30.532  -7.818  31.590  1.00  0.00     0.159 C 
HETATM   10  C8  UNK     1      31.216  -7.188  28.625  1.00  0.00     0.015 C 
HETATM   11  C9  UNK     1      30.807  -9.606  28.168  1.00  0.00     0.015 C 
HETATM   12  C10 UNK     1      33.891  -6.726  33.299  1.00  0.00     0.052 C 
HETATM   13  C11 UNK     1      34.749  -7.295  32.421  1.00  0.00     0.018 C 
HETATM   14  C13 UNK     1      36.247  -7.146  32.444  1.00  0.00     0.069 C 
HETATM   15  H12 UNK     1      34.921  -8.486  30.746  1.00  0.00     0.165 HD
ENDROOT
BRANCH   8  16
HETATM   16  C12 UNK     1      31.938  -7.771  34.440  1.00  0.00     0.029 A 
HETATM   17  C15 UNK     1      30.823  -7.233  35.260  1.00  0.00     0.194 A 
HETATM   18  O5  UNK     1      30.259  -6.182  34.983  1.00  0.00    -0.287 OA
HETATM   19  C17 UNK     1      30.426  -8.037  36.431  1.00  0.00     0.050 A 
HETATM   20  C18 UNK     1      31.103  -9.226  36.698  1.00  0.00     0.089 A 
HETATM   21  C19 UNK     1      29.388  -7.615  37.266  1.00  0.00     0.042 A 
HETATM   22  O2  UNK     1      32.129  -9.688  35.914  1.00  0.00    -0.321 OA
HETATM   23  C21 UNK     1      30.744 -10.002  37.802  1.00  0.00     0.040 A 
HETATM   24  C16 UNK     1      32.487  -8.930  34.826  1.00  0.00     0.154 A 
HETATM   25  C24 UNK     1      29.708  -9.583  38.636  1.00  0.00     0.026 A 
HETATM   26  C23 UNK     1      29.030  -8.393  38.368  1.00  0.00     0.035 A 
HETATM   27 Cl1  UNK     1      27.752  -7.882  39.402  1.00  0.00    -0.084 Cl
ENDBRANCH   8  16
BRANCH  12  28
HETATM   28  C14 UNK     1      34.351  -5.780  34.329  1.00  0.00     0.292 C 
HETATM   29  O4  UNK     1      34.414  -4.577  34.151  1.00  0.00    -0.259 OA
BRANCH  28  30
HETATM   30  O3  UNK     1      34.669  -6.481  35.443  1.00  0.00    -0.317 OA
BRANCH  30  31
HETATM   31  C20 UNK     1      34.857  -5.692  36.623  1.00  0.00     0.183 C 
BRANCH  31  32
HETATM   32  C22 UNK     1      33.886  -6.147  37.706  1.00  0.00     0.065 C 
BRANCH  32  33
HETATM   33  C25 UNK     1      32.641  -5.294  37.756  1.00  0.00    -0.056 A 
HETATM   34  C27 UNK     1      32.482  -4.270  36.836  1.00  0.00     0.007 A 
HETATM   35  C29 UNK     1      31.333  -3.482  36.881  1.00  0.00     0.001 A 
HETATM   36  C30 UNK     1      30.357  -3.728  37.846  1.00  0.00     0.000 A 
HETATM   37  C28 UNK     1      30.530  -4.762  38.766  1.00  0.00     0.001 A 
HETATM   38  C26 UNK     1      31.680  -5.551  38.720  1.00  0.00     0.007 A 
ENDBRANCH  32  33
ENDBRANCH  31  32
ENDBRANCH  30  31
ENDBRANCH  28  30
ENDBRANCH  12  28
TORSDOF 6
ENDMDL
MODEL 6
REMARK VINA RESULT:      -8.0      1.061      1.228
REMARK  6 active torsions:
REMARK  status: ('A' for Active; 'I' for Inactive)
REMARK    1  A    between atoms: C14_21  and  O3_4 
REMARK    2  A    between atoms: C20_27  and  O3_4 
REMARK    3  A    between atoms: C12_19  and  C6_13 
REMARK    4  A    between atoms: C10_17  and  C14_21 
REMARK    5  A    between atoms: C20_27  and  C22_29 
REMARK    6  A    between atoms: C22_29  and  C25_32 
ROOT
HETATM    1  O1  UNK     1      27.292 -10.170  35.803  1.00  0.00    -0.293 OA
HETATM    2  N1  UNK     1      29.079  -6.410  38.061  1.00  0.00    -0.362 N 
HETATM    3  C1  UNK     1      25.909  -8.371  38.632  1.00  0.00    -0.036 C 
HETATM    4  C2  UNK     1      26.766  -7.094  38.532  1.00  0.00     0.067 C 
HETATM    5  C3  UNK     1      25.782  -9.003  37.239  1.00  0.00     0.092 C 
HETATM    6  C4  UNK     1      28.046  -7.277  37.756  1.00  0.00     0.021 C 
HETATM    7  C5  UNK     1      28.224  -8.248  36.836  1.00  0.00     0.024 C 
HETATM    8  C6  UNK     1      29.541  -8.384  36.074  1.00  0.00     0.104 C 
HETATM    9  C7  UNK     1      27.124  -9.227  36.575  1.00  0.00     0.159 C 
HETATM   10  C8  UNK     1      26.536  -9.373  39.623  1.00  0.00     0.015 C 
HETATM   11  C9  UNK     1      24.507  -8.001  39.150  1.00  0.00     0.015 C 
HETATM   12  C10 UNK     1      30.643  -7.493  36.655  1.00  0.00     0.052 C 
HETATM   13  C11 UNK     1      30.370  -6.541  37.576  1.00  0.00     0.018 C 
HETATM   14  C13 UNK     1      31.370  -5.580  38.160  1.00  0.00     0.069 C 
HETATM   15  H12 UNK     1      28.906  -5.693  38.757  1.00  0.00     0.165 HD
ENDROOT
BRANCH   8  16
HETATM   16  C12 UNK     1      29.342  -8.076  34.611  1.00  0.00     0.029 A 
HETATM   17  C15 UNK     1      29.562  -9.161  33.621  1.00  0.00     0.194 A 
HETATM   18  O5  UNK     1      29.897 -10.290  33.956  1.00  0.00    -0.287 OA
HETATM   19  C17 UNK     1      29.353  -8.807  32.205  1.00  0.00     0.050 A 
HETATM   20  C18 UNK     1      28.971  -7.505  31.881  1.00  0.00     0.089 A 
HETATM   21  C19 UNK     1      29.535  -9.757  31.198  1.00  0.00     0.042 A 
HETATM   22  O2  UNK     1      28.778  -6.531  32.828  1.00  0.00    -0.321 OA
HETATM   23  C21 UNK     1      28.768  -7.148  30.548  1.00  0.00     0.040 A 
HETATM   24  C16 UNK     1      28.975  -6.876  34.143  1.00  0.00     0.154 A 
HETATM   25  C24 UNK     1      28.949  -8.095  29.540  1.00  0.00     0.026 A 
HETATM   26  C23 UNK     1      29.331  -9.398  29.865  1.00  0.00     0.035 A 
HETATM   27 Cl1  UNK     1      29.553 -10.563  28.617  1.00  0.00    -0.084 Cl
ENDBRANCH   8  16
BRANCH  12  28
HETATM   28  C14 UNK     1      32.019  -7.762  36.204  1.00  0.00     0.292 C 
HETATM   29  O4  UNK     1      32.632  -8.773  36.495  1.00  0.00    -0.259 OA
BRANCH  28  30
HETATM   30  O3  UNK     1      32.433  -6.719  35.447  1.00  0.00    -0.317 OA
BRANCH  30  31
HETATM   31  C20 UNK     1      33.242  -7.071  34.320  1.00  0.00     0.183 C 
BRANCH  31  32
HETATM   32  C22 UNK     1      32.504  -6.730  33.030  1.00  0.00     0.065 C 
BRANCH  32  33
HETATM   33  C25 UNK     1      32.716  -7.771  31.956  1.00  0.00    -0.056 A 
HETATM   34  C27 UNK     1      33.054  -9.065  32.321  1.00  0.00     0.007 A 
HETATM   35  C29 UNK     1      33.249 -10.026  31.330  1.00  0.00     0.001 A 
HETATM   36  C30 UNK     1      33.104  -9.681  29.986  1.00  0.00     0.000 A 
HETATM   37  C28 UNK     1      32.763  -8.375  29.634  1.00  0.00     0.001 A 
HETATM   38  C26 UNK     1      32.567  -7.414  30.626  1.00  0.00     0.007 A 
ENDBRANCH  32  33
ENDBRANCH  31  32
ENDBRANCH  30  31
ENDBRANCH  28  30
ENDBRANCH  12  28
TORSDOF 6
ENDMDL
MODEL 7
REMARK VINA RESULT:      -7.9      2.653      3.938
REMARK  6 active torsions:
REMARK  status: ('A' for Active; 'I' for Inactive)
REMARK    1  A    between atoms: C14_21  and  O3_4 
REMARK    2  A    between atoms: C20_27  and  O3_4 
REMARK    3  A    between atoms: C12_19  and  C6_13 
REMARK    4  A    between atoms: C10_17  and  C14_21 
REMARK    5  A    between atoms: C20_27  and  C22_29 
REMARK    6  A    between atoms: C22_29  and  C25_32 
ROOT
HETATM    1  O1  UNK     1      29.978  -9.683  36.781  1.00  0.00    -0.293 OA
HETATM    2  N1  UNK     1      29.131  -5.088  37.555  1.00  0.00    -0.362 N 
HETATM    3  C1  UNK     1      27.037  -8.147  38.245  1.00  0.00    -0.036 C 
HETATM    4  C2  UNK     1      27.287  -6.695  37.792  1.00  0.00     0.067 C 
HETATM    5  C3  UNK     1      27.708  -9.108  37.254  1.00  0.00     0.092 C 
HETATM    6  C4  UNK     1      28.724  -6.405  37.441  1.00  0.00     0.021 C 
HETATM    7  C5  UNK     1      29.606  -7.358  37.073  1.00  0.00     0.024 C 
HETATM    8  C6  UNK     1      31.051  -7.006  36.722  1.00  0.00     0.104 C 
HETATM    9  C7  UNK     1      29.172  -8.788  37.032  1.00  0.00     0.159 C 
HETATM   10  C8  UNK     1      27.582  -8.376  39.670  1.00  0.00     0.015 C 
HETATM   11  C9  UNK     1      25.521  -8.417  38.265  1.00  0.00     0.015 C 
HETATM   12  C10 UNK     1      31.401  -5.559  37.083  1.00  0.00     0.052 C 
HETATM   13  C11 UNK     1      30.446  -4.670  37.442  1.00  0.00     0.018 C 
HETATM   14  C13 UNK     1      30.681  -3.217  37.755  1.00  0.00     0.069 C 
HETATM   15  H12 UNK     1      28.439  -4.401  37.833  1.00  0.00     0.165 HD
ENDROOT
BRANCH   8  16
HETATM   16  C12 UNK     1      31.317  -7.255  35.258  1.00  0.00     0.029 A 
HETATM   17  C15 UNK     1      32.346  -8.258  34.885  1.00  0.00     0.194 A 
HETATM   18  O5  UNK     1      32.980  -8.884  35.725  1.00  0.00    -0.287 OA
HETATM   19  C17 UNK     1      32.567  -8.463  33.442  1.00  0.00     0.050 A 
HETATM   20  C18 UNK     1      31.816  -7.721  32.529  1.00  0.00     0.089 A 
HETATM   21  C19 UNK     1      33.514  -9.385  32.989  1.00  0.00     0.042 A 
HETATM   22  O2  UNK     1      30.874  -6.803  32.917  1.00  0.00    -0.321 OA
HETATM   23  C21 UNK     1      32.008  -7.899  31.159  1.00  0.00     0.040 A 
HETATM   24  C16 UNK     1      30.678  -6.624  34.265  1.00  0.00     0.154 A 
HETATM   25  C24 UNK     1      32.953  -8.819  30.704  1.00  0.00     0.026 A 
HETATM   26  C23 UNK     1      33.704  -9.561  31.617  1.00  0.00     0.035 A 
HETATM   27 Cl1  UNK     1      34.868 -10.694  31.050  1.00  0.00    -0.084 Cl
ENDBRANCH   8  16
BRANCH  12  28
HETATM   28  C14 UNK     1      32.829  -5.201  37.075  1.00  0.00     0.292 C 
HETATM   29  O4  UNK     1      33.660  -5.751  37.775  1.00  0.00    -0.259 OA
BRANCH  28  30
HETATM   30  O3  UNK     1      33.014  -4.199  36.185  1.00  0.00    -0.317 OA
BRANCH  30  31
HETATM   31  C20 UNK     1      34.262  -4.232  35.483  1.00  0.00     0.183 C 
BRANCH  31  32
HETATM   32  C22 UNK     1      34.087  -4.961  34.156  1.00  0.00     0.065 C 
BRANCH  32  33
HETATM   33  C25 UNK     1      35.145  -6.015  33.936  1.00  0.00    -0.056 A 
HETATM   34  C27 UNK     1      35.494  -6.367  32.641  1.00  0.00     0.007 A 
HETATM   35  C29 UNK     1      36.471  -7.340  32.436  1.00  0.00     0.001 A 
HETATM   36  C30 UNK     1      37.088  -7.949  33.529  1.00  0.00     0.000 A 
HETATM   37  C28 UNK     1      36.727  -7.585  34.826  1.00  0.00     0.001 A 
HETATM   38  C26 UNK     1      35.750  -6.610  35.030  1.00  0.00     0.007 A 
ENDBRANCH  32  33
ENDBRANCH  31  32
ENDBRANCH  30  31
ENDBRANCH  28  30
ENDBRANCH  12  28
TORSDOF 6
ENDMDL
MODEL 8
REMARK VINA RESULT:      -7.9      4.550      7.735
REMARK  6 active torsions:
REMARK  status: ('A' for Active; 'I' for Inactive)
REMARK    1  A    between atoms: C14_21  and  O3_4 
REMARK    2  A    between atoms: C20_27  and  O3_4 
REMARK    3  A    between atoms: C12_19  and  C6_13 
REMARK    4  A    between atoms: C10_17  and  C14_21 
REMARK    5  A    between atoms: C20_27  and  C22_29 
REMARK    6  A    between atoms: C22_29  and  C25_32 
ROOT
HETATM    1  O1  UNK     1      35.461  -6.409  32.847  1.00  0.00    -0.293 OA
HETATM    2  N1  UNK     1      31.321  -8.687  33.152  1.00  0.00    -0.362 N 
HETATM    3  C1  UNK     1      32.748  -5.853  35.188  1.00  0.00    -0.036 C 
HETATM    4  C2  UNK     1      31.983  -7.173  34.970  1.00  0.00     0.067 C 
HETATM    5  C3  UNK     1      34.233  -6.071  34.868  1.00  0.00     0.092 C 
HETATM    6  C4  UNK     1      32.297  -7.851  33.660  1.00  0.00     0.021 C 
HETATM    7  C5  UNK     1      33.440  -7.645  32.972  1.00  0.00     0.024 C 
HETATM    8  C6  UNK     1      33.709  -8.364  31.652  1.00  0.00     0.104 C 
HETATM    9  C7  UNK     1      34.451  -6.677  33.497  1.00  0.00     0.159 C 
HETATM   10  C8  UNK     1      32.165  -4.732  34.303  1.00  0.00     0.015 C 
HETATM   11  C9  UNK     1      32.605  -5.422  36.659  1.00  0.00     0.015 C 
HETATM   12  C10 UNK     1      32.470  -9.091  31.123  1.00  0.00     0.052 C 
HETATM   13  C11 UNK     1      31.365  -9.252  31.887  1.00  0.00     0.018 C 
HETATM   14  C13 UNK     1      30.124 -10.001  31.482  1.00  0.00     0.069 C 
HETATM   15  H12 UNK     1      30.476  -8.817  33.698  1.00  0.00     0.165 HD
ENDROOT
BRANCH   8  16
HETATM   16  C12 UNK     1      34.856  -9.332  31.798  1.00  0.00     0.029 A 
HETATM   17  C15 UNK     1      35.895  -9.365  30.738  1.00  0.00     0.194 A 
HETATM   18  O5  UNK     1      35.848  -8.636  29.756  1.00  0.00    -0.287 OA
HETATM   19  C17 UNK     1      36.995 -10.329  30.930  1.00  0.00     0.050 A 
HETATM   20  C18 UNK     1      36.998 -11.135  32.068  1.00  0.00     0.089 A 
HETATM   21  C19 UNK     1      38.021 -10.437  29.988  1.00  0.00     0.042 A 
HETATM   22  O2  UNK     1      36.017 -11.072  33.025  1.00  0.00    -0.321 OA
HETATM   23  C21 UNK     1      38.029 -12.054  32.271  1.00  0.00     0.040 A 
HETATM   24  C16 UNK     1      35.000 -10.169  32.833  1.00  0.00     0.154 A 
HETATM   25  C24 UNK     1      39.054 -12.164  31.332  1.00  0.00     0.026 A 
HETATM   26  C23 UNK     1      39.051 -11.357  30.194  1.00  0.00     0.035 A 
HETATM   27 Cl1  UNK     1      40.320 -11.497  29.038  1.00  0.00    -0.084 Cl
ENDBRANCH   8  16
BRANCH  12  28
HETATM   28  C14 UNK     1      32.519  -9.556  29.727  1.00  0.00     0.292 C 
HETATM   29  O4  UNK     1      32.558 -10.733  29.415  1.00  0.00    -0.259 OA
BRANCH  28  30
HETATM   30  O3  UNK     1      32.511  -8.473  28.915  1.00  0.00    -0.317 OA
BRANCH  30  31
HETATM   31  C20 UNK     1      31.211  -8.008  28.535  1.00  0.00     0.183 C 
BRANCH  31  32
HETATM   32  C22 UNK     1      31.016  -6.575  29.017  1.00  0.00     0.065 C 
BRANCH  32  33
HETATM   33  C25 UNK     1      29.953  -6.467  30.084  1.00  0.00    -0.056 A 
HETATM   34  C27 UNK     1      28.713  -7.048  29.867  1.00  0.00     0.007 A 
HETATM   35  C29 UNK     1      27.730  -6.949  30.851  1.00  0.00     0.001 A 
HETATM   36  C30 UNK     1      28.000  -6.270  32.040  1.00  0.00     0.000 A 
HETATM   37  C28 UNK     1      29.251  -5.691  32.243  1.00  0.00     0.001 A 
HETATM   38  C26 UNK     1      30.235  -5.791  31.259  1.00  0.00     0.007 A 
ENDBRANCH  32  33
ENDBRANCH  31  32
ENDBRANCH  30  31
ENDBRANCH  28  30
ENDBRANCH  12  28
TORSDOF 6
ENDMDL
MODEL 9
REMARK VINA RESULT:      -7.8      2.948      6.356
REMARK  6 active torsions:
REMARK  status: ('A' for Active; 'I' for Inactive)
REMARK    1  A    between atoms: C14_21  and  O3_4 
REMARK    2  A    between atoms: C20_27  and  O3_4 
REMARK    3  A    between atoms: C12_19  and  C6_13 
REMARK    4  A    between atoms: C10_17  and  C14_21 
REMARK    5  A    between atoms: C20_27  and  C22_29 
REMARK    6  A    between atoms: C22_29  and  C25_32 
ROOT
HETATM    1  O1  UNK     1      28.895 -10.360  32.687  1.00  0.00    -0.293 OA
HETATM    2  N1  UNK     1      33.372  -8.841  32.965  1.00  0.00    -0.362 N 
HETATM    3  C1  UNK     1      31.853 -11.759  31.123  1.00  0.00    -0.036 C 
HETATM    4  C2  UNK     1      32.922 -11.042  31.972  1.00  0.00     0.067 C 
HETATM    5  C3  UNK     1      30.565 -11.899  31.946  1.00  0.00     0.092 C 
HETATM    6  C4  UNK     1      32.422  -9.796  32.657  1.00  0.00     0.021 C 
HETATM    7  C5  UNK     1      31.120  -9.572  32.933  1.00  0.00     0.024 C 
HETATM    8  C6  UNK     1      30.669  -8.292  33.636  1.00  0.00     0.104 C 
HETATM    9  C7  UNK     1      30.095 -10.580  32.522  1.00  0.00     0.159 C 
HETATM   10  C8  UNK     1      31.578 -10.980  29.820  1.00  0.00     0.015 C 
HETATM   11  C9  UNK     1      32.365 -13.160  30.741  1.00  0.00     0.015 C 
HETATM   12  C10 UNK     1      31.792  -7.255  33.732  1.00  0.00     0.052 C 
HETATM   13  C11 UNK     1      33.073  -7.572  33.434  1.00  0.00     0.018 C 
HETATM   14  C13 UNK     1      34.252  -6.644  33.555  1.00  0.00     0.069 C 
HETATM   15  H12 UNK     1      34.340  -9.046  32.743  1.00  0.00     0.165 HD
ENDROOT
BRANCH   8  16
HETATM   16  C12 UNK     1      30.130  -8.603  35.010  1.00  0.00     0.029 A 
HETATM   17  C15 UNK     1      28.740  -8.194  35.336  1.00  0.00     0.194 A 
HETATM   18  O5  UNK     1      28.024  -7.618  34.527  1.00  0.00    -0.287 OA
HETATM   19  C17 UNK     1      28.263  -8.522  36.692  1.00  0.00     0.050 A 
HETATM   20  C18 UNK     1      29.122  -9.181  37.572  1.00  0.00     0.089 A 
HETATM   21  C19 UNK     1      26.970  -8.180  37.095  1.00  0.00     0.042 A 
HETATM   22  O2  UNK     1      30.401  -9.540  37.230  1.00  0.00    -0.321 OA
HETATM   23  C21 UNK     1      28.692  -9.501  38.860  1.00  0.00     0.040 A 
HETATM   24  C16 UNK     1      30.831  -9.230  35.963  1.00  0.00     0.154 A 
HETATM   25  C24 UNK     1      27.401  -9.160  39.265  1.00  0.00     0.026 A 
HETATM   26  C23 UNK     1      26.542  -8.501  38.384  1.00  0.00     0.035 A 
HETATM   27 Cl1  UNK     1      24.951  -8.083  38.890  1.00  0.00    -0.084 Cl
ENDBRANCH   8  16
BRANCH  12  28
HETATM   28  C14 UNK     1      31.400  -5.887  34.107  1.00  0.00     0.292 C 
HETATM   29  O4  UNK     1      31.307  -5.511  35.261  1.00  0.00    -0.259 OA
BRANCH  28  30
HETATM   30  O3  UNK     1      31.180  -5.179  32.974  1.00  0.00    -0.317 OA
BRANCH  30  31
HETATM   31  C20 UNK     1      29.818  -5.143  32.535  1.00  0.00     0.183 C 
BRANCH  31  32
HETATM   32  C22 UNK     1      29.763  -5.264  31.017  1.00  0.00     0.065 C 
BRANCH  32  33
HETATM   33  C25 UNK     1      29.065  -6.525  30.566  1.00  0.00    -0.056 A 
HETATM   34  C27 UNK     1      27.763  -6.765  30.978  1.00  0.00     0.007 A 
HETATM   35  C29 UNK     1      27.118  -7.929  30.563  1.00  0.00     0.001 A 
HETATM   36  C30 UNK     1      27.783  -8.839  29.741  1.00  0.00     0.000 A 
HETATM   37  C28 UNK     1      29.092  -8.585  29.335  1.00  0.00     0.001 A 
HETATM   38  C26 UNK     1      29.737  -7.419  29.750  1.00  0.00     0.007 A 
ENDBRANCH  32  33
ENDBRANCH  31  32
ENDBRANCH  30  31
ENDBRANCH  28  30
ENDBRANCH  12  28
TORSDOF 6
ENDMDL
MODEL 10
REMARK VINA RESULT:      -7.8      2.945      6.677
REMARK  6 active torsions:
REMARK  status: ('A' for Active; 'I' for Inactive)
REMARK    1  A    between atoms: C14_21  and  O3_4 
REMARK    2  A    between atoms: C20_27  and  O3_4 
REMARK    3  A    between atoms: C12_19  and  C6_13 
REMARK    4  A    between atoms: C10_17  and  C14_21 
REMARK    5  A    between atoms: C20_27  and  C22_29 
REMARK    6  A    between atoms: C22_29  and  C25_32 
ROOT
HETATM    1  O1  UNK     1      32.143 -10.090  34.710  1.00  0.00    -0.293 OA
HETATM    2  N1  UNK     1      31.867  -6.411  31.741  1.00  0.00    -0.362 N 
HETATM    3  C1  UNK     1      34.786  -8.578  32.741  1.00  0.00    -0.036 C 
HETATM    4  C2  UNK     1      34.082  -7.252  32.391  1.00  0.00     0.067 C 
HETATM    5  C3  UNK     1      34.226  -9.114  34.065  1.00  0.00     0.092 C 
HETATM    6  C4  UNK     1      32.581  -7.308  32.514  1.00  0.00     0.021 C 
HETATM    7  C5  UNK     1      31.931  -8.199  33.292  1.00  0.00     0.024 C 
HETATM    8  C6  UNK     1      30.406  -8.207  33.383  1.00  0.00     0.104 C 
HETATM    9  C7  UNK     1      32.715  -9.215  34.060  1.00  0.00     0.159 C 
HETATM   10  C8  UNK     1      34.589  -9.614  31.614  1.00  0.00     0.015 C 
HETATM   11  C9  UNK     1      36.297  -8.324  32.895  1.00  0.00     0.015 C 
HETATM   12  C10 UNK     1      29.757  -7.302  32.333  1.00  0.00     0.052 C 
HETATM   13  C11 UNK     1      30.490  -6.435  31.596  1.00  0.00     0.018 C 
HETATM   14  C13 UNK     1      29.939  -5.465  30.586  1.00  0.00     0.069 C 
HETATM   15  H12 UNK     1      32.391  -5.756  31.170  1.00  0.00     0.165 HD
ENDROOT
BRANCH   8  16
HETATM   16  C12 UNK     1      29.955  -7.805  34.765  1.00  0.00     0.029 A 
HETATM   17  C15 UNK     1      29.190  -8.787  35.575  1.00  0.00     0.194 A 
HETATM   18  O5  UNK     1      28.918  -9.905  35.156  1.00  0.00    -0.287 OA
HETATM   19  C17 UNK     1      28.774  -8.344  36.918  1.00  0.00     0.050 A 
HETATM   20  C18 UNK     1      29.112  -7.059  37.343  1.00  0.00     0.089 A 
HETATM   21  C19 UNK     1      28.049  -9.195  37.757  1.00  0.00     0.042 A 
HETATM   22  O2  UNK     1      29.821  -6.182  36.563  1.00  0.00    -0.321 OA
HETATM   23  C21 UNK     1      28.728  -6.619  38.611  1.00  0.00     0.040 A 
HETATM   24  C16 UNK     1      30.203  -6.609  35.314  1.00  0.00     0.154 A 
HETATM   25  C24 UNK     1      28.005  -7.467  39.450  1.00  0.00     0.026 A 
HETATM   26  C23 UNK     1      27.667  -8.752  39.024  1.00  0.00     0.035 A 
HETATM   27 Cl1  UNK     1      26.774  -9.794  40.064  1.00  0.00    -0.084 Cl
ENDBRANCH   8  16
BRANCH  12  28
HETATM   28  C14 UNK     1      28.308  -7.461  32.124  1.00  0.00     0.292 C 
HETATM   29  O4  UNK     1      27.485  -6.643  32.494  1.00  0.00    -0.259 OA
BRANCH  28  30
HETATM   30  O3  UNK     1      28.095  -8.631  31.477  1.00  0.00    -0.317 OA
BRANCH  30  31
HETATM   31  C20 UNK     1      27.406  -8.517  30.227  1.00  0.00     0.183 C 
BRANCH  31  32
HETATM   32  C22 UNK     1      28.025  -9.469  29.210  1.00  0.00     0.065 C 
BRANCH  32  33
HETATM   33  C25 UNK     1      29.529  -9.345  29.148  1.00  0.00    -0.056 A 
HETATM   34  C27 UNK     1      30.094  -8.262  28.492  1.00  0.00     0.007 A 
HETATM   35  C29 UNK     1      31.482  -8.146  28.434  1.00  0.00     0.001 A 
HETATM   36  C30 UNK     1      32.288  -9.115  29.032  1.00  0.00     0.000 A 
HETATM   37  C28 UNK     1      31.706 -10.199  29.688  1.00  0.00     0.001 A 
HETATM   38  C26 UNK     1      30.316 -10.314  29.747  1.00  0.00     0.007 A 
ENDBRANCH  32  33
ENDBRANCH  31  32
ENDBRANCH  30  31
ENDBRANCH  28  30
ENDBRANCH  12  28
TORSDOF 6
ENDMDL
