MODEL 1
REMARK VINA RESULT:      -8.6      0.000      0.000
REMARK  5 active torsions:
REMARK  status: ('A' for Active; 'I' for Inactive)
REMARK    1  A    between atoms: C13_19  and  O2_2 
REMARK    2  A    between atoms: C20_26  and  O2_2 
REMARK    3  A    between atoms: C14_20  and  O3_3 
REMARK    4  A    between atoms: C21_27  and  O3_3 
REMARK    5  A    between atoms: C1_7  and  C6_12 
ROOT
HETATM    1  N1  UNK     1       5.970   6.462  12.405  1.00  0.00    -0.323 N 
HETATM    2  N2  UNK     1       6.281   3.957  10.633  1.00  0.00     0.102 N 
HETATM    3  C1  UNK     1       6.564   5.297  10.118  1.00  0.00     0.309 C 
HETATM    4  C2  UNK     1       6.311   6.468  11.047  1.00  0.00     0.054 A 
HETATM    5  C3  UNK     1       5.618   5.365  13.257  1.00  0.00     0.049 A 
HETATM    6  C4  UNK     1       4.984   3.872  11.280  1.00  0.00     0.312 C 
HETATM    7  C5  UNK     1       5.140   4.145  12.748  1.00  0.00    -0.000 A 
HETATM    8  C7  UNK     1       6.428   7.798  10.655  1.00  0.00     0.029 A 
HETATM    9  C8  UNK     1       5.983   7.786  12.833  1.00  0.00     0.097 A 
HETATM   10  C9  UNK     1       5.718   5.524  14.654  1.00  0.00     0.070 A 
HETATM   11  C10 UNK     1       4.769   3.124  13.647  1.00  0.00     0.050 A 
HETATM   12  C11 UNK     1       6.239   8.618  11.774  1.00  0.00     0.020 A 
HETATM   13  C13 UNK     1       5.351   4.499  15.527  1.00  0.00     0.104 A 
HETATM   14  C14 UNK     1       4.874   3.298  15.025  1.00  0.00     0.102 A 
HETATM   15  H4  UNK     1       7.014   3.630  11.260  1.00  0.00     0.317 HD
ENDROOT
BRANCH   3  16
HETATM   16  C6  UNK     1       7.978   5.297   9.592  1.00  0.00     0.054 A 
HETATM   17  C12 UNK     1       8.257   5.992   8.311  1.00  0.00     0.195 A 
HETATM   18  O4  UNK     1       7.381   6.561   7.674  1.00  0.00    -0.287 OA
HETATM   19  C16 UNK     1       9.655   5.959   7.841  1.00  0.00     0.048 A 
HETATM   20  C17 UNK     1      10.612   5.295   8.608  1.00  0.00     0.089 A 
HETATM   21  C18 UNK     1      10.019   6.584   6.646  1.00  0.00     0.018 A 
HETATM   22  O1  UNK     1      10.310   4.666   9.789  1.00  0.00    -0.321 OA
HETATM   23  C19 UNK     1      11.940   5.253   8.183  1.00  0.00     0.038 A 
HETATM   24  C15 UNK     1       9.005   4.703  10.213  1.00  0.00     0.156 A 
HETATM   25  C23 UNK     1      12.307   5.875   6.990  1.00  0.00     0.003 A 
HETATM   26  C22 UNK     1      11.349   6.539   6.223  1.00  0.00     0.001 A 
ENDBRANCH   3  16
BRANCH  14  27
HETATM   27  O3  UNK     1       4.488   2.296  15.860  1.00  0.00    -0.349 OA
BRANCH  27  28
HETATM   28  C21 UNK     1       5.503   1.402  16.312  1.00  0.00     0.171 C 
HETATM   29  C25 UNK     1       5.542   1.426  17.825  1.00  0.00     0.034 C 
ENDBRANCH  27  28
ENDBRANCH  14  27
BRANCH  13  30
HETATM   30  O2  UNK     1       5.478   4.691  16.870  1.00  0.00    -0.349 OA
BRANCH  30  31
HETATM   31  C20 UNK     1       4.469   5.468  17.510  1.00  0.00     0.171 C 
HETATM   32  C24 UNK     1       3.928   4.697  18.695  1.00  0.00     0.034 C 
ENDBRANCH  30  31
ENDBRANCH  13  30
TORSDOF 5
ENDMDL
MODEL 2
REMARK VINA RESULT:      -8.3     31.984     35.789
REMARK  5 active torsions:
REMARK  status: ('A' for Active; 'I' for Inactive)
REMARK    1  A    between atoms: C13_19  and  O2_2 
REMARK    2  A    between atoms: C20_26  and  O2_2 
REMARK    3  A    between atoms: C14_20  and  O3_3 
REMARK    4  A    between atoms: C21_27  and  O3_3 
REMARK    5  A    between atoms: C1_7  and  C6_12 
ROOT
HETATM    1  N1  UNK     1      31.640  -6.381  34.768  1.00  0.00    -0.323 N 
HETATM    2  N2  UNK     1      31.175  -9.424  34.576  1.00  0.00     0.102 N 
HETATM    3  C1  UNK     1      31.699  -8.807  35.795  1.00  0.00     0.309 C 
HETATM    4  C2  UNK     1      31.960  -7.314  35.763  1.00  0.00     0.054 A 
HETATM    5  C3  UNK     1      31.120  -6.589  33.449  1.00  0.00     0.049 A 
HETATM    6  C4  UNK     1      31.908  -9.022  33.389  1.00  0.00     0.312 C 
HETATM    7  C5  UNK     1      31.248  -7.818  32.779  1.00  0.00    -0.000 A 
HETATM    8  C7  UNK     1      32.561  -6.616  36.807  1.00  0.00     0.029 A 
HETATM    9  C8  UNK     1      31.965  -5.125  35.270  1.00  0.00     0.097 A 
HETATM   10  C9  UNK     1      30.492  -5.517  32.784  1.00  0.00     0.070 A 
HETATM   11  C10 UNK     1      30.752  -7.939  31.465  1.00  0.00     0.050 A 
HETATM   12  C11 UNK     1      32.548  -5.249  36.504  1.00  0.00     0.020 A 
HETATM   13  C13 UNK     1      30.003  -5.659  31.484  1.00  0.00     0.104 A 
HETATM   14  C14 UNK     1      30.135  -6.870  30.822  1.00  0.00     0.102 A 
HETATM   15  H4  UNK     1      30.179  -9.243  34.459  1.00  0.00     0.317 HD
ENDROOT
BRANCH   3  16
HETATM   16  C6  UNK     1      30.786  -9.189  36.932  1.00  0.00     0.054 A 
HETATM   17  C12 UNK     1      29.389  -8.689  36.918  1.00  0.00     0.195 A 
HETATM   18  O4  UNK     1      28.960  -7.979  36.018  1.00  0.00    -0.287 OA
HETATM   19  C16 UNK     1      28.539  -9.091  38.055  1.00  0.00     0.048 A 
HETATM   20  C17 UNK     1      29.081  -9.900  39.053  1.00  0.00     0.089 A 
HETATM   21  C18 UNK     1      27.209  -8.669  38.134  1.00  0.00     0.018 A 
HETATM   22  O1  UNK     1      30.379 -10.342  39.026  1.00  0.00    -0.321 OA
HETATM   23  C19 UNK     1      28.295 -10.293  40.137  1.00  0.00     0.038 A 
HETATM   24  C15 UNK     1      31.159  -9.959  37.963  1.00  0.00     0.156 A 
HETATM   25  C23 UNK     1      26.967  -9.874  40.219  1.00  0.00     0.003 A 
HETATM   26  C22 UNK     1      26.426  -9.064  39.220  1.00  0.00     0.001 A 
ENDBRANCH   3  16
BRANCH  14  27
HETATM   27  O3  UNK     1      29.687  -7.020  29.546  1.00  0.00    -0.349 OA
BRANCH  27  28
HETATM   28  C21 UNK     1      29.466  -8.353  29.091  1.00  0.00     0.171 C 
HETATM   29  C25 UNK     1      28.048  -8.761  29.430  1.00  0.00     0.034 C 
ENDBRANCH  27  28
ENDBRANCH  14  27
BRANCH  13  30
HETATM   30  O2  UNK     1      29.389  -4.600  30.885  1.00  0.00    -0.349 OA
BRANCH  30  31
HETATM   31  C20 UNK     1      30.233  -3.612  30.298  1.00  0.00     0.171 C 
HETATM   32  C24 UNK     1      30.053  -2.305  31.041  1.00  0.00     0.034 C 
ENDBRANCH  30  31
ENDBRANCH  13  30
TORSDOF 5
ENDMDL
MODEL 3
REMARK VINA RESULT:      -8.2     10.124     14.534
REMARK  5 active torsions:
REMARK  status: ('A' for Active; 'I' for Inactive)
REMARK    1  A    between atoms: C13_19  and  O2_2 
REMARK    2  A    between atoms: C20_26  and  O2_2 
REMARK    3  A    between atoms: C14_20  and  O3_3 
REMARK    4  A    between atoms: C21_27  and  O3_3 
REMARK    5  A    between atoms: C1_7  and  C6_12 
ROOT
HETATM    1  N1  UNK     1      19.124  12.007   9.018  1.00  0.00    -0.323 N 
HETATM    2  N2  UNK     1      16.847  11.868  11.094  1.00  0.00     0.102 N 
HETATM    3  C1  UNK     1      16.587  11.710   9.663  1.00  0.00     0.309 C 
HETATM    4  C2  UNK     1      17.763  11.868   8.720  1.00  0.00     0.054 A 
HETATM    5  C3  UNK     1      19.771  12.192  10.283  1.00  0.00     0.049 A 
HETATM    6  C4  UNK     1      17.632  13.054  11.390  1.00  0.00     0.312 C 
HETATM    7  C5  UNK     1      19.090  12.696  11.406  1.00  0.00    -0.000 A 
HETATM    8  C7  UNK     1      17.642  11.856   7.333  1.00  0.00     0.029 A 
HETATM    9  C8  UNK     1      19.810  11.979   7.808  1.00  0.00     0.097 A 
HETATM   10  C9  UNK     1      21.144  11.896  10.400  1.00  0.00     0.070 A 
HETATM   11  C10 UNK     1      19.800  12.895  12.607  1.00  0.00     0.050 A 
HETATM   12  C11 UNK     1      18.922  11.910   6.767  1.00  0.00     0.020 A 
HETATM   13  C13 UNK     1      21.828  12.096  11.601  1.00  0.00     0.104 A 
HETATM   14  C14 UNK     1      21.157  12.598  12.705  1.00  0.00     0.102 A 
HETATM   15  H4  UNK     1      17.289  11.040  11.492  1.00  0.00     0.317 HD
ENDROOT
BRANCH   3  16
HETATM   16  C6  UNK     1      15.887  10.389   9.467  1.00  0.00     0.054 A 
HETATM   17  C12 UNK     1      16.605   9.145   9.840  1.00  0.00     0.195 A 
HETATM   18  O4  UNK     1      17.739   9.160  10.298  1.00  0.00    -0.287 OA
HETATM   19  C16 UNK     1      15.875   7.880   9.626  1.00  0.00     0.048 A 
HETATM   20  C17 UNK     1      14.584   7.924   9.101  1.00  0.00     0.089 A 
HETATM   21  C18 UNK     1      16.466   6.655   9.945  1.00  0.00     0.018 A 
HETATM   22  O1  UNK     1      13.957   9.097   8.771  1.00  0.00    -0.321 OA
HETATM   23  C19 UNK     1      13.876   6.740   8.891  1.00  0.00     0.038 A 
HETATM   24  C15 UNK     1      14.648  10.266   8.974  1.00  0.00     0.156 A 
HETATM   25  C23 UNK     1      14.462   5.515   9.208  1.00  0.00     0.003 A 
HETATM   26  C22 UNK     1      15.755   5.473   9.734  1.00  0.00     0.001 A 
ENDBRANCH   3  16
BRANCH  14  27
HETATM   27  O3  UNK     1      21.811  12.823  13.876  1.00  0.00    -0.349 OA
BRANCH  27  28
HETATM   28  C21 UNK     1      21.323  12.144  15.032  1.00  0.00     0.171 C 
HETATM   29  C25 UNK     1      21.814  12.863  16.270  1.00  0.00     0.034 C 
ENDBRANCH  27  28
ENDBRANCH  14  27
BRANCH  13  30
HETATM   30  O2  UNK     1      23.152  11.782  11.673  1.00  0.00    -0.349 OA
BRANCH  30  31
HETATM   31  C20 UNK     1      23.970  12.179  10.575  1.00  0.00     0.171 C 
HETATM   32  C24 UNK     1      25.415  11.866  10.898  1.00  0.00     0.034 C 
ENDBRANCH  30  31
ENDBRANCH  13  30
TORSDOF 5
ENDMDL
MODEL 4
REMARK VINA RESULT:      -8.1     31.768     35.208
REMARK  5 active torsions:
REMARK  status: ('A' for Active; 'I' for Inactive)
REMARK    1  A    between atoms: C13_19  and  O2_2 
REMARK    2  A    between atoms: C20_26  and  O2_2 
REMARK    3  A    between atoms: C14_20  and  O3_3 
REMARK    4  A    between atoms: C21_27  and  O3_3 
REMARK    5  A    between atoms: C1_7  and  C6_12 
ROOT
HETATM    1  N1  UNK     1      30.896  -6.704  31.242  1.00  0.00    -0.323 N 
HETATM    2  N2  UNK     1      32.722  -7.429  33.620  1.00  0.00     0.102 N 
HETATM    3  C1  UNK     1      31.892  -6.223  33.633  1.00  0.00     0.309 C 
HETATM    4  C2  UNK     1      31.086  -5.919  32.386  1.00  0.00     0.054 A 
HETATM    5  C3  UNK     1      31.522  -7.935  30.860  1.00  0.00     0.049 A 
HETATM    6  C4  UNK     1      33.518  -7.543  32.411  1.00  0.00     0.312 C 
HETATM    7  C5  UNK     1      32.761  -8.340  31.388  1.00  0.00    -0.000 A 
HETATM    8  C7  UNK     1      30.344  -4.753  32.217  1.00  0.00     0.029 A 
HETATM    9  C8  UNK     1      29.967  -6.042  30.446  1.00  0.00     0.097 A 
HETATM   10  C9  UNK     1      30.897  -8.751  29.896  1.00  0.00     0.070 A 
HETATM   11  C10 UNK     1      33.341  -9.541  30.933  1.00  0.00     0.050 A 
HETATM   12  C11 UNK     1      29.634  -4.840  31.013  1.00  0.00     0.020 A 
HETATM   13  C13 UNK     1      31.486  -9.940  29.463  1.00  0.00     0.104 A 
HETATM   14  C14 UNK     1      32.710 -10.336  29.979  1.00  0.00     0.102 A 
HETATM   15  H4  UNK     1      32.167  -8.272  33.762  1.00  0.00     0.317 HD
ENDROOT
BRANCH   3  16
HETATM   16  C6  UNK     1      31.020  -6.281  34.862  1.00  0.00     0.054 A 
HETATM   17  C12 UNK     1      31.147  -5.200  35.872  1.00  0.00     0.195 A 
HETATM   18  O4  UNK     1      31.932  -4.272  35.737  1.00  0.00    -0.287 OA
HETATM   19  C16 UNK     1      30.273  -5.306  37.055  1.00  0.00     0.048 A 
HETATM   20  C17 UNK     1      29.397  -6.386  37.157  1.00  0.00     0.089 A 
HETATM   21  C18 UNK     1      30.318  -4.339  38.063  1.00  0.00     0.018 A 
HETATM   22  O1  UNK     1      29.311  -7.363  36.198  1.00  0.00    -0.321 OA
HETATM   23  C19 UNK     1      28.561  -6.506  38.267  1.00  0.00     0.038 A 
HETATM   24  C15 UNK     1      30.131  -7.253  35.103  1.00  0.00     0.156 A 
HETATM   25  C23 UNK     1      28.603  -5.542  39.274  1.00  0.00     0.003 A 
HETATM   26  C22 UNK     1      29.480  -4.461  39.172  1.00  0.00     0.001 A 
ENDBRANCH   3  16
BRANCH  14  27
HETATM   27  O3  UNK     1      33.312 -11.478  29.552  1.00  0.00    -0.349 OA
BRANCH  27  28
HETATM   28  C21 UNK     1      33.536 -12.495  30.526  1.00  0.00     0.171 C 
HETATM   29  C25 UNK     1      32.295 -13.355  30.636  1.00  0.00     0.034 C 
ENDBRANCH  27  28
ENDBRANCH  14  27
BRANCH  13  30
HETATM   30  O2  UNK     1      30.839 -10.706  28.540  1.00  0.00    -0.349 OA
BRANCH  30  31
HETATM   31  C20 UNK     1      29.874 -10.050  27.720  1.00  0.00     0.171 C 
HETATM   32  C24 UNK     1      28.487 -10.449  28.177  1.00  0.00     0.034 C 
ENDBRANCH  30  31
ENDBRANCH  13  30
TORSDOF 5
ENDMDL
MODEL 5
REMARK VINA RESULT:      -8.1      3.720      8.667
REMARK  5 active torsions:
REMARK  status: ('A' for Active; 'I' for Inactive)
REMARK    1  A    between atoms: C13_19  and  O2_2 
REMARK    2  A    between atoms: C20_26  and  O2_2 
REMARK    3  A    between atoms: C14_20  and  O3_3 
REMARK    4  A    between atoms: C21_27  and  O3_3 
REMARK    5  A    between atoms: C1_7  and  C6_12 
ROOT
HETATM    1  N1  UNK     1      10.484   7.254   7.685  1.00  0.00    -0.323 N 
HETATM    2  N2  UNK     1       8.646   8.088  10.016  1.00  0.00     0.102 N 
HETATM    3  C1  UNK     1       8.143   7.298   8.892  1.00  0.00     0.309 C 
HETATM    4  C2  UNK     1       9.109   7.002   7.761  1.00  0.00     0.054 A 
HETATM    5  C3  UNK     1      11.333   7.990   8.574  1.00  0.00     0.049 A 
HETATM    6  C4  UNK     1       9.365   9.273   9.586  1.00  0.00     0.312 C 
HETATM    7  C5  UNK     1      10.827   8.953   9.465  1.00  0.00    -0.000 A 
HETATM    8  C7  UNK     1       8.739   6.362   6.582  1.00  0.00     0.029 A 
HETATM    9  C8  UNK     1      10.938   6.675   6.504  1.00  0.00     0.097 A 
HETATM   10  C9  UNK     1      12.724   7.772   8.530  1.00  0.00     0.070 A 
HETATM   11  C10 UNK     1      11.725   9.673  10.280  1.00  0.00     0.050 A 
HETATM   12  C11 UNK     1       9.884   6.144   5.806  1.00  0.00     0.020 A 
HETATM   13  C13 UNK     1      13.596   8.492   9.350  1.00  0.00     0.104 A 
HETATM   14  C14 UNK     1      13.097   9.445  10.224  1.00  0.00     0.102 A 
HETATM   15  H4  UNK     1       9.222   7.529  10.644  1.00  0.00     0.317 HD
ENDROOT
BRANCH   3  16
HETATM   16  C6  UNK     1       7.536   6.036   9.452  1.00  0.00     0.054 A 
HETATM   17  C12 UNK     1       6.463   6.158  10.470  1.00  0.00     0.195 A 
HETATM   18  O4  UNK     1       6.060   7.244  10.865  1.00  0.00    -0.287 OA
HETATM   19  C16 UNK     1       5.906   4.894  10.987  1.00  0.00     0.048 A 
HETATM   20  C17 UNK     1       6.404   3.686  10.501  1.00  0.00     0.089 A 
HETATM   21  C18 UNK     1       4.893   4.903  11.949  1.00  0.00     0.018 A 
HETATM   22  O1  UNK     1       7.397   3.618   9.558  1.00  0.00    -0.321 OA
HETATM   23  C19 UNK     1       5.891   2.478  10.976  1.00  0.00     0.038 A 
HETATM   24  C15 UNK     1       7.907   4.803   9.087  1.00  0.00     0.156 A 
HETATM   25  C23 UNK     1       4.880   2.483  11.936  1.00  0.00     0.003 A 
HETATM   26  C22 UNK     1       4.382   3.693  12.422  1.00  0.00     0.001 A 
ENDBRANCH   3  16
BRANCH  14  27
HETATM   27  O3  UNK     1      13.932  10.174  11.012  1.00  0.00    -0.349 OA
BRANCH  27  28
HETATM   28  C21 UNK     1      14.056   9.768  12.374  1.00  0.00     0.171 C 
HETATM   29  C25 UNK     1      13.655  10.921  13.270  1.00  0.00     0.034 C 
ENDBRANCH  27  28
ENDBRANCH  14  27
BRANCH  13  30
HETATM   30  O2  UNK     1      14.933   8.237   9.286  1.00  0.00    -0.349 OA
BRANCH  30  31
HETATM   31  C20 UNK     1      15.417   7.134  10.048  1.00  0.00     0.171 C 
HETATM   32  C24 UNK     1      16.830   7.431  10.504  1.00  0.00     0.034 C 
ENDBRANCH  30  31
ENDBRANCH  13  30
TORSDOF 5
ENDMDL
MODEL 6
REMARK VINA RESULT:      -8.1     22.172     24.299
REMARK  5 active torsions:
REMARK  status: ('A' for Active; 'I' for Inactive)
REMARK    1  A    between atoms: C13_19  and  O2_2 
REMARK    2  A    between atoms: C20_26  and  O2_2 
REMARK    3  A    between atoms: C14_20  and  O3_3 
REMARK    4  A    between atoms: C21_27  and  O3_3 
REMARK    5  A    between atoms: C1_7  and  C6_12 
ROOT
HETATM    1  N1  UNK     1      18.350   8.202  33.520  1.00  0.00    -0.323 N 
HETATM    2  N2  UNK     1      16.666   6.504  31.572  1.00  0.00     0.102 N 
HETATM    3  C1  UNK     1      18.077   6.206  31.822  1.00  0.00     0.309 C 
HETATM    4  C2  UNK     1      18.835   7.145  32.740  1.00  0.00     0.054 A 
HETATM    5  C3  UNK     1      17.044   8.790  33.557  1.00  0.00     0.049 A 
HETATM    6  C4  UNK     1      16.442   7.898  31.237  1.00  0.00     0.312 C 
HETATM    7  C5  UNK     1      16.138   8.670  32.488  1.00  0.00    -0.000 A 
HETATM    8  C7  UNK     1      20.203   7.050  32.976  1.00  0.00     0.029 A 
HETATM    9  C8  UNK     1      19.416   8.664  34.286  1.00  0.00     0.097 A 
HETATM   10  C9  UNK     1      16.665   9.547  34.684  1.00  0.00     0.070 A 
HETATM   11  C10 UNK     1      14.886   9.314  32.573  1.00  0.00     0.050 A 
HETATM   12  C11 UNK     1      20.560   7.988  33.952  1.00  0.00     0.020 A 
HETATM   13  C13 UNK     1      15.418  10.171  34.751  1.00  0.00     0.104 A 
HETATM   14  C14 UNK     1      14.528  10.057  33.695  1.00  0.00     0.102 A 
HETATM   15  H4  UNK     1      16.077   6.226  32.357  1.00  0.00     0.317 HD
ENDROOT
BRANCH   3  16
HETATM   16  C6  UNK     1      18.169   4.775  32.286  1.00  0.00     0.054 A 
HETATM   17  C12 UNK     1      18.566   3.735  31.304  1.00  0.00     0.195 A 
HETATM   18  O4  UNK     1      18.818   4.004  30.137  1.00  0.00    -0.287 OA
HETATM   19  C16 UNK     1      18.638   2.352  31.811  1.00  0.00     0.048 A 
HETATM   20  C17 UNK     1      18.339   2.104  33.150  1.00  0.00     0.089 A 
HETATM   21  C18 UNK     1      19.001   1.301  30.964  1.00  0.00     0.018 A 
HETATM   22  O1  UNK     1      17.978   3.096  34.025  1.00  0.00    -0.321 OA
HETATM   23  C19 UNK     1      18.401   0.803  33.650  1.00  0.00     0.038 A 
HETATM   24  C15 UNK     1      17.913   4.379  33.540  1.00  0.00     0.156 A 
HETATM   25  C23 UNK     1      18.764  -0.248  32.808  1.00  0.00     0.003 A 
HETATM   26  C22 UNK     1      19.063   0.001  31.467  1.00  0.00     0.001 A 
ENDBRANCH   3  16
BRANCH  14  27
HETATM   27  O3  UNK     1      13.319  10.679  33.731  1.00  0.00    -0.349 OA
BRANCH  27  28
HETATM   28  C21 UNK     1      12.968  11.478  32.603  1.00  0.00     0.171 C 
HETATM   29  C25 UNK     1      13.616  12.839  32.744  1.00  0.00     0.034 C 
ENDBRANCH  27  28
ENDBRANCH  14  27
BRANCH  13  30
HETATM   30  O2  UNK     1      15.088  10.880  35.867  1.00  0.00    -0.349 OA
BRANCH  30  31
HETATM   31  C20 UNK     1      15.449  12.259  35.886  1.00  0.00     0.171 C 
HETATM   32  C24 UNK     1      14.669  12.958  36.979  1.00  0.00     0.034 C 
ENDBRANCH  30  31
ENDBRANCH  13  30
TORSDOF 5
ENDMDL
MODEL 7
REMARK VINA RESULT:      -8.0      8.289     13.143
REMARK  5 active torsions:
REMARK  status: ('A' for Active; 'I' for Inactive)
REMARK    1  A    between atoms: C13_19  and  O2_2 
REMARK    2  A    between atoms: C20_26  and  O2_2 
REMARK    3  A    between atoms: C14_20  and  O3_3 
REMARK    4  A    between atoms: C21_27  and  O3_3 
REMARK    5  A    between atoms: C1_7  and  C6_12 
ROOT
HETATM    1  N1  UNK     1      15.428  12.061   9.867  1.00  0.00    -0.323 N 
HETATM    2  N2  UNK     1      17.353   9.755   9.170  1.00  0.00     0.102 N 
HETATM    3  C1  UNK     1      16.403   9.649  10.279  1.00  0.00     0.309 C 
HETATM    4  C2  UNK     1      15.552  10.866  10.585  1.00  0.00     0.054 A 
HETATM    5  C3  UNK     1      16.172  12.534   8.738  1.00  0.00     0.049 A 
HETATM    6  C4  UNK     1      18.139  10.974   9.225  1.00  0.00     0.312 C 
HETATM    7  C5  UNK     1      17.453  12.046   8.427  1.00  0.00    -0.000 A 
HETATM    8  C7  UNK     1      14.692  10.946  11.676  1.00  0.00     0.029 A 
HETATM    9  C8  UNK     1      14.424  12.802  10.483  1.00  0.00     0.097 A 
HETATM   10  C9  UNK     1      15.621  13.550   7.931  1.00  0.00     0.070 A 
HETATM   11  C10 UNK     1      18.148  12.589   7.327  1.00  0.00     0.050 A 
HETATM   12  C11 UNK     1      13.978  12.148  11.602  1.00  0.00     0.020 A 
HETATM   13  C13 UNK     1      16.323  14.071   6.842  1.00  0.00     0.104 A 
HETATM   14  C14 UNK     1      17.588  13.592   6.541  1.00  0.00     0.102 A 
HETATM   15  H4  UNK     1      16.890   9.669   8.266  1.00  0.00     0.317 HD
ENDROOT
BRANCH   3  16
HETATM   16  C6  UNK     1      15.560   8.421  10.046  1.00  0.00     0.054 A 
HETATM   17  C12 UNK     1      14.686   8.380   8.847  1.00  0.00     0.195 A 
HETATM   18  O4  UNK     1      14.630   9.306   8.049  1.00  0.00    -0.287 OA
HETATM   19  C16 UNK     1      13.880   7.157   8.668  1.00  0.00     0.048 A 
HETATM   20  C17 UNK     1      13.984   6.134   9.609  1.00  0.00     0.089 A 
HETATM   21  C18 UNK     1      13.025   7.022   7.571  1.00  0.00     0.018 A 
HETATM   22  O1  UNK     1      14.807   6.213  10.703  1.00  0.00    -0.321 OA
HETATM   23  C19 UNK     1      13.232   4.968   9.458  1.00  0.00     0.038 A 
HETATM   24  C15 UNK     1      15.549   7.357  10.858  1.00  0.00     0.156 A 
HETATM   25  C23 UNK     1      12.377   4.830   8.365  1.00  0.00     0.003 A 
HETATM   26  C22 UNK     1      12.274   5.855   7.423  1.00  0.00     0.001 A 
ENDBRANCH   3  16
BRANCH  14  27
HETATM   27  O3  UNK     1      18.298  14.104   5.499  1.00  0.00    -0.349 OA
BRANCH  27  28
HETATM   28  C21 UNK     1      19.661  13.700   5.383  1.00  0.00     0.171 C 
HETATM   29  C25 UNK     1      19.938  13.307   3.948  1.00  0.00     0.034 C 
ENDBRANCH  27  28
ENDBRANCH  14  27
BRANCH  13  30
HETATM   30  O2  UNK     1      15.745  15.041   6.080  1.00  0.00    -0.349 OA
BRANCH  30  31
HETATM   31  C20 UNK     1      15.267  16.199   6.762  1.00  0.00     0.171 C 
HETATM   32  C24 UNK     1      13.781  16.339   6.515  1.00  0.00     0.034 C 
ENDBRANCH  30  31
ENDBRANCH  13  30
TORSDOF 5
ENDMDL
MODEL 8
REMARK VINA RESULT:      -7.9      6.613     10.382
REMARK  5 active torsions:
REMARK  status: ('A' for Active; 'I' for Inactive)
REMARK    1  A    between atoms: C13_19  and  O2_2 
REMARK    2  A    between atoms: C20_26  and  O2_2 
REMARK    3  A    between atoms: C14_20  and  O3_3 
REMARK    4  A    between atoms: C21_27  and  O3_3 
REMARK    5  A    between atoms: C1_7  and  C6_12 
ROOT
HETATM    1  N1  UNK     1      14.703   7.684   9.856  1.00  0.00    -0.323 N 
HETATM    2  N2  UNK     1      14.824  10.580  10.910  1.00  0.00     0.102 N 
HETATM    3  C1  UNK     1      16.018   9.734  10.862  1.00  0.00     0.309 C 
HETATM    4  C2  UNK     1      15.838   8.303  10.396  1.00  0.00     0.054 A 
HETATM    5  C3  UNK     1      13.362   8.174   9.734  1.00  0.00     0.049 A 
HETATM    6  C4  UNK     1      13.705   9.927  11.565  1.00  0.00     0.312 C 
HETATM    7  C5  UNK     1      12.871   9.218  10.537  1.00  0.00    -0.000 A 
HETATM    8  C7  UNK     1      16.859   7.358  10.407  1.00  0.00     0.029 A 
HETATM    9  C8  UNK     1      15.087   6.406   9.462  1.00  0.00     0.097 A 
HETATM   10  C9  UNK     1      12.494   7.567   8.805  1.00  0.00     0.070 A 
HETATM   11  C10 UNK     1      11.526   9.619  10.395  1.00  0.00     0.050 A 
HETATM   12  C11 UNK     1      16.393   6.180   9.810  1.00  0.00     0.020 A 
HETATM   13  C13 UNK     1      11.167   7.983   8.676  1.00  0.00     0.104 A 
HETATM   14  C14 UNK     1      10.682   9.009   9.472  1.00  0.00     0.102 A 
HETATM   15  H4  UNK     1      14.554  10.907   9.983  1.00  0.00     0.317 HD
ENDROOT
BRANCH   3  16
HETATM   16  C6  UNK     1      17.061  10.459  10.051  1.00  0.00     0.054 A 
HETATM   17  C12 UNK     1      16.690  10.960   8.703  1.00  0.00     0.195 A 
HETATM   18  O4  UNK     1      15.570  10.801   8.235  1.00  0.00    -0.287 OA
HETATM   19  C16 UNK     1      17.749  11.659   7.952  1.00  0.00     0.048 A 
HETATM   20  C17 UNK     1      19.007  11.810   8.534  1.00  0.00     0.089 A 
HETATM   21  C18 UNK     1      17.498  12.166   6.674  1.00  0.00     0.018 A 
HETATM   22  O1  UNK     1      19.307  11.333   9.784  1.00  0.00    -0.321 OA
HETATM   23  C19 UNK     1      20.022  12.469   7.841  1.00  0.00     0.038 A 
HETATM   24  C15 UNK     1      18.313  10.682  10.472  1.00  0.00     0.156 A 
HETATM   25  C23 UNK     1      19.776  12.977   6.566  1.00  0.00     0.003 A 
HETATM   26  C22 UNK     1      18.517  12.825   5.983  1.00  0.00     0.001 A 
ENDBRANCH   3  16
BRANCH  14  27
HETATM   27  O3  UNK     1       9.386   9.411   9.378  1.00  0.00    -0.349 OA
BRANCH  27  28
HETATM   28  C21 UNK     1       8.545   9.155  10.501  1.00  0.00     0.171 C 
HETATM   29  C25 UNK     1       7.711   7.922  10.221  1.00  0.00     0.034 C 
ENDBRANCH  27  28
ENDBRANCH  14  27
BRANCH  13  30
HETATM   30  O2  UNK     1      10.367   7.378   7.754  1.00  0.00    -0.349 OA
BRANCH  30  31
HETATM   31  C20 UNK     1      10.998   6.894   6.570  1.00  0.00     0.171 C 
HETATM   32  C24 UNK     1       9.972   6.170   5.725  1.00  0.00     0.034 C 
ENDBRANCH  30  31
ENDBRANCH  13  30
TORSDOF 5
ENDMDL
MODEL 9
REMARK VINA RESULT:      -7.9     33.485     36.711
REMARK  5 active torsions:
REMARK  status: ('A' for Active; 'I' for Inactive)
REMARK    1  A    between atoms: C13_19  and  O2_2 
REMARK    2  A    between atoms: C20_26  and  O2_2 
REMARK    3  A    between atoms: C14_20  and  O3_3 
REMARK    4  A    between atoms: C21_27  and  O3_3 
REMARK    5  A    between atoms: C1_7  and  C6_12 
ROOT
HETATM    1  N1  UNK     1      34.683  -7.782  32.024  1.00  0.00    -0.323 N 
HETATM    2  N2  UNK     1      33.792  -9.606  34.345  1.00  0.00     0.102 N 
HETATM    3  C1  UNK     1      34.634  -8.432  34.576  1.00  0.00     0.309 C 
HETATM    4  C2  UNK     1      35.077  -7.642  33.360  1.00  0.00     0.054 A 
HETATM    5  C3  UNK     1      33.878  -8.793  31.405  1.00  0.00     0.049 A 
HETATM    6  C4  UNK     1      34.309 -10.463  33.294  1.00  0.00     0.312 C 
HETATM    7  C5  UNK     1      33.701 -10.064  31.980  1.00  0.00    -0.000 A 
HETATM    8  C7  UNK     1      35.968  -6.574  33.420  1.00  0.00     0.029 A 
HETATM    9  C8  UNK     1      35.268  -6.735  31.317  1.00  0.00     0.097 A 
HETATM   10  C9  UNK     1      33.273  -8.521  30.162  1.00  0.00     0.070 A 
HETATM   11  C10 UNK     1      32.932 -11.026  31.294  1.00  0.00     0.050 A 
HETATM   12  C11 UNK     1      36.073  -6.000  32.148  1.00  0.00     0.020 A 
HETATM   13  C13 UNK     1      32.510  -9.486  29.502  1.00  0.00     0.104 A 
HETATM   14  C14 UNK     1      32.341 -10.741  30.066  1.00  0.00     0.102 A 
HETATM   15  H4  UNK     1      32.825  -9.346  34.151  1.00  0.00     0.317 HD
ENDROOT
BRANCH   3  16
HETATM   16  C6  UNK     1      33.934  -7.557  35.585  1.00  0.00     0.054 A 
HETATM   17  C12 UNK     1      32.528  -7.158  35.324  1.00  0.00     0.195 A 
HETATM   18  O4  UNK     1      31.926  -7.516  34.321  1.00  0.00    -0.287 OA
HETATM   19  C16 UNK     1      31.893  -6.301  36.342  1.00  0.00     0.048 A 
HETATM   20  C17 UNK     1      32.628  -5.923  37.465  1.00  0.00     0.089 A 
HETATM   21  C18 UNK     1      30.572  -5.871  36.186  1.00  0.00     0.018 A 
HETATM   22  O1  UNK     1      33.926  -6.316  37.668  1.00  0.00    -0.321 OA
HETATM   23  C19 UNK     1      32.045  -5.113  38.440  1.00  0.00     0.038 A 
HETATM   24  C15 UNK     1      34.506  -7.113  36.712  1.00  0.00     0.156 A 
HETATM   25  C23 UNK     1      30.728  -4.683  38.289  1.00  0.00     0.003 A 
HETATM   26  C22 UNK     1      29.993  -5.061  37.164  1.00  0.00     0.001 A 
ENDBRANCH   3  16
BRANCH  14  27
HETATM   27  O3  UNK     1      31.622 -11.703  29.427  1.00  0.00    -0.349 OA
BRANCH  27  28
HETATM   28  C21 UNK     1      30.300 -11.948  29.902  1.00  0.00     0.171 C 
HETATM   29  C25 UNK     1      30.221 -13.365  30.429  1.00  0.00     0.034 C 
ENDBRANCH  27  28
ENDBRANCH  14  27
BRANCH  13  30
HETATM   30  O2  UNK     1      31.930  -9.175  28.309  1.00  0.00    -0.349 OA
BRANCH  30  31
HETATM   31  C20 UNK     1      31.088  -8.025  28.281  1.00  0.00     0.171 C 
HETATM   32  C24 UNK     1      29.748  -8.380  28.889  1.00  0.00     0.034 C 
ENDBRANCH  30  31
ENDBRANCH  13  30
TORSDOF 5
ENDMDL
MODEL 10
REMARK VINA RESULT:      -7.8     31.921     35.443
REMARK  5 active torsions:
REMARK  status: ('A' for Active; 'I' for Inactive)
REMARK    1  A    between atoms: C13_19  and  O2_2 
REMARK    2  A    between atoms: C20_26  and  O2_2 
REMARK    3  A    between atoms: C14_20  and  O3_3 
REMARK    4  A    between atoms: C21_27  and  O3_3 
REMARK    5  A    between atoms: C1_7  and  C6_12 
ROOT
HETATM    1  N1  UNK     1      30.892  -6.788  31.585  1.00  0.00    -0.323 N 
HETATM    2  N2  UNK     1      32.831  -7.524  33.867  1.00  0.00     0.102 N 
HETATM    3  C1  UNK     1      31.946  -6.362  33.961  1.00  0.00     0.309 C 
HETATM    4  C2  UNK     1      31.084  -6.044  32.756  1.00  0.00     0.054 A 
HETATM    5  C3  UNK     1      31.561  -7.969  31.129  1.00  0.00     0.049 A 
HETATM    6  C4  UNK     1      33.589  -7.548  32.629  1.00  0.00     0.312 C 
HETATM    7  C5  UNK     1      32.835  -8.336  31.597  1.00  0.00    -0.000 A 
HETATM    8  C7  UNK     1      30.283  -4.909  32.662  1.00  0.00     0.029 A 
HETATM    9  C8  UNK     1      29.906  -6.139  30.849  1.00  0.00     0.097 A 
HETATM   10  C9  UNK     1      30.942  -8.773  30.150  1.00  0.00     0.070 A 
HETATM   11  C10 UNK     1      33.455  -9.488  31.072  1.00  0.00     0.050 A 
HETATM   12  C11 UNK     1      29.537  -4.978  31.479  1.00  0.00     0.020 A 
HETATM   13  C13 UNK     1      31.571  -9.913  29.646  1.00  0.00     0.104 A 
HETATM   14  C14 UNK     1      32.829 -10.271  30.105  1.00  0.00     0.102 A 
HETATM   15  H4  UNK     1      32.321  -8.398  33.990  1.00  0.00     0.317 HD
ENDROOT
BRANCH   3  16
HETATM   16  C6  UNK     1      31.121  -6.514  35.214  1.00  0.00     0.054 A 
HETATM   17  C12 UNK     1      30.366  -7.775  35.417  1.00  0.00     0.195 A 
HETATM   18  O4  UNK     1      30.393  -8.688  34.603  1.00  0.00    -0.287 OA
HETATM   19  C16 UNK     1      29.573  -7.870  36.657  1.00  0.00     0.048 A 
HETATM   20  C17 UNK     1      29.579  -6.798  37.549  1.00  0.00     0.089 A 
HETATM   21  C18 UNK     1      28.826  -9.017  36.939  1.00  0.00     0.018 A 
HETATM   22  O1  UNK     1      30.294  -5.650  37.323  1.00  0.00    -0.321 OA
HETATM   23  C19 UNK     1      28.837  -6.867  38.728  1.00  0.00     0.038 A 
HETATM   24  C15 UNK     1      31.025  -5.574  36.164  1.00  0.00     0.156 A 
HETATM   25  C23 UNK     1      28.091  -8.010  39.013  1.00  0.00     0.003 A 
HETATM   26  C22 UNK     1      28.085  -9.083  38.120  1.00  0.00     0.001 A 
ENDBRANCH   3  16
BRANCH  14  27
HETATM   27  O3  UNK     1      33.468 -11.364  29.608  1.00  0.00    -0.349 OA
BRANCH  27  28
HETATM   28  C21 UNK     1      33.785 -12.404  30.531  1.00  0.00     0.171 C 
HETATM   29  C25 UNK     1      32.599 -13.338  30.646  1.00  0.00     0.034 C 
ENDBRANCH  27  28
ENDBRANCH  14  27
BRANCH  13  30
HETATM   30  O2  UNK     1      30.929 -10.669  28.712  1.00  0.00    -0.349 OA
BRANCH  30  31
HETATM   31  C20 UNK     1      30.010  -9.994  27.856  1.00  0.00     0.171 C 
HETATM   32  C24 UNK     1      28.602 -10.426  28.204  1.00  0.00     0.034 C 
ENDBRANCH  30  31
ENDBRANCH  13  30
TORSDOF 5
ENDMDL
