MODEL 1
REMARK VINA RESULT:      -9.8      0.000      0.000
REMARK  5 active torsions:
REMARK  status: ('A' for Active; 'I' for Inactive)
REMARK    1  A    between atoms: C5_12  and  N1_5 
REMARK    2  A    between atoms: C6_13  and  N2_6 
REMARK       I    between atoms: C8_15  and  N3_7 
REMARK    3  A    between atoms: C5_12  and  C7_14 
REMARK    4  A    between atoms: C6_13  and  C8_15 
REMARK    5  A    between atoms: C18_25  and  C24_31 
ROOT
HETATM    1  N1  UNK     1      19.159  -2.672  36.254  1.00  0.00     0.096 N 
HETATM    2  N2  UNK     1      18.490  -0.027  35.297  1.00  0.00     0.100 N 
HETATM    3  C1  UNK     1      18.680  -1.628  37.169  1.00  0.00     0.303 C 
HETATM    4  C2  UNK     1      19.866  -2.072  35.115  1.00  0.00     0.303 C 
HETATM    5  C3  UNK     1      17.783  -0.627  36.434  1.00  0.00     0.303 C 
HETATM    6  C4  UNK     1      18.966  -1.072  34.381  1.00  0.00     0.303 C 
ENDROOT
BRANCH   1   7
HETATM    7  C5  UNK     1      20.018  -3.623  36.955  1.00  0.00     0.312 C 
BRANCH   7   8
HETATM    8  C7  UNK     1      19.457  -5.002  36.946  1.00  0.00    -0.011 A 
HETATM    9  C12 UNK     1      18.261  -5.260  36.397  1.00  0.00     0.092 A 
HETATM   10  C19 UNK     1      17.665  -6.606  36.363  1.00  0.00     0.288 A 
HETATM   11  O3  UNK     1      18.406  -7.629  36.934  1.00  0.00    -0.275 OA
HETATM   12  O4  UNK     1      16.570  -6.803  35.850  1.00  0.00    -0.260 OA
HETATM   13  C14 UNK     1      19.666  -7.389  37.517  1.00  0.00     0.090 A 
HETATM   14  C9  UNK     1      20.217  -6.108  37.544  1.00  0.00     0.007 A 
HETATM   15  C20 UNK     1      20.322  -8.494  38.063  1.00  0.00     0.039 A 
HETATM   16  C16 UNK     1      21.475  -5.953  38.143  1.00  0.00     0.022 A 
HETATM   17  C18 UNK     1      22.144  -7.052  38.694  1.00  0.00    -0.058 A 
HETATM   18  C23 UNK     1      21.568  -8.320  38.654  1.00  0.00     0.010 A 
BRANCH  17  19
HETATM   19  C24 UNK     1      23.482  -6.864  39.328  1.00  0.00     0.034 C 
HETATM   20  C27 UNK     1      24.487  -7.924  38.888  1.00  0.00     0.010 C 
ENDBRANCH  17  19
ENDBRANCH   7   8
ENDBRANCH   1   7
BRANCH   2  21
HETATM   21  C6  UNK     1      17.632   0.925  34.596  1.00  0.00     0.375 C 
BRANCH  21  22
HETATM   22  C8  UNK     1      18.331   2.251  34.396  1.00  0.00     0.253 C 
HETATM   23  O2  UNK     1      18.906   2.754  35.364  1.00  0.00    -0.271 OA
HETATM   24  N3  UNK     1      18.272   2.785  33.099  1.00  0.00    -0.312 N 
HETATM   25  C10 UNK     1      18.170   1.930  31.907  1.00  0.00     0.159 C 
HETATM   26  C11 UNK     1      18.282   4.199  32.816  1.00  0.00     0.071 A 
HETATM   27  C13 UNK     1      18.987   2.507  30.770  1.00  0.00     0.196 C 
HETATM   28  O1  UNK     1      18.492   3.790  30.404  1.00  0.00    -0.347 OA
HETATM   29  C15 UNK     1      18.372   4.637  31.479  1.00  0.00     0.095 A 
HETATM   30  C22 UNK     1      18.324   5.997  31.152  1.00  0.00     0.039 A 
HETATM   31  C25 UNK     1      18.204   6.952  32.155  1.00  0.00     0.009 A 
HETATM   32  C21 UNK     1      18.117   6.544  33.480  1.00  0.00    -0.060 A 
HETATM   33  C17 UNK     1      18.149   5.184  33.808  1.00  0.00     0.039 A 
HETATM   34  C26 UNK     1      17.973   7.564  34.561  1.00  0.00     0.048 C 
ENDBRANCH  21  22
ENDBRANCH   2  21
TORSDOF 5
ENDMDL
MODEL 2
REMARK VINA RESULT:      -9.3     11.761     16.020
REMARK  5 active torsions:
REMARK  status: ('A' for Active; 'I' for Inactive)
REMARK    1  A    between atoms: C5_12  and  N1_5 
REMARK    2  A    between atoms: C6_13  and  N2_6 
REMARK       I    between atoms: C8_15  and  N3_7 
REMARK    3  A    between atoms: C5_12  and  C7_14 
REMARK    4  A    between atoms: C6_13  and  C8_15 
REMARK    5  A    between atoms: C18_25  and  C24_31 
ROOT
HETATM    1  N1  UNK     1      33.401  -8.267  33.660  1.00  0.00     0.096 N 
HETATM    2  N2  UNK     1      33.234  -7.483  36.437  1.00  0.00     0.100 N 
HETATM    3  C1  UNK     1      32.383  -8.836  34.552  1.00  0.00     0.303 C 
HETATM    4  C2  UNK     1      34.601  -7.895  34.419  1.00  0.00     0.303 C 
HETATM    5  C3  UNK     1      32.035  -7.855  35.677  1.00  0.00     0.303 C 
HETATM    6  C4  UNK     1      34.251  -6.914  35.543  1.00  0.00     0.303 C 
ENDROOT
BRANCH   1   7
HETATM    7  C5  UNK     1      33.735  -9.206  32.590  1.00  0.00     0.312 C 
BRANCH   7   8
HETATM    8  C7  UNK     1      33.685  -8.568  31.246  1.00  0.00    -0.011 A 
HETATM    9  C12 UNK     1      34.802  -8.147  30.636  1.00  0.00     0.092 A 
HETATM   10  C19 UNK     1      34.803  -7.512  29.307  1.00  0.00     0.288 A 
HETATM   11  O3  UNK     1      33.571  -7.360  28.689  1.00  0.00    -0.275 OA
HETATM   12  O4  UNK     1      35.846  -7.142  28.781  1.00  0.00    -0.260 OA
HETATM   13  C14 UNK     1      32.380  -7.794  29.304  1.00  0.00     0.090 A 
HETATM   14  C9  UNK     1      32.395  -8.393  30.565  1.00  0.00     0.007 A 
HETATM   15  C20 UNK     1      31.198  -7.590  28.590  1.00  0.00     0.039 A 
HETATM   16  C16 UNK     1      31.167  -8.795  31.108  1.00  0.00     0.022 A 
HETATM   17  C18 UNK     1      29.974  -8.597  30.403  1.00  0.00    -0.058 A 
HETATM   18  C23 UNK     1      29.990  -7.996  29.146  1.00  0.00     0.010 A 
BRANCH  17  19
HETATM   19  C24 UNK     1      28.678  -9.033  31.000  1.00  0.00     0.034 C 
HETATM   20  C27 UNK     1      27.477  -8.402  30.304  1.00  0.00     0.010 C 
ENDBRANCH  17  19
ENDBRANCH   7   8
ENDBRANCH   1   7
BRANCH   2  21
HETATM   21  C6  UNK     1      32.901  -6.546  37.507  1.00  0.00     0.375 C 
BRANCH  21  22
HETATM   22  C8  UNK     1      31.746  -7.053  38.342  1.00  0.00     0.253 C 
HETATM   23  O2  UNK     1      31.880  -8.135  38.918  1.00  0.00    -0.271 OA
HETATM   24  N3  UNK     1      30.618  -6.220  38.397  1.00  0.00    -0.312 N 
HETATM   25  C10 UNK     1      30.720  -4.759  38.266  1.00  0.00     0.159 C 
HETATM   26  C11 UNK     1      29.271  -6.710  38.558  1.00  0.00     0.071 A 
HETATM   27  C13 UNK     1      29.732  -4.075  39.187  1.00  0.00     0.196 C 
HETATM   28  O1  UNK     1      28.399  -4.431  38.839  1.00  0.00    -0.347 OA
HETATM   29  C15 UNK     1      28.220  -5.790  38.754  1.00  0.00     0.095 A 
HETATM   30  C22 UNK     1      26.890  -6.216  38.854  1.00  0.00     0.039 A 
HETATM   31  C25 UNK     1      26.582  -7.569  38.782  1.00  0.00     0.009 A 
HETATM   32  C21 UNK     1      27.602  -8.493  38.595  1.00  0.00    -0.060 A 
HETATM   33  C17 UNK     1      28.931  -8.069  38.478  1.00  0.00     0.039 A 
HETATM   34  C26 UNK     1      27.277  -9.947  38.502  1.00  0.00     0.048 C 
ENDBRANCH  21  22
ENDBRANCH   2  21
TORSDOF 5
ENDMDL
MODEL 3
REMARK VINA RESULT:      -9.2     12.016     14.626
REMARK  5 active torsions:
REMARK  status: ('A' for Active; 'I' for Inactive)
REMARK    1  A    between atoms: C5_12  and  N1_5 
REMARK    2  A    between atoms: C6_13  and  N2_6 
REMARK       I    between atoms: C8_15  and  N3_7 
REMARK    3  A    between atoms: C5_12  and  C7_14 
REMARK    4  A    between atoms: C6_13  and  C8_15 
REMARK    5  A    between atoms: C18_25  and  C24_31 
ROOT
HETATM    1  N1  UNK     1      31.964  -8.791  36.369  1.00  0.00     0.096 N 
HETATM    2  N2  UNK     1      33.197  -9.505  33.854  1.00  0.00     0.100 N 
HETATM    3  C1  UNK     1      33.271  -8.247  35.979  1.00  0.00     0.303 C 
HETATM    4  C2  UNK     1      31.759 -10.116  35.769  1.00  0.00     0.303 C 
HETATM    5  C3  UNK     1      33.400  -8.182  34.454  1.00  0.00     0.303 C 
HETATM    6  C4  UNK     1      31.889 -10.048  34.244  1.00  0.00     0.303 C 
ENDROOT
BRANCH   1   7
HETATM    7  C5  UNK     1      31.843  -8.857  37.824  1.00  0.00     0.312 C 
BRANCH   7   8
HETATM    8  C7  UNK     1      30.434  -8.702  38.280  1.00  0.00    -0.011 A 
HETATM    9  C12 UNK     1      29.702  -9.765  38.641  1.00  0.00     0.092 A 
HETATM   10  C19 UNK     1      28.306  -9.662  39.098  1.00  0.00     0.288 A 
HETATM   11  O3  UNK     1      27.759  -8.389  39.145  1.00  0.00    -0.275 OA
HETATM   12  O4  UNK     1      27.668 -10.658  39.423  1.00  0.00    -0.260 OA
HETATM   13  C14 UNK     1      28.504  -7.253  38.773  1.00  0.00     0.090 A 
HETATM   14  C9  UNK     1      29.826  -7.366  38.340  1.00  0.00     0.007 A 
HETATM   15  C20 UNK     1      27.851  -6.022  38.859  1.00  0.00     0.039 A 
HETATM   16  C16 UNK     1      30.498  -6.189  37.987  1.00  0.00     0.022 A 
HETATM   17  C18 UNK     1      29.856  -4.947  38.068  1.00  0.00    -0.058 A 
HETATM   18  C23 UNK     1      28.535  -4.865  38.504  1.00  0.00     0.010 A 
BRANCH  17  19
HETATM   19  C24 UNK     1      30.591  -3.705  37.687  1.00  0.00     0.034 C 
HETATM   20  C27 UNK     1      31.808  -3.997  36.815  1.00  0.00     0.010 C 
ENDBRANCH  17  19
ENDBRANCH   7   8
ENDBRANCH   1   7
BRANCH   2  21
HETATM   21  C6  UNK     1      33.319  -9.441  32.399  1.00  0.00     0.375 C 
BRANCH  21  22
HETATM   22  C8  UNK     1      32.277  -8.523  31.800  1.00  0.00     0.253 C 
HETATM   23  O2  UNK     1      32.395  -7.311  31.990  1.00  0.00    -0.271 OA
HETATM   24  N3  UNK     1      31.264  -9.150  31.056  1.00  0.00    -0.312 N 
HETATM   25  C10 UNK     1      31.491 -10.414  30.341  1.00  0.00     0.159 C 
HETATM   26  C11 UNK     1      29.922  -8.636  30.944  1.00  0.00     0.071 A 
HETATM   27  C13 UNK     1      30.748 -10.416  29.021  1.00  0.00     0.196 C 
HETATM   28  O1  UNK     1      29.346 -10.309  29.240  1.00  0.00    -0.347 OA
HETATM   29  C15 UNK     1      29.018  -9.252  30.054  1.00  0.00     0.095 A 
HETATM   30  C22 UNK     1      27.687  -8.826  29.956  1.00  0.00     0.039 A 
HETATM   31  C25 UNK     1      27.236  -7.764  30.730  1.00  0.00     0.009 A 
HETATM   32  C21 UNK     1      28.110  -7.139  31.611  1.00  0.00    -0.060 A 
HETATM   33  C17 UNK     1      29.436  -7.573  31.722  1.00  0.00     0.039 A 
HETATM   34  C26 UNK     1      27.628  -6.007  32.456  1.00  0.00     0.048 C 
ENDBRANCH  21  22
ENDBRANCH   2  21
TORSDOF 5
ENDMDL
MODEL 4
REMARK VINA RESULT:      -9.2      5.653     12.803
REMARK  5 active torsions:
REMARK  status: ('A' for Active; 'I' for Inactive)
REMARK    1  A    between atoms: C5_12  and  N1_5 
REMARK    2  A    between atoms: C6_13  and  N2_6 
REMARK       I    between atoms: C8_15  and  N3_7 
REMARK    3  A    between atoms: C5_12  and  C7_14 
REMARK    4  A    between atoms: C6_13  and  C8_15 
REMARK    5  A    between atoms: C18_25  and  C24_31 
ROOT
HETATM    1  N1  UNK     1      16.158   7.466  33.569  1.00  0.00     0.096 N 
HETATM    2  N2  UNK     1      17.449   5.130  32.458  1.00  0.00     0.100 N 
HETATM    3  C1  UNK     1      16.764   6.446  34.434  1.00  0.00     0.303 C 
HETATM    4  C2  UNK     1      15.695   6.864  32.312  1.00  0.00     0.303 C 
HETATM    5  C3  UNK     1      17.913   5.732  33.713  1.00  0.00     0.303 C 
HETATM    6  C4  UNK     1      16.845   6.152  31.593  1.00  0.00     0.303 C 
ENDROOT
BRANCH   1   7
HETATM    7  C5  UNK     1      15.060   8.143  34.255  1.00  0.00     0.312 C 
BRANCH   7   8
HETATM    8  C7  UNK     1      15.068   9.613  34.017  1.00  0.00    -0.011 A 
HETATM    9  C12 UNK     1      13.929  10.286  33.798  1.00  0.00     0.092 A 
HETATM   10  C19 UNK     1      13.887  11.738  33.558  1.00  0.00     0.288 A 
HETATM   11  O3  UNK     1      15.102  12.406  33.568  1.00  0.00    -0.275 OA
HETATM   12  O4  UNK     1      12.825  12.319  33.364  1.00  0.00    -0.260 OA
HETATM   13  C14 UNK     1      16.315  11.727  33.796  1.00  0.00     0.090 A 
HETATM   14  C9  UNK     1      16.339  10.350  34.020  1.00  0.00     0.007 A 
HETATM   15  C20 UNK     1      17.476  12.501  33.783  1.00  0.00     0.039 A 
HETATM   16  C16 UNK     1      17.586   9.749  34.239  1.00  0.00     0.022 A 
HETATM   17  C18 UNK     1      18.760  10.513  34.228  1.00  0.00    -0.058 A 
HETATM   18  C23 UNK     1      18.704  11.886  34.001  1.00  0.00     0.010 A 
BRANCH  17  19
HETATM   19  C24 UNK     1      20.077   9.852  34.463  1.00  0.00     0.034 C 
HETATM   20  C27 UNK     1      19.966   8.331  34.491  1.00  0.00     0.010 C 
ENDBRANCH  17  19
ENDBRANCH   7   8
ENDBRANCH   1   7
BRANCH   2  21
HETATM   21  C6  UNK     1      18.546   4.452  31.771  1.00  0.00     0.375 C 
BRANCH  21  22
HETATM   22  C8  UNK     1      18.346   2.953  31.763  1.00  0.00     0.253 C 
HETATM   23  O2  UNK     1      17.968   2.413  32.805  1.00  0.00    -0.271 OA
HETATM   24  N3  UNK     1      18.597   2.308  30.541  1.00  0.00    -0.312 N 
HETATM   25  C10 UNK     1      18.411   2.987  29.249  1.00  0.00     0.159 C 
HETATM   26  C11 UNK     1      19.075   0.952  30.437  1.00  0.00     0.071 A 
HETATM   27  C13 UNK     1      17.853   2.024  28.222  1.00  0.00     0.196 C 
HETATM   28  O1  UNK     1      18.761   0.951  28.001  1.00  0.00    -0.347 OA
HETATM   29  C15 UNK     1      19.153   0.342  29.168  1.00  0.00     0.095 A 
HETATM   30  C22 UNK     1      19.668  -0.951  29.012  1.00  0.00     0.039 A 
HETATM   31  C25 UNK     1      20.098  -1.669  30.121  1.00  0.00     0.009 A 
HETATM   32  C21 UNK     1      20.026  -1.090  31.381  1.00  0.00    -0.060 A 
HETATM   33  C17 UNK     1      19.527   0.208  31.538  1.00  0.00     0.039 A 
HETATM   34  C26 UNK     1      20.500  -1.851  32.576  1.00  0.00     0.048 C 
ENDBRANCH  21  22
ENDBRANCH   2  21
TORSDOF 5
ENDMDL
MODEL 5
REMARK VINA RESULT:      -9.1     25.966     27.913
REMARK  5 active torsions:
REMARK  status: ('A' for Active; 'I' for Inactive)
REMARK    1  A    between atoms: C5_12  and  N1_5 
REMARK    2  A    between atoms: C6_13  and  N2_6 
REMARK       I    between atoms: C8_15  and  N3_7 
REMARK    3  A    between atoms: C5_12  and  C7_14 
REMARK    4  A    between atoms: C6_13  and  C8_15 
REMARK    5  A    between atoms: C18_25  and  C24_31 
ROOT
HETATM    1  N1  UNK     1       7.276   5.752   9.630  1.00  0.00     0.096 N 
HETATM    2  N2  UNK     1      10.059   6.496   9.391  1.00  0.00     0.100 N 
HETATM    3  C1  UNK     1       7.675   7.142   9.375  1.00  0.00     0.303 C 
HETATM    4  C2  UNK     1       8.321   5.048  10.386  1.00  0.00     0.303 C 
HETATM    5  C3  UNK     1       9.015   7.198   8.636  1.00  0.00     0.303 C 
HETATM    6  C4  UNK     1       9.660   5.105   9.645  1.00  0.00     0.303 C 
ENDROOT
BRANCH   1   7
HETATM    7  C5  UNK     1       5.999   5.700  10.340  1.00  0.00     0.312 C 
BRANCH   7   8
HETATM    8  C7  UNK     1       5.743   4.361  10.940  1.00  0.00    -0.011 A 
HETATM    9  C12 UNK     1       5.632   3.268  10.172  1.00  0.00     0.092 A 
HETATM   10  C19 UNK     1       5.380   1.924  10.719  1.00  0.00     0.288 A 
HETATM   11  O3  UNK     1       5.258   1.826  12.097  1.00  0.00    -0.275 OA
HETATM   12  O4  UNK     1       5.287   0.947   9.985  1.00  0.00    -0.260 OA
HETATM   13  C14 UNK     1       5.371   2.957  12.929  1.00  0.00     0.090 A 
HETATM   14  C9  UNK     1       5.609   4.224  12.396  1.00  0.00     0.007 A 
HETATM   15  C20 UNK     1       5.230   2.739  14.301  1.00  0.00     0.039 A 
HETATM   16  C16 UNK     1       5.707   5.298  13.291  1.00  0.00     0.022 A 
HETATM   17  C18 UNK     1       5.569   5.095  14.669  1.00  0.00    -0.058 A 
HETATM   18  C23 UNK     1       5.331   3.817  15.173  1.00  0.00     0.010 A 
BRANCH  17  19
HETATM   19  C24 UNK     1       5.677   6.253  15.605  1.00  0.00     0.034 C 
HETATM   20  C27 UNK     1       5.712   7.590  14.871  1.00  0.00     0.010 C 
ENDBRANCH  17  19
ENDBRANCH   7   8
ENDBRANCH   1   7
BRANCH   2  21
HETATM   21  C6  UNK     1      11.337   6.548   8.684  1.00  0.00     0.375 C 
BRANCH  21  22
HETATM   22  C8  UNK     1      12.429   7.117   9.562  1.00  0.00     0.253 C 
HETATM   23  O2  UNK     1      12.142   8.057  10.306  1.00  0.00    -0.271 OA
HETATM   24  N3  UNK     1      13.684   6.497   9.457  1.00  0.00    -0.312 N 
HETATM   25  C10 UNK     1      13.825   5.078   9.098  1.00  0.00     0.159 C 
HETATM   26  C11 UNK     1      14.934   7.186   9.664  1.00  0.00     0.071 A 
HETATM   27  C13 UNK     1      14.960   4.447   9.876  1.00  0.00     0.196 C 
HETATM   28  O1  UNK     1      16.194   5.081   9.559  1.00  0.00    -0.347 OA
HETATM   29  C15 UNK     1      16.135   6.447   9.686  1.00  0.00     0.095 A 
HETATM   30  C22 UNK     1      17.377   7.079   9.823  1.00  0.00     0.039 A 
HETATM   31  C25 UNK     1      17.445   8.460   9.961  1.00  0.00     0.009 A 
HETATM   32  C21 UNK     1      16.275   9.208   9.946  1.00  0.00    -0.060 A 
HETATM   33  C17 UNK     1      15.033   8.580   9.793  1.00  0.00     0.039 A 
HETATM   34  C26 UNK     1      16.343  10.694  10.079  1.00  0.00     0.048 C 
ENDBRANCH  21  22
ENDBRANCH   2  21
TORSDOF 5
ENDMDL
MODEL 6
REMARK VINA RESULT:      -9.1     11.677     15.530
REMARK  5 active torsions:
REMARK  status: ('A' for Active; 'I' for Inactive)
REMARK    1  A    between atoms: C5_12  and  N1_5 
REMARK    2  A    between atoms: C6_13  and  N2_6 
REMARK       I    between atoms: C8_15  and  N3_7 
REMARK    3  A    between atoms: C5_12  and  C7_14 
REMARK    4  A    between atoms: C6_13  and  C8_15 
REMARK    5  A    between atoms: C18_25  and  C24_31 
ROOT
HETATM    1  N1  UNK     1      32.070  -6.679  33.101  1.00  0.00     0.096 N 
HETATM    2  N2  UNK     1      32.127  -6.488  35.984  1.00  0.00     0.100 N 
HETATM    3  C1  UNK     1      32.546  -5.465  33.775  1.00  0.00     0.303 C 
HETATM    4  C2  UNK     1      31.075  -7.371  33.930  1.00  0.00     0.303 C 
HETATM    5  C3  UNK     1      33.121  -5.797  35.155  1.00  0.00     0.303 C 
HETATM    6  C4  UNK     1      31.653  -7.703  35.310  1.00  0.00     0.303 C 
ENDROOT
BRANCH   1   7
HETATM    7  C5  UNK     1      31.517  -6.361  31.786  1.00  0.00     0.312 C 
BRANCH   7   8
HETATM    8  C7  UNK     1      31.983  -7.307  30.735  1.00  0.00    -0.011 A 
HETATM    9  C12 UNK     1      33.287  -7.442  30.453  1.00  0.00     0.092 A 
HETATM   10  C19 UNK     1      33.796  -8.364  29.424  1.00  0.00     0.288 A 
HETATM   11  O3  UNK     1      32.852  -9.111  28.736  1.00  0.00    -0.275 OA
HETATM   12  O4  UNK     1      34.996  -8.462  29.196  1.00  0.00    -0.260 OA
HETATM   13  C14 UNK     1      31.475  -8.992  29.011  1.00  0.00     0.090 A 
HETATM   14  C9  UNK     1      31.008  -8.112  29.988  1.00  0.00     0.007 A 
HETATM   15  C20 UNK     1      30.616  -9.792  28.256  1.00  0.00     0.039 A 
HETATM   16  C16 UNK     1      29.624  -8.051  30.200  1.00  0.00     0.022 A 
HETATM   17  C18 UNK     1      28.750  -8.849  29.451  1.00  0.00    -0.058 A 
HETATM   18  C23 UNK     1      29.246  -9.718  28.481  1.00  0.00     0.010 A 
BRANCH  17  19
HETATM   19  C24 UNK     1      27.280  -8.768  29.693  1.00  0.00     0.034 C 
HETATM   20  C27 UNK     1      26.885  -7.503  30.449  1.00  0.00     0.010 C 
ENDBRANCH  17  19
ENDBRANCH   7   8
ENDBRANCH   1   7
BRANCH   2  21
HETATM   21  C6  UNK     1      32.679  -6.805  37.300  1.00  0.00     0.375 C 
BRANCH  21  22
HETATM   22  C8  UNK     1      31.603  -7.297  38.243  1.00  0.00     0.253 C 
HETATM   23  O2  UNK     1      31.802  -8.352  38.848  1.00  0.00    -0.271 OA
HETATM   24  N3  UNK     1      30.467  -6.479  38.354  1.00  0.00    -0.312 N 
HETATM   25  C10 UNK     1      30.531  -5.023  38.160  1.00  0.00     0.159 C 
HETATM   26  C11 UNK     1      29.146  -6.983  38.641  1.00  0.00     0.071 A 
HETATM   27  C13 UNK     1      29.606  -4.319  39.130  1.00  0.00     0.196 C 
HETATM   28  O1  UNK     1      28.257  -4.709  38.902  1.00  0.00    -0.347 OA
HETATM   29  C15 UNK     1      28.097  -6.073  38.884  1.00  0.00     0.095 A 
HETATM   30  C22 UNK     1      26.787  -6.514  39.106  1.00  0.00     0.039 A 
HETATM   31  C25 UNK     1      26.500  -7.874  39.111  1.00  0.00     0.009 A 
HETATM   32  C21 UNK     1      27.519  -8.789  38.879  1.00  0.00    -0.060 A 
HETATM   33  C17 UNK     1      28.826  -8.350  38.640  1.00  0.00     0.039 A 
HETATM   34  C26 UNK     1      27.214 -10.251  38.868  1.00  0.00     0.048 C 
ENDBRANCH  21  22
ENDBRANCH   2  21
TORSDOF 5
ENDMDL
MODEL 7
REMARK VINA RESULT:      -9.0     11.741     14.950
REMARK  5 active torsions:
REMARK  status: ('A' for Active; 'I' for Inactive)
REMARK    1  A    between atoms: C5_12  and  N1_5 
REMARK    2  A    between atoms: C6_13  and  N2_6 
REMARK       I    between atoms: C8_15  and  N3_7 
REMARK    3  A    between atoms: C5_12  and  C7_14 
REMARK    4  A    between atoms: C6_13  and  C8_15 
REMARK    5  A    between atoms: C18_25  and  C24_31 
ROOT
HETATM    1  N1  UNK     1      30.880  -9.749  33.273  1.00  0.00     0.096 N 
HETATM    2  N2  UNK     1      32.482  -9.193  35.614  1.00  0.00     0.100 N 
HETATM    3  C1  UNK     1      30.478 -10.226  34.602  1.00  0.00     0.303 C 
HETATM    4  C2  UNK     1      32.342  -9.637  33.187  1.00  0.00     0.303 C 
HETATM    5  C3  UNK     1      31.021  -9.304  35.699  1.00  0.00     0.303 C 
HETATM    6  C4  UNK     1      32.882  -8.715  34.285  1.00  0.00     0.303 C 
ENDROOT
BRANCH   1   7
HETATM    7  C5  UNK     1      30.366 -10.631  32.227  1.00  0.00     0.312 C 
BRANCH   7   8
HETATM    8  C7  UNK     1      30.086  -9.899  30.961  1.00  0.00    -0.011 A 
HETATM    9  C12 UNK     1      30.514 -10.368  29.780  1.00  0.00     0.092 A 
HETATM   10  C19 UNK     1      30.262  -9.681  28.502  1.00  0.00     0.288 A 
HETATM   11  O3  UNK     1      29.542  -8.498  28.564  1.00  0.00    -0.275 OA
HETATM   12  O4  UNK     1      30.668 -10.142  27.442  1.00  0.00    -0.260 OA
HETATM   13  C14 UNK     1      29.077  -7.981  29.790  1.00  0.00     0.090 A 
HETATM   14  C9  UNK     1      29.326  -8.642  30.993  1.00  0.00     0.007 A 
HETATM   15  C20 UNK     1      28.364  -6.782  29.732  1.00  0.00     0.039 A 
HETATM   16  C16 UNK     1      28.831  -8.062  32.169  1.00  0.00     0.022 A 
HETATM   17  C18 UNK     1      28.114  -6.861  32.125  1.00  0.00    -0.058 A 
HETATM   18  C23 UNK     1      27.881  -6.222  30.909  1.00  0.00     0.010 A 
BRANCH  17  19
HETATM   19  C24 UNK     1      27.595  -6.260  33.390  1.00  0.00     0.034 C 
HETATM   20  C27 UNK     1      28.343  -6.765  34.620  1.00  0.00     0.010 C 
ENDBRANCH  17  19
ENDBRANCH   7   8
ENDBRANCH   1   7
BRANCH   2  21
HETATM   21  C6  UNK     1      32.997  -8.312  36.660  1.00  0.00     0.375 C 
BRANCH  21  22
HETATM   22  C8  UNK     1      31.964  -8.078  37.740  1.00  0.00     0.253 C 
HETATM   23  O2  UNK     1      31.863  -8.917  38.636  1.00  0.00    -0.271 OA
HETATM   24  N3  UNK     1      31.217  -6.894  37.625  1.00  0.00    -0.312 N 
HETATM   25  C10 UNK     1      31.762  -5.687  36.987  1.00  0.00     0.159 C 
HETATM   26  C11 UNK     1      29.860  -6.759  38.092  1.00  0.00     0.071 A 
HETATM   27  C13 UNK     1      31.294  -4.446  37.717  1.00  0.00     0.196 C 
HETATM   28  O1  UNK     1      29.875  -4.342  37.661  1.00  0.00    -0.347 OA
HETATM   29  C15 UNK     1      29.244  -5.490  38.071  1.00  0.00     0.095 A 
HETATM   30  C22 UNK     1      27.909  -5.322  38.457  1.00  0.00     0.039 A 
HETATM   31  C25 UNK     1      27.166  -6.413  38.892  1.00  0.00     0.009 A 
HETATM   32  C21 UNK     1      27.752  -7.671  38.925  1.00  0.00    -0.060 A 
HETATM   33  C17 UNK     1      29.082  -7.845  38.525  1.00  0.00     0.039 A 
HETATM   34  C26 UNK     1      26.954  -8.849  39.378  1.00  0.00     0.048 C 
ENDBRANCH  21  22
ENDBRANCH   2  21
TORSDOF 5
ENDMDL
MODEL 8
REMARK VINA RESULT:      -9.0      9.424     12.599
REMARK  5 active torsions:
REMARK  status: ('A' for Active; 'I' for Inactive)
REMARK    1  A    between atoms: C5_12  and  N1_5 
REMARK    2  A    between atoms: C6_13  and  N2_6 
REMARK       I    between atoms: C8_15  and  N3_7 
REMARK    3  A    between atoms: C5_12  and  C7_14 
REMARK    4  A    between atoms: C6_13  and  C8_15 
REMARK    5  A    between atoms: C18_25  and  C24_31 
ROOT
HETATM    1  N1  UNK     1      27.061  -8.887  36.683  1.00  0.00     0.096 N 
HETATM    2  N2  UNK     1      29.642  -7.673  36.211  1.00  0.00     0.100 N 
HETATM    3  C1  UNK     1      27.229  -7.428  36.685  1.00  0.00     0.303 C 
HETATM    4  C2  UNK     1      28.303  -9.548  37.104  1.00  0.00     0.303 C 
HETATM    5  C3  UNK     1      28.401  -7.013  35.790  1.00  0.00     0.303 C 
HETATM    6  C4  UNK     1      29.473  -9.132  36.207  1.00  0.00     0.303 C 
ENDROOT
BRANCH   1   7
HETATM    7  C5  UNK     1      25.946  -9.282  37.541  1.00  0.00     0.312 C 
BRANCH   7   8
HETATM    8  C7  UNK     1      24.923 -10.075  36.805  1.00  0.00    -0.011 A 
HETATM    9  C12 UNK     1      25.229 -11.257  36.251  1.00  0.00     0.092 A 
HETATM   10  C19 UNK     1      24.252 -12.077  35.515  1.00  0.00     0.288 A 
HETATM   11  O3  UNK     1      22.966 -11.570  35.412  1.00  0.00    -0.275 OA
HETATM   12  O4  UNK     1      24.569 -13.155  35.024  1.00  0.00    -0.260 OA
HETATM   13  C14 UNK     1      22.614 -10.332  35.985  1.00  0.00     0.090 A 
HETATM   14  C9  UNK     1      23.551  -9.565  36.678  1.00  0.00     0.007 A 
HETATM   15  C20 UNK     1      21.291  -9.920  35.818  1.00  0.00     0.039 A 
HETATM   16  C16 UNK     1      23.122  -8.344  37.217  1.00  0.00     0.022 A 
HETATM   17  C18 UNK     1      21.798  -7.919  37.058  1.00  0.00    -0.058 A 
HETATM   18  C23 UNK     1      20.884  -8.706  36.360  1.00  0.00     0.010 A 
BRANCH  17  19
HETATM   19  C24 UNK     1      21.363  -6.615  37.640  1.00  0.00     0.034 C 
HETATM   20  C27 UNK     1      20.997  -6.733  39.116  1.00  0.00     0.010 C 
ENDBRANCH  17  19
ENDBRANCH   7   8
ENDBRANCH   1   7
BRANCH   2  21
HETATM   21  C6  UNK     1      30.758  -7.277  35.355  1.00  0.00     0.375 C 
BRANCH  21  22
HETATM   22  C8  UNK     1      30.291  -6.978  33.947  1.00  0.00     0.253 C 
HETATM   23  O2  UNK     1      29.910  -5.834  33.694  1.00  0.00    -0.271 OA
HETATM   24  N3  UNK     1      30.356  -8.049  33.041  1.00  0.00    -0.312 N 
HETATM   25  C10 UNK     1      31.352  -9.122  33.172  1.00  0.00     0.159 C 
HETATM   26  C11 UNK     1      29.451  -8.209  31.930  1.00  0.00     0.071 A 
HETATM   27  C13 UNK     1      31.841  -9.558  31.807  1.00  0.00     0.196 C 
HETATM   28  O1  UNK     1      30.765 -10.082  31.037  1.00  0.00    -0.347 OA
HETATM   29  C15 UNK     1      29.687  -9.232  30.988  1.00  0.00     0.095 A 
HETATM   30  C22 UNK     1      28.803  -9.464  29.928  1.00  0.00     0.039 A 
HETATM   31  C25 UNK     1      27.675  -8.668  29.773  1.00  0.00     0.009 A 
HETATM   32  C21 UNK     1      27.424  -7.652  30.686  1.00  0.00    -0.060 A 
HETATM   33  C17 UNK     1      28.298  -7.428  31.756  1.00  0.00     0.039 A 
HETATM   34  C26 UNK     1      26.206  -6.802  30.534  1.00  0.00     0.048 C 
ENDBRANCH  21  22
ENDBRANCH   2  21
TORSDOF 5
ENDMDL
MODEL 9
REMARK VINA RESULT:      -9.0      9.378     13.457
REMARK  5 active torsions:
REMARK  status: ('A' for Active; 'I' for Inactive)
REMARK    1  A    between atoms: C5_12  and  N1_5 
REMARK    2  A    between atoms: C6_13  and  N2_6 
REMARK       I    between atoms: C8_15  and  N3_7 
REMARK    3  A    between atoms: C5_12  and  C7_14 
REMARK    4  A    between atoms: C6_13  and  C8_15 
REMARK    5  A    between atoms: C18_25  and  C24_31 
ROOT
HETATM    1  N1  UNK     1      26.579  -9.321  37.675  1.00  0.00     0.096 N 
HETATM    2  N2  UNK     1      29.428  -9.058  38.086  1.00  0.00     0.100 N 
HETATM    3  C1  UNK     1      27.416  -8.556  36.743  1.00  0.00     0.303 C 
HETATM    4  C2  UNK     1      27.155  -9.291  39.026  1.00  0.00     0.303 C 
HETATM    5  C3  UNK     1      28.853  -9.088  36.737  1.00  0.00     0.303 C 
HETATM    6  C4  UNK     1      28.591  -9.824  39.017  1.00  0.00     0.303 C 
ENDROOT
BRANCH   1   7
HETATM    7  C5  UNK     1      25.210  -8.809  37.683  1.00  0.00     0.312 C 
BRANCH   7   8
HETATM    8  C7  UNK     1      24.278  -9.684  36.920  1.00  0.00    -0.011 A 
HETATM    9  C12 UNK     1      24.703 -10.820  36.351  1.00  0.00     0.092 A 
HETATM   10  C19 UNK     1      23.819 -11.718  35.588  1.00  0.00     0.288 A 
HETATM   11  O3  UNK     1      22.491 -11.336  35.477  1.00  0.00    -0.275 OA
HETATM   12  O4  UNK     1      24.245 -12.750  35.083  1.00  0.00    -0.260 OA
HETATM   13  C14 UNK     1      22.014 -10.148  36.066  1.00  0.00     0.090 A 
HETATM   14  C9  UNK     1      22.864  -9.307  36.785  1.00  0.00     0.007 A 
HETATM   15  C20 UNK     1      20.659  -9.864  35.889  1.00  0.00     0.039 A 
HETATM   16  C16 UNK     1      22.312  -8.144  37.339  1.00  0.00     0.022 A 
HETATM   17  C18 UNK     1      20.955  -7.846  37.170  1.00  0.00    -0.058 A 
HETATM   18  C23 UNK     1      20.130  -8.705  36.446  1.00  0.00     0.010 A 
BRANCH  17  19
HETATM   19  C24 UNK     1      20.388  -6.602  37.768  1.00  0.00     0.034 C 
HETATM   20  C27 UNK     1      20.167  -6.730  39.272  1.00  0.00     0.010 C 
ENDBRANCH  17  19
ENDBRANCH   7   8
ENDBRANCH   1   7
BRANCH   2  21
HETATM   21  C6  UNK     1      30.798  -9.568  38.079  1.00  0.00     0.375 C 
BRANCH  21  22
HETATM   22  C8  UNK     1      31.790  -8.475  37.749  1.00  0.00     0.253 C 
HETATM   23  O2  UNK     1      32.210  -7.777  38.674  1.00  0.00    -0.271 OA
HETATM   24  N3  UNK     1      32.158  -8.369  36.399  1.00  0.00    -0.312 N 
HETATM   25  C10 UNK     1      32.164  -9.531  35.499  1.00  0.00     0.159 C 
HETATM   26  C11 UNK     1      32.535  -7.127  35.769  1.00  0.00     0.071 A 
HETATM   27  C13 UNK     1      33.332  -9.451  34.539  1.00  0.00     0.196 C 
HETATM   28  O1  UNK     1      33.224  -8.292  33.720  1.00  0.00    -0.347 OA
HETATM   29  C15 UNK     1      33.033  -7.144  34.450  1.00  0.00     0.095 A 
HETATM   30  C22 UNK     1      33.355  -5.959  33.778  1.00  0.00     0.039 A 
HETATM   31  C25 UNK     1      33.204  -4.733  34.414  1.00  0.00     0.009 A 
HETATM   32  C21 UNK     1      32.719  -4.692  35.714  1.00  0.00    -0.060 A 
HETATM   33  C17 UNK     1      32.382  -5.875  36.384  1.00  0.00     0.039 A 
HETATM   34  C26 UNK     1      32.541  -3.377  36.399  1.00  0.00     0.048 C 
ENDBRANCH  21  22
ENDBRANCH   2  21
TORSDOF 5
ENDMDL
MODEL 10
REMARK VINA RESULT:      -8.9     26.960     29.053
REMARK  5 active torsions:
REMARK  status: ('A' for Active; 'I' for Inactive)
REMARK    1  A    between atoms: C5_12  and  N1_5 
REMARK    2  A    between atoms: C6_13  and  N2_6 
REMARK       I    between atoms: C8_15  and  N3_7 
REMARK    3  A    between atoms: C5_12  and  C7_14 
REMARK    4  A    between atoms: C6_13  and  C8_15 
REMARK    5  A    between atoms: C18_25  and  C24_31 
ROOT
HETATM    1  N1  UNK     1      11.694   6.322   7.685  1.00  0.00     0.096 N 
HETATM    2  N2  UNK     1       8.939   5.951   8.479  1.00  0.00     0.100 N 
HETATM    3  C1  UNK     1      11.299   6.339   9.099  1.00  0.00     0.303 C 
HETATM    4  C2  UNK     1      10.588   6.785   6.837  1.00  0.00     0.303 C 
HETATM    5  C3  UNK     1      10.045   5.489   9.325  1.00  0.00     0.303 C 
HETATM    6  C4  UNK     1       9.335   5.932   7.065  1.00  0.00     0.303 C 
ENDROOT
BRANCH   1   7
HETATM    7  C5  UNK     1      12.888   7.138   7.470  1.00  0.00     0.312 C 
BRANCH   7   8
HETATM    8  C7  UNK     1      13.992   6.776   8.401  1.00  0.00    -0.011 A 
HETATM    9  C12 UNK     1      14.254   5.496   8.701  1.00  0.00     0.092 A 
HETATM   10  C19 UNK     1      15.335   5.088   9.615  1.00  0.00     0.288 A 
HETATM   11  O3  UNK     1      16.096   6.105  10.171  1.00  0.00    -0.275 OA
HETATM   12  O4  UNK     1      15.545   3.907   9.864  1.00  0.00    -0.260 OA
HETATM   13  C14 UNK     1      15.845   7.460   9.873  1.00  0.00     0.090 A 
HETATM   14  C9  UNK     1      14.816   7.830   9.007  1.00  0.00     0.007 A 
HETATM   15  C20 UNK     1      16.674   8.398  10.491  1.00  0.00     0.039 A 
HETATM   16  C16 UNK     1      14.632   9.198   8.764  1.00  0.00     0.022 A 
HETATM   17  C18 UNK     1      15.456  10.150   9.375  1.00  0.00    -0.058 A 
HETATM   18  C23 UNK     1      16.475   9.751  10.237  1.00  0.00     0.010 A 
BRANCH  17  19
HETATM   19  C24 UNK     1      15.241  11.602   9.102  1.00  0.00     0.034 C 
HETATM   20  C27 UNK     1      15.725  12.009   7.714  1.00  0.00     0.010 C 
ENDBRANCH  17  19
ENDBRANCH   7   8
ENDBRANCH   1   7
BRANCH   2  21
HETATM   21  C6  UNK     1       7.745   5.138   8.694  1.00  0.00     0.375 C 
BRANCH  21  22
HETATM   22  C8  UNK     1       6.775   5.822   9.632  1.00  0.00     0.253 C 
HETATM   23  O2  UNK     1       6.451   6.985   9.381  1.00  0.00    -0.271 OA
HETATM   24  N3  UNK     1       6.314   5.048  10.708  1.00  0.00    -0.312 N 
HETATM   25  C10 UNK     1       6.197   3.585  10.622  1.00  0.00     0.159 C 
HETATM   26  C11 UNK     1       5.942   5.600  11.987  1.00  0.00     0.071 A 
HETATM   27  C13 UNK     1       4.966   3.109  11.365  1.00  0.00     0.196 C 
HETATM   28  O1  UNK     1       5.060   3.437  12.746  1.00  0.00    -0.347 OA
HETATM   29  C15 UNK     1       5.348   4.764  12.955  1.00  0.00     0.095 A 
HETATM   30  C22 UNK     1       5.026   5.242  14.231  1.00  0.00     0.039 A 
HETATM   31  C25 UNK     1       5.271   6.569  14.562  1.00  0.00     0.009 A 
HETATM   32  C21 UNK     1       5.851   7.412  13.623  1.00  0.00    -0.060 A 
HETATM   33  C17 UNK     1       6.189   6.933  12.352  1.00  0.00     0.039 A 
HETATM   34  C26 UNK     1       6.130   8.835  13.977  1.00  0.00     0.048 C 
ENDBRANCH  21  22
ENDBRANCH   2  21
TORSDOF 5
ENDMDL
