MODEL 1
REMARK VINA RESULT:      -8.4      0.000      0.000
REMARK  3 active torsions:
REMARK  status: ('A' for Active; 'I' for Inactive)
REMARK    1  A    between atoms: C1_2  and  C3_4 
REMARK    2  A    between atoms: C2_3  and  C4_5 
REMARK    3  A    between atoms: C3_4  and  C5_6 
ROOT
HETATM    1  O1  UNK     1      17.958   2.420  28.265  1.00  0.00    -0.288 OA
HETATM    2  C3  UNK     1      18.373   2.156  29.388  1.00  0.00     0.182 C 
ENDROOT
BRANCH   2   3
HETATM    3  C1  UNK     1      19.105   0.888  29.621  1.00  0.00     0.014 A 
HETATM    4  C6  UNK     1      19.446   0.102  28.538  1.00  0.00     0.015 A 
HETATM    5  C10 UNK     1      20.135  -1.090  28.757  1.00  0.00     0.001 A 
HETATM    6  C14 UNK     1      20.469  -1.474  30.055  1.00  0.00     0.000 A 
HETATM    7  C11 UNK     1      20.115  -0.665  31.134  1.00  0.00     0.001 A 
HETATM    8  C7  UNK     1      19.426   0.529  30.915  1.00  0.00     0.015 A 
ENDBRANCH   2   3
BRANCH   2   9
HETATM    9  C5  UNK     1      18.204   3.078  30.545  1.00  0.00     0.056 C 
HETATM   10  C4  UNK     1      18.973   4.185  30.654  1.00  0.00     0.015 C 
BRANCH  10  11
HETATM   11  C2  UNK     1      18.908   5.146  31.743  1.00  0.00    -0.036 A 
HETATM   12  C8  UNK     1      19.966   6.030  31.959  1.00  0.00     0.011 A 
HETATM   13  C12 UNK     1      19.904   6.951  33.004  1.00  0.00     0.001 A 
HETATM   14  C15 UNK     1      18.784   6.989  33.835  1.00  0.00     0.000 A 
HETATM   15  C13 UNK     1      17.726   6.105  33.620  1.00  0.00     0.001 A 
HETATM   16  C9  UNK     1      17.788   5.183  32.575  1.00  0.00     0.011 A 
ENDBRANCH  10  11
ENDBRANCH   2   9
TORSDOF 3
ENDMDL
MODEL 2
REMARK VINA RESULT:      -7.2      1.160      6.447
REMARK  3 active torsions:
REMARK  status: ('A' for Active; 'I' for Inactive)
REMARK    1  A    between atoms: C1_2  and  C3_4 
REMARK    2  A    between atoms: C2_3  and  C4_5 
REMARK    3  A    between atoms: C3_4  and  C5_6 
ROOT
HETATM    1  O1  UNK     1      17.953   2.784  28.193  1.00  0.00    -0.288 OA
HETATM    2  C3  UNK     1      18.353   2.609  29.339  1.00  0.00     0.182 C 
ENDROOT
BRANCH   2   3
HETATM    3  C1  UNK     1      18.594   3.778  30.219  1.00  0.00     0.014 A 
HETATM    4  C6  UNK     1      18.197   3.714  31.540  1.00  0.00     0.015 A 
HETATM    5  C10 UNK     1      18.424   4.813  32.368  1.00  0.00     0.001 A 
HETATM    6  C14 UNK     1      19.043   5.954  31.859  1.00  0.00     0.000 A 
HETATM    7  C11 UNK     1      19.435   5.996  30.521  1.00  0.00     0.001 A 
HETATM    8  C7  UNK     1      19.209   4.897  29.692  1.00  0.00     0.015 A 
ENDBRANCH   2   3
BRANCH   2   9
HETATM    9  C5  UNK     1      18.583   1.254  29.912  1.00  0.00     0.056 C 
HETATM   10  C4  UNK     1      19.825   0.718  29.921  1.00  0.00     0.015 C 
BRANCH  10  11
HETATM   11  C2  UNK     1      20.165  -0.599  30.436  1.00  0.00    -0.036 A 
HETATM   12  C8  UNK     1      20.578  -1.605  29.564  1.00  0.00     0.011 A 
HETATM   13  C12 UNK     1      20.903  -2.868  30.058  1.00  0.00     0.001 A 
HETATM   14  C15 UNK     1      20.816  -3.125  31.427  1.00  0.00     0.000 A 
HETATM   15  C13 UNK     1      20.402  -2.118  32.300  1.00  0.00     0.001 A 
HETATM   16  C9  UNK     1      20.076  -0.856  31.805  1.00  0.00     0.011 A 
ENDBRANCH  10  11
ENDBRANCH   2   9
TORSDOF 3
ENDMDL
MODEL 3
REMARK VINA RESULT:      -7.2     21.770     23.755
REMARK  3 active torsions:
REMARK  status: ('A' for Active; 'I' for Inactive)
REMARK    1  A    between atoms: C1_2  and  C3_4 
REMARK    2  A    between atoms: C2_3  and  C4_5 
REMARK    3  A    between atoms: C3_4  and  C5_6 
ROOT
HETATM    1  O1  UNK     1      15.312   4.193   9.711  1.00  0.00    -0.288 OA
HETATM    2  C3  UNK     1      14.696   5.252   9.672  1.00  0.00     0.182 C 
ENDROOT
BRANCH   2   3
HETATM    3  C1  UNK     1      15.387   6.518  10.017  1.00  0.00     0.014 A 
HETATM    4  C6  UNK     1      16.751   6.611   9.819  1.00  0.00     0.015 A 
HETATM    5  C10 UNK     1      17.400   7.801  10.143  1.00  0.00     0.001 A 
HETATM    6  C14 UNK     1      16.675   8.874  10.659  1.00  0.00     0.000 A 
HETATM    7  C11 UNK     1      15.298   8.758  10.851  1.00  0.00     0.001 A 
HETATM    8  C7  UNK     1      14.647   7.567  10.526  1.00  0.00     0.015 A 
ENDBRANCH   2   3
BRANCH   2   9
HETATM    9  C5  UNK     1      13.269   5.336   9.255  1.00  0.00     0.056 C 
HETATM   10  C4  UNK     1      12.943   5.776   8.018  1.00  0.00     0.015 C 
BRANCH  10  11
HETATM   11  C2  UNK     1      11.589   5.915   7.508  1.00  0.00    -0.036 A 
HETATM   12  C8  UNK     1      10.506   5.893   8.387  1.00  0.00     0.011 A 
HETATM   13  C12 UNK     1       9.206   6.026   7.898  1.00  0.00     0.001 A 
HETATM   14  C15 UNK     1       8.989   6.181   6.529  1.00  0.00     0.000 A 
HETATM   15  C13 UNK     1      10.072   6.203   5.649  1.00  0.00     0.001 A 
HETATM   16  C9  UNK     1      11.371   6.070   6.138  1.00  0.00     0.011 A 
ENDBRANCH  10  11
ENDBRANCH   2   9
TORSDOF 3
ENDMDL
MODEL 4
REMARK VINA RESULT:      -7.2     21.756     23.723
REMARK  3 active torsions:
REMARK  status: ('A' for Active; 'I' for Inactive)
REMARK    1  A    between atoms: C1_2  and  C3_4 
REMARK    2  A    between atoms: C2_3  and  C4_5 
REMARK    3  A    between atoms: C3_4  and  C5_6 
ROOT
HETATM    1  O1  UNK     1      15.267   4.216   9.743  1.00  0.00    -0.288 OA
HETATM    2  C3  UNK     1      14.678   5.290   9.702  1.00  0.00     0.182 C 
ENDROOT
BRANCH   2   3
HETATM    3  C1  UNK     1      15.406   6.540  10.026  1.00  0.00     0.014 A 
HETATM    4  C6  UNK     1      16.773   6.587   9.837  1.00  0.00     0.015 A 
HETATM    5  C10 UNK     1      17.457   7.763  10.141  1.00  0.00     0.001 A 
HETATM    6  C14 UNK     1      16.762   8.869  10.628  1.00  0.00     0.000 A 
HETATM    7  C11 UNK     1      15.381   8.800  10.810  1.00  0.00     0.001 A 
HETATM    8  C7  UNK     1      14.695   7.623  10.505  1.00  0.00     0.015 A 
ENDBRANCH   2   3
BRANCH   2   9
HETATM    9  C5  UNK     1      13.247   5.407   9.304  1.00  0.00     0.056 C 
HETATM   10  C4  UNK     1      12.916   5.718   8.030  1.00  0.00     0.015 C 
BRANCH  10  11
HETATM   11  C2  UNK     1      11.559   5.875   7.532  1.00  0.00    -0.036 A 
HETATM   12  C8  UNK     1      11.332   6.046   6.166  1.00  0.00     0.011 A 
HETATM   13  C12 UNK     1      10.031   6.197   5.688  1.00  0.00     0.001 A 
HETATM   14  C15 UNK     1       8.955   6.177   6.576  1.00  0.00     0.000 A 
HETATM   15  C13 UNK     1       9.182   6.006   7.943  1.00  0.00     0.001 A 
HETATM   16  C9  UNK     1      10.484   5.855   8.420  1.00  0.00     0.011 A 
ENDBRANCH  10  11
ENDBRANCH   2   9
TORSDOF 3
ENDMDL
MODEL 5
REMARK VINA RESULT:      -7.1      1.774      2.788
REMARK  3 active torsions:
REMARK  status: ('A' for Active; 'I' for Inactive)
REMARK    1  A    between atoms: C1_2  and  C3_4 
REMARK    2  A    between atoms: C2_3  and  C4_5 
REMARK    3  A    between atoms: C3_4  and  C5_6 
ROOT
HETATM    1  O1  UNK     1      17.791   2.047  33.216  1.00  0.00    -0.288 OA
HETATM    2  C3  UNK     1      18.169   2.680  32.237  1.00  0.00     0.182 C 
ENDROOT
BRANCH   2   3
HETATM    3  C1  UNK     1      18.495   1.965  30.980  1.00  0.00     0.014 A 
HETATM    4  C6  UNK     1      17.914   2.386  29.800  1.00  0.00     0.015 A 
HETATM    5  C10 UNK     1      18.221   1.714  28.618  1.00  0.00     0.001 A 
HETATM    6  C14 UNK     1      19.102   0.633  28.638  1.00  0.00     0.000 A 
HETATM    7  C11 UNK     1      19.678   0.225  29.841  1.00  0.00     0.001 A 
HETATM    8  C7  UNK     1      19.372   0.898  31.024  1.00  0.00     0.015 A 
ENDBRANCH   2   3
BRANCH   2   9
HETATM    9  C5  UNK     1      18.289   4.165  32.238  1.00  0.00     0.056 C 
HETATM   10  C4  UNK     1      18.212   4.855  33.398  1.00  0.00     0.015 C 
BRANCH  10  11
HETATM   11  C2  UNK     1      18.298   6.301  33.520  1.00  0.00    -0.036 A 
HETATM   12  C8  UNK     1      17.310   7.110  32.957  1.00  0.00     0.011 A 
HETATM   13  C12 UNK     1      17.393   8.497  33.072  1.00  0.00     0.001 A 
HETATM   14  C15 UNK     1      18.464   9.077  33.752  1.00  0.00     0.000 A 
HETATM   15  C13 UNK     1      19.452   8.269  34.316  1.00  0.00     0.001 A 
HETATM   16  C9  UNK     1      19.369   6.882  34.200  1.00  0.00     0.011 A 
ENDBRANCH  10  11
ENDBRANCH   2   9
TORSDOF 3
ENDMDL
MODEL 6
REMARK VINA RESULT:      -7.1      0.941      6.614
REMARK  3 active torsions:
REMARK  status: ('A' for Active; 'I' for Inactive)
REMARK    1  A    between atoms: C1_2  and  C3_4 
REMARK    2  A    between atoms: C2_3  and  C4_5 
REMARK    3  A    between atoms: C3_4  and  C5_6 
ROOT
HETATM    1  O1  UNK     1      18.580   4.615  29.374  1.00  0.00    -0.288 OA
HETATM    2  C3  UNK     1      18.743   4.252  30.534  1.00  0.00     0.182 C 
ENDROOT
BRANCH   2   3
HETATM    3  C1  UNK     1      18.665   5.244  31.633  1.00  0.00     0.014 A 
HETATM    4  C6  UNK     1      19.788   5.983  31.949  1.00  0.00     0.015 A 
HETATM    5  C10 UNK     1      19.714   6.916  32.982  1.00  0.00     0.001 A 
HETATM    6  C14 UNK     1      18.520   7.092  33.679  1.00  0.00     0.000 A 
HETATM    7  C11 UNK     1      17.398   6.335  33.344  1.00  0.00     0.001 A 
HETATM    8  C7  UNK     1      17.471   5.401  32.309  1.00  0.00     0.015 A 
ENDBRANCH   2   3
BRANCH   2   9
HETATM    9  C5  UNK     1      18.989   2.829  30.903  1.00  0.00     0.056 C 
HETATM   10  C4  UNK     1      19.383   1.939  29.964  1.00  0.00     0.015 C 
BRANCH  10  11
HETATM   11  C2  UNK     1      19.636   0.527  30.203  1.00  0.00    -0.036 A 
HETATM   12  C8  UNK     1      20.177  -0.267  29.191  1.00  0.00     0.011 A 
HETATM   13  C12 UNK     1      20.418  -1.621  29.420  1.00  0.00     0.001 A 
HETATM   14  C15 UNK     1      20.120  -2.182  30.662  1.00  0.00     0.000 A 
HETATM   15  C13 UNK     1      19.579  -1.389  31.675  1.00  0.00     0.001 A 
HETATM   16  C9  UNK     1      19.337  -0.035  31.445  1.00  0.00     0.011 A 
ENDBRANCH  10  11
ENDBRANCH   2   9
TORSDOF 3
ENDMDL
MODEL 7
REMARK VINA RESULT:      -7.0     21.997     23.673
REMARK  3 active torsions:
REMARK  status: ('A' for Active; 'I' for Inactive)
REMARK    1  A    between atoms: C1_2  and  C3_4 
REMARK    2  A    between atoms: C2_3  and  C4_5 
REMARK    3  A    between atoms: C3_4  and  C5_6 
ROOT
HETATM    1  O1  UNK     1      11.064   4.763  10.263  1.00  0.00    -0.288 OA
HETATM    2  C3  UNK     1      11.612   5.380   9.355  1.00  0.00     0.182 C 
ENDROOT
BRANCH   2   3
HETATM    3  C1  UNK     1      10.838   5.749   8.146  1.00  0.00     0.014 A 
HETATM    4  C6  UNK     1      11.498   5.862   6.938  1.00  0.00     0.015 A 
HETATM    5  C10 UNK     1      10.770   6.209   5.801  1.00  0.00     0.001 A 
HETATM    6  C14 UNK     1       9.397   6.437   5.893  1.00  0.00     0.000 A 
HETATM    7  C11 UNK     1       8.752   6.316   7.123  1.00  0.00     0.001 A 
HETATM    8  C7  UNK     1       9.479   5.968   8.262  1.00  0.00     0.015 A 
ENDBRANCH   2   3
BRANCH   2   9
HETATM    9  C5  UNK     1      13.036   5.812   9.424  1.00  0.00     0.056 C 
HETATM   10  C4  UNK     1      13.348   7.079   9.780  1.00  0.00     0.015 C 
BRANCH  10  11
HETATM   11  C2  UNK     1      14.696   7.617   9.865  1.00  0.00    -0.036 A 
HETATM   12  C8  UNK     1      15.725   6.843  10.403  1.00  0.00     0.011 A 
HETATM   13  C12 UNK     1      17.017   7.359  10.486  1.00  0.00     0.001 A 
HETATM   14  C15 UNK     1      17.283   8.650  10.029  1.00  0.00     0.000 A 
HETATM   15  C13 UNK     1      16.255   9.425   9.491  1.00  0.00     0.001 A 
HETATM   16  C9  UNK     1      14.962   8.909   9.409  1.00  0.00     0.011 A 
ENDBRANCH  10  11
ENDBRANCH   2   9
TORSDOF 3
ENDMDL
MODEL 8
REMARK VINA RESULT:      -7.0     21.970     23.662
REMARK  3 active torsions:
REMARK  status: ('A' for Active; 'I' for Inactive)
REMARK    1  A    between atoms: C1_2  and  C3_4 
REMARK    2  A    between atoms: C2_3  and  C4_5 
REMARK    3  A    between atoms: C3_4  and  C5_6 
ROOT
HETATM    1  O1  UNK     1      11.034   4.719  10.246  1.00  0.00    -0.288 OA
HETATM    2  C3  UNK     1      11.595   5.348   9.355  1.00  0.00     0.182 C 
ENDROOT
BRANCH   2   3
HETATM    3  C1  UNK     1      10.838   5.734   8.139  1.00  0.00     0.014 A 
HETATM    4  C6  UNK     1       9.489   6.008   8.249  1.00  0.00     0.015 A 
HETATM    5  C10 UNK     1       8.778   6.371   7.107  1.00  0.00     0.001 A 
HETATM    6  C14 UNK     1       9.429   6.454   5.876  1.00  0.00     0.000 A 
HETATM    7  C11 UNK     1      10.792   6.174   5.789  1.00  0.00     0.001 A 
HETATM    8  C7  UNK     1      11.505   5.810   6.932  1.00  0.00     0.015 A 
ENDBRANCH   2   3
BRANCH   2   9
HETATM    9  C5  UNK     1      13.017   5.779   9.449  1.00  0.00     0.056 C 
HETATM   10  C4  UNK     1      13.325   7.047   9.804  1.00  0.00     0.015 C 
BRANCH  10  11
HETATM   11  C2  UNK     1      14.671   7.584   9.912  1.00  0.00    -0.036 A 
HETATM   12  C8  UNK     1      14.920   8.918   9.590  1.00  0.00     0.011 A 
HETATM   13  C12 UNK     1      16.212   9.432   9.693  1.00  0.00     0.001 A 
HETATM   14  C15 UNK     1      17.257   8.612  10.120  1.00  0.00     0.000 A 
HETATM   15  C13 UNK     1      17.009   7.277  10.443  1.00  0.00     0.001 A 
HETATM   16  C9  UNK     1      15.717   6.763  10.339  1.00  0.00     0.011 A 
ENDBRANCH  10  11
ENDBRANCH   2   9
TORSDOF 3
ENDMDL
MODEL 9
REMARK VINA RESULT:      -6.9      4.504      5.492
REMARK  3 active torsions:
REMARK  status: ('A' for Active; 'I' for Inactive)
REMARK    1  A    between atoms: C1_2  and  C3_4 
REMARK    2  A    between atoms: C2_3  and  C4_5 
REMARK    3  A    between atoms: C3_4  and  C5_6 
ROOT
HETATM    1  O1  UNK     1      20.445  -2.590  33.339  1.00  0.00    -0.288 OA
HETATM    2  C3  UNK     1      19.705  -1.737  32.860  1.00  0.00     0.182 C 
ENDROOT
BRANCH   2   3
HETATM    3  C1  UNK     1      19.905  -1.292  31.460  1.00  0.00     0.014 A 
HETATM    4  C6  UNK     1      20.359  -2.202  30.527  1.00  0.00     0.015 A 
HETATM    5  C10 UNK     1      20.547  -1.783  29.210  1.00  0.00     0.001 A 
HETATM    6  C14 UNK     1      20.277  -0.463  28.853  1.00  0.00     0.000 A 
HETATM    7  C11 UNK     1      19.819   0.439  29.812  1.00  0.00     0.001 A 
HETATM    8  C7  UNK     1      19.630   0.021  31.130  1.00  0.00     0.015 A 
ENDBRANCH   2   3
BRANCH   2   9
HETATM    9  C5  UNK     1      18.572  -1.139  33.620  1.00  0.00     0.056 C 
HETATM   10  C4  UNK     1      18.791  -0.534  34.810  1.00  0.00     0.015 C 
BRANCH  10  11
HETATM   11  C2  UNK     1      17.765   0.068  35.645  1.00  0.00    -0.036 A 
HETATM   12  C8  UNK     1      16.420  -0.059  35.300  1.00  0.00     0.011 A 
HETATM   13  C12 UNK     1      15.435   0.520  36.100  1.00  0.00     0.001 A 
HETATM   14  C15 UNK     1      15.796   1.225  37.249  1.00  0.00     0.000 A 
HETATM   15  C13 UNK     1      17.142   1.352  37.595  1.00  0.00     0.001 A 
HETATM   16  C9  UNK     1      18.126   0.774  36.794  1.00  0.00     0.011 A 
ENDBRANCH  10  11
ENDBRANCH   2   9
TORSDOF 3
ENDMDL
MODEL 10
REMARK VINA RESULT:      -6.9      3.909      6.156
REMARK  3 active torsions:
REMARK  status: ('A' for Active; 'I' for Inactive)
REMARK    1  A    between atoms: C1_2  and  C3_4 
REMARK    2  A    between atoms: C2_3  and  C4_5 
REMARK    3  A    between atoms: C3_4  and  C5_6 
ROOT
HETATM    1  O1  UNK     1      18.306   1.685  31.160  1.00  0.00    -0.288 OA
HETATM    2  C3  UNK     1      18.279   2.588  31.990  1.00  0.00     0.182 C 
ENDROOT
BRANCH   2   3
HETATM    3  C1  UNK     1      18.389   3.998  31.546  1.00  0.00     0.014 A 
HETATM    4  C6  UNK     1      17.841   4.992  32.332  1.00  0.00     0.015 A 
HETATM    5  C10 UNK     1      17.944   6.318  31.915  1.00  0.00     0.001 A 
HETATM    6  C14 UNK     1      18.594   6.625  30.720  1.00  0.00     0.000 A 
HETATM    7  C11 UNK     1      19.141   5.605  29.942  1.00  0.00     0.001 A 
HETATM    8  C7  UNK     1      19.038   4.277  30.359  1.00  0.00     0.015 A 
ENDBRANCH   2   3
BRANCH   2   9
HETATM    9  C5  UNK     1      18.107   2.333  33.447  1.00  0.00     0.056 C 
HETATM   10  C4  UNK     1      18.228   1.080  33.941  1.00  0.00     0.015 C 
BRANCH  10  11
HETATM   11  C2  UNK     1      18.065   0.711  35.338  1.00  0.00    -0.036 A 
HETATM   12  C8  UNK     1      18.179  -0.625  35.725  1.00  0.00     0.011 A 
HETATM   13  C12 UNK     1      18.021  -0.980  37.064  1.00  0.00     0.001 A 
HETATM   14  C15 UNK     1      17.750   0.002  38.018  1.00  0.00     0.000 A 
HETATM   15  C13 UNK     1      17.637   1.338  37.632  1.00  0.00     0.001 A 
HETATM   16  C9  UNK     1      17.794   1.692  36.292  1.00  0.00     0.011 A 
ENDBRANCH  10  11
ENDBRANCH   2   9
TORSDOF 3
ENDMDL
