MODEL 1
REMARK VINA RESULT:      -8.1      0.000      0.000
REMARK  3 active torsions:
REMARK  status: ('A' for Active; 'I' for Inactive)
REMARK    1  A    between atoms: C6_10  and  O2_2 
REMARK    2  A    between atoms: C16_20  and  O4_4 
REMARK    3  A    between atoms: C3_7  and  C4_8 
ROOT
HETATM    1  O1  UNK     1      16.863   7.490  32.269  1.00  0.00    -0.306 OA
HETATM    2  O3  UNK     1      19.645   9.419  34.537  1.00  0.00    -0.284 OA
HETATM    3  C1  UNK     1      17.449   9.377  33.680  1.00  0.00     0.051 A 
HETATM    4  C2  UNK     1      16.545   8.670  32.890  1.00  0.00     0.091 A 
HETATM    5  C3  UNK     1      18.137   6.973  32.444  1.00  0.00     0.123 A 
HETATM    6  C5  UNK     1      18.806   8.841  33.859  1.00  0.00     0.220 A 
HETATM    7  C6  UNK     1      19.104   7.560  33.172  1.00  0.00     0.152 A 
HETATM    8  C7  UNK     1      15.251   9.159  32.701  1.00  0.00     0.045 A 
HETATM    9  C8  UNK     1      14.867  10.355  33.307  1.00  0.00    -0.059 A 
HETATM   10  C9  UNK     1      17.067  10.576  34.287  1.00  0.00     0.019 A 
HETATM   11  C10 UNK     1      15.774  11.062  34.098  1.00  0.00     0.008 A 
HETATM   12  C13 UNK     1      13.486  10.881  33.107  1.00  0.00     0.048 C 
ENDROOT
BRANCH   5  13
HETATM   13  C4  UNK     1      18.347   5.704  31.724  1.00  0.00     0.001 A 
HETATM   14  C11 UNK     1      17.995   4.495  32.323  1.00  0.00     0.017 A 
HETATM   15  C14 UNK     1      18.194   3.295  31.640  1.00  0.00     0.037 A 
HETATM   16  C16 UNK     1      18.745   3.304  30.358  1.00  0.00     0.068 A 
HETATM   17  C15 UNK     1      19.097   4.514  29.759  1.00  0.00     0.037 A 
HETATM   18  C12 UNK     1      18.897   5.714  30.441  1.00  0.00     0.017 A 
BRANCH  16  19
HETATM   19  O4  UNK     1      18.937   2.133  29.692  1.00  0.00    -0.356 OA
HETATM   20  C17 UNK     1      18.000   1.806  28.669  1.00  0.00     0.210 C 
ENDBRANCH  16  19
ENDBRANCH   5  13
BRANCH   7  21
HETATM   21  O2  UNK     1      20.373   7.037  33.299  1.00  0.00    -0.355 OA
HETATM   22  H11 UNK     1      20.377   6.109  33.016  1.00  0.00     0.218 HD
ENDBRANCH   7  21
TORSDOF 3
ENDMDL
MODEL 2
REMARK VINA RESULT:      -7.8      2.574      7.622
REMARK  3 active torsions:
REMARK  status: ('A' for Active; 'I' for Inactive)
REMARK    1  A    between atoms: C6_10  and  O2_2 
REMARK    2  A    between atoms: C16_20  and  O4_4 
REMARK    3  A    between atoms: C3_7  and  C4_8 
ROOT
HETATM    1  O1  UNK     1      18.082   3.280  33.254  1.00  0.00    -0.306 OA
HETATM    2  O3  UNK     1      19.240   1.791  29.643  1.00  0.00    -0.284 OA
HETATM    3  C1  UNK     1      18.678   1.361  31.892  1.00  0.00     0.051 A 
HETATM    4  C2  UNK     1      18.284   1.933  33.099  1.00  0.00     0.091 A 
HETATM    5  C3  UNK     1      18.268   4.107  32.158  1.00  0.00     0.123 A 
HETATM    6  C5  UNK     1      18.890   2.235  30.727  1.00  0.00     0.220 A 
HETATM    7  C6  UNK     1      18.655   3.684  30.941  1.00  0.00     0.152 A 
HETATM    8  C7  UNK     1      18.080   1.127  34.220  1.00  0.00     0.045 A 
HETATM    9  C8  UNK     1      18.270  -0.253  34.125  1.00  0.00    -0.059 A 
HETATM   10  C9  UNK     1      18.870  -0.019  31.794  1.00  0.00     0.019 A 
HETATM   11  C10 UNK     1      18.664  -0.823  32.915  1.00  0.00     0.008 A 
HETATM   12  C13 UNK     1      18.053  -1.118  35.321  1.00  0.00     0.048 C 
ENDROOT
BRANCH   5  13
HETATM   13  C4  UNK     1      18.019   5.528  32.460  1.00  0.00     0.001 A 
HETATM   14  C11 UNK     1      19.070   6.350  32.866  1.00  0.00     0.017 A 
HETATM   15  C14 UNK     1      18.833   7.695  33.150  1.00  0.00     0.037 A 
HETATM   16  C16 UNK     1      17.545   8.218  33.029  1.00  0.00     0.068 A 
HETATM   17  C15 UNK     1      16.494   7.395  32.622  1.00  0.00     0.037 A 
HETATM   18  C12 UNK     1      16.731   6.051  32.337  1.00  0.00     0.017 A 
BRANCH  16  19
HETATM   19  O4  UNK     1      17.316   9.531  33.305  1.00  0.00    -0.356 OA
HETATM   20  C17 UNK     1      15.961   9.921  33.524  1.00  0.00     0.210 C 
ENDBRANCH  16  19
ENDBRANCH   5  13
BRANCH   7  21
HETATM   21  O2  UNK     1      18.864   4.537  29.878  1.00  0.00    -0.355 OA
HETATM   22  H11 UNK     1      19.197   5.390  30.202  1.00  0.00     0.218 HD
ENDBRANCH   7  21
TORSDOF 3
ENDMDL
MODEL 3
REMARK VINA RESULT:      -7.8      3.126      7.570
REMARK  3 active torsions:
REMARK  status: ('A' for Active; 'I' for Inactive)
REMARK    1  A    between atoms: C6_10  and  O2_2 
REMARK    2  A    between atoms: C16_20  and  O4_4 
REMARK    3  A    between atoms: C3_7  and  C4_8 
ROOT
HETATM    1  O1  UNK     1      18.133   3.556  34.594  1.00  0.00    -0.306 OA
HETATM    2  O3  UNK     1      18.543   1.204  31.292  1.00  0.00    -0.284 OA
HETATM    3  C1  UNK     1      18.289   1.332  33.632  1.00  0.00     0.051 A 
HETATM    4  C2  UNK     1      18.155   2.191  34.721  1.00  0.00     0.091 A 
HETATM    5  C3  UNK     1      18.240   4.104  33.326  1.00  0.00     0.123 A 
HETATM    6  C5  UNK     1      18.417   1.908  32.285  1.00  0.00     0.220 A 
HETATM    7  C6  UNK     1      18.385   3.388  32.196  1.00  0.00     0.152 A 
HETATM    8  C7  UNK     1      18.035   1.670  36.010  1.00  0.00     0.045 A 
HETATM    9  C8  UNK     1      18.050   0.289  36.204  1.00  0.00    -0.059 A 
HETATM   10  C9  UNK     1      18.305  -0.051  33.824  1.00  0.00     0.019 A 
HETATM   11  C10 UNK     1      18.185  -0.570  35.113  1.00  0.00     0.008 A 
HETATM   12  C13 UNK     1      17.924  -0.271  37.581  1.00  0.00     0.048 C 
ENDROOT
BRANCH   5  13
HETATM   13  C4  UNK     1      18.205   5.577  33.331  1.00  0.00     0.001 A 
HETATM   14  C11 UNK     1      17.038   6.248  32.965  1.00  0.00     0.017 A 
HETATM   15  C14 UNK     1      17.005   7.643  32.971  1.00  0.00     0.037 A 
HETATM   16  C16 UNK     1      18.138   8.367  33.343  1.00  0.00     0.068 A 
HETATM   17  C15 UNK     1      19.306   7.695  33.709  1.00  0.00     0.037 A 
HETATM   18  C12 UNK     1      19.339   6.301  33.704  1.00  0.00     0.017 A 
BRANCH  16  19
HETATM   19  O4  UNK     1      18.105   9.727  33.349  1.00  0.00    -0.356 OA
HETATM   20  C17 UNK     1      17.038  10.347  34.065  1.00  0.00     0.210 C 
ENDBRANCH  16  19
ENDBRANCH   5  13
BRANCH   7  21
HETATM   21  O2  UNK     1      18.523   3.965  30.951  1.00  0.00    -0.355 OA
HETATM   22  H11 UNK     1      18.477   3.280  30.265  1.00  0.00     0.218 HD
ENDBRANCH   7  21
TORSDOF 3
ENDMDL
MODEL 4
REMARK VINA RESULT:      -7.6     15.023     18.464
REMARK  3 active torsions:
REMARK  status: ('A' for Active; 'I' for Inactive)
REMARK    1  A    between atoms: C6_10  and  O2_2 
REMARK    2  A    between atoms: C16_20  and  O4_4 
REMARK    3  A    between atoms: C3_7  and  C4_8 
ROOT
HETATM    1  O1  UNK     1      23.290  -8.587  37.132  1.00  0.00    -0.306 OA
HETATM    2  O3  UNK     1      24.429 -12.052  35.316  1.00  0.00    -0.284 OA
HETATM    3  C1  UNK     1      25.008 -10.253  36.725  1.00  0.00     0.051 A 
HETATM    4  C2  UNK     1      24.559  -9.074  37.315  1.00  0.00     0.091 A 
HETATM    5  C3  UNK     1      22.416  -9.304  36.333  1.00  0.00     0.123 A 
HETATM    6  C5  UNK     1      24.089 -11.013  35.865  1.00  0.00     0.220 A 
HETATM    7  C6  UNK     1      22.727 -10.450  35.699  1.00  0.00     0.152 A 
HETATM    8  C7  UNK     1      25.412  -8.332  38.133  1.00  0.00     0.045 A 
HETATM    9  C8  UNK     1      26.716  -8.776  38.358  1.00  0.00    -0.059 A 
HETATM   10  C9  UNK     1      26.313 -10.699  36.948  1.00  0.00     0.019 A 
HETATM   11  C10 UNK     1      27.165  -9.957  37.766  1.00  0.00     0.008 A 
HETATM   12  C13 UNK     1      27.631  -7.986  39.231  1.00  0.00     0.048 C 
ENDROOT
BRANCH   5  13
HETATM   13  C4  UNK     1      21.089  -8.672  36.219  1.00  0.00     0.001 A 
HETATM   14  C11 UNK     1      20.825  -7.787  35.174  1.00  0.00     0.017 A 
HETATM   15  C14 UNK     1      19.568  -7.190  35.067  1.00  0.00     0.037 A 
HETATM   16  C16 UNK     1      18.576  -7.479  36.004  1.00  0.00     0.068 A 
HETATM   17  C15 UNK     1      18.841  -8.364  37.050  1.00  0.00     0.037 A 
HETATM   18  C12 UNK     1      20.096  -8.962  37.157  1.00  0.00     0.017 A 
BRANCH  16  19
HETATM   19  O4  UNK     1      17.351  -6.897  35.898  1.00  0.00    -0.356 OA
HETATM   20  C17 UNK     1      16.452  -7.446  34.936  1.00  0.00     0.210 C 
ENDBRANCH  16  19
ENDBRANCH   5  13
BRANCH   7  21
HETATM   21  O2  UNK     1      21.843 -11.123  34.883  1.00  0.00    -0.355 OA
HETATM   22  H11 UNK     1      22.048 -10.937  33.952  1.00  0.00     0.218 HD
ENDBRANCH   7  21
TORSDOF 3
ENDMDL
MODEL 5
REMARK VINA RESULT:      -7.5      8.991     12.174
REMARK  3 active torsions:
REMARK  status: ('A' for Active; 'I' for Inactive)
REMARK    1  A    between atoms: C6_10  and  O2_2 
REMARK    2  A    between atoms: C16_20  and  O4_4 
REMARK    3  A    between atoms: C3_7  and  C4_8 
ROOT
HETATM    1  O1  UNK     1      20.280  -3.396  34.828  1.00  0.00    -0.306 OA
HETATM    2  O3  UNK     1      17.867  -0.397  36.167  1.00  0.00    -0.284 OA
HETATM    3  C1  UNK     1      19.065  -1.344  34.370  1.00  0.00     0.051 A 
HETATM    4  C2  UNK     1      19.890  -2.395  33.976  1.00  0.00     0.091 A 
HETATM    5  C3  UNK     1      19.824  -3.364  36.136  1.00  0.00     0.123 A 
HETATM    6  C5  UNK     1      18.589  -1.298  35.761  1.00  0.00     0.220 A 
HETATM    7  C6  UNK     1      19.032  -2.402  36.646  1.00  0.00     0.152 A 
HETATM    8  C7  UNK     1      20.358  -2.460  32.663  1.00  0.00     0.045 A 
HETATM    9  C8  UNK     1      19.996  -1.471  31.748  1.00  0.00    -0.059 A 
HETATM   10  C9  UNK     1      18.702  -0.352  33.456  1.00  0.00     0.019 A 
HETATM   11  C10 UNK     1      19.170  -0.419  32.145  1.00  0.00     0.008 A 
HETATM   12  C13 UNK     1      20.495  -1.538  30.344  1.00  0.00     0.048 C 
ENDROOT
BRANCH   5  13
HETATM   13  C4  UNK     1      20.317  -4.494  36.944  1.00  0.00     0.001 A 
HETATM   14  C11 UNK     1      21.526  -4.387  37.632  1.00  0.00     0.017 A 
HETATM   15  C14 UNK     1      21.990  -5.457  38.397  1.00  0.00     0.037 A 
HETATM   16  C16 UNK     1      21.245  -6.634  38.476  1.00  0.00     0.068 A 
HETATM   17  C15 UNK     1      20.035  -6.741  37.788  1.00  0.00     0.037 A 
HETATM   18  C12 UNK     1      19.571  -5.672  37.024  1.00  0.00     0.017 A 
BRANCH  16  19
HETATM   19  O4  UNK     1      21.698  -7.677  39.224  1.00  0.00    -0.356 OA
HETATM   20  C17 UNK     1      20.995  -8.912  39.109  1.00  0.00     0.210 C 
ENDBRANCH  16  19
ENDBRANCH   5  13
BRANCH   7  21
HETATM   21  O2  UNK     1      18.624  -2.382  37.962  1.00  0.00    -0.355 OA
HETATM   22  H11 UNK     1      18.654  -1.473  38.301  1.00  0.00     0.218 HD
ENDBRANCH   7  21
TORSDOF 3
ENDMDL
MODEL 6
REMARK VINA RESULT:      -7.4     22.689     24.942
REMARK  3 active torsions:
REMARK  status: ('A' for Active; 'I' for Inactive)
REMARK    1  A    between atoms: C6_10  and  O2_2 
REMARK    2  A    between atoms: C16_20  and  O4_4 
REMARK    3  A    between atoms: C3_7  and  C4_8 
ROOT
HETATM    1  O1  UNK     1      11.749   8.038   9.020  1.00  0.00    -0.306 OA
HETATM    2  O3  UNK     1      11.211   5.815   5.648  1.00  0.00    -0.284 OA
HETATM    3  C1  UNK     1      10.241   6.860   7.526  1.00  0.00     0.051 A 
HETATM    4  C2  UNK     1      10.492   7.619   8.667  1.00  0.00     0.091 A 
HETATM    5  C3  UNK     1      12.814   7.699   8.201  1.00  0.00     0.123 A 
HETATM    6  C5  UNK     1      11.369   6.485   6.659  1.00  0.00     0.220 A 
HETATM    7  C6  UNK     1      12.709   6.963   7.079  1.00  0.00     0.152 A 
HETATM    8  C7  UNK     1       9.440   7.985   9.508  1.00  0.00     0.045 A 
HETATM    9  C8  UNK     1       8.138   7.589   9.201  1.00  0.00    -0.059 A 
HETATM   10  C9  UNK     1       8.939   6.461   7.218  1.00  0.00     0.019 A 
HETATM   11  C10 UNK     1       7.889   6.828   8.059  1.00  0.00     0.008 A 
HETATM   12  C13 UNK     1       7.011   7.977  10.098  1.00  0.00     0.048 C 
ENDROOT
BRANCH   5  13
HETATM   13  C4  UNK     1      14.105   8.210   8.695  1.00  0.00     0.001 A 
HETATM   14  C11 UNK     1      14.916   7.404   9.494  1.00  0.00     0.017 A 
HETATM   15  C14 UNK     1      16.138   7.888   9.959  1.00  0.00     0.037 A 
HETATM   16  C16 UNK     1      16.551   9.179   9.626  1.00  0.00     0.068 A 
HETATM   17  C15 UNK     1      15.739   9.985   8.826  1.00  0.00     0.037 A 
HETATM   18  C12 UNK     1      14.518   9.501   8.360  1.00  0.00     0.017 A 
BRANCH  16  19
HETATM   19  O4  UNK     1      17.744   9.650  10.079  1.00  0.00    -0.356 OA
HETATM   20  C17 UNK     1      18.014  11.036   9.877  1.00  0.00     0.210 C 
ENDBRANCH  16  19
ENDBRANCH   5  13
BRANCH   7  21
HETATM   21  O2  UNK     1      13.793   6.614   6.303  1.00  0.00    -0.355 OA
HETATM   22  H11 UNK     1      13.531   5.941   5.655  1.00  0.00     0.218 HD
ENDBRANCH   7  21
TORSDOF 3
ENDMDL
MODEL 7
REMARK VINA RESULT:      -7.4      3.933      6.226
REMARK  3 active torsions:
REMARK  status: ('A' for Active; 'I' for Inactive)
REMARK    1  A    between atoms: C6_10  and  O2_2 
REMARK    2  A    between atoms: C16_20  and  O4_4 
REMARK    3  A    between atoms: C3_7  and  C4_8 
ROOT
HETATM    1  O1  UNK     1      17.905   3.664  33.788  1.00  0.00    -0.306 OA
HETATM    2  O3  UNK     1      18.880   2.939  29.898  1.00  0.00    -0.284 OA
HETATM    3  C1  UNK     1      18.385   4.527  31.570  1.00  0.00     0.051 A 
HETATM    4  C2  UNK     1      18.051   4.707  32.910  1.00  0.00     0.091 A 
HETATM    5  C3  UNK     1      18.108   2.375  33.322  1.00  0.00     0.123 A 
HETATM    6  C5  UNK     1      18.590   3.160  31.066  1.00  0.00     0.220 A 
HETATM    7  C6  UNK     1      18.425   2.064  32.052  1.00  0.00     0.152 A 
HETATM    8  C7  UNK     1      17.848   5.993  33.412  1.00  0.00     0.045 A 
HETATM    9  C8  UNK     1      17.982   7.096  32.568  1.00  0.00    -0.059 A 
HETATM   10  C9  UNK     1      18.519   5.629  30.722  1.00  0.00     0.019 A 
HETATM   11  C10 UNK     1      18.317   6.914  31.226  1.00  0.00     0.008 A 
HETATM   12  C13 UNK     1      17.765   8.472  33.101  1.00  0.00     0.048 C 
ENDROOT
BRANCH   5  13
HETATM   13  C4  UNK     1      17.920   1.350  34.365  1.00  0.00     0.001 A 
HETATM   14  C11 UNK     1      16.748   0.594  34.396  1.00  0.00     0.017 A 
HETATM   15  C14 UNK     1      16.572  -0.377  35.382  1.00  0.00     0.037 A 
HETATM   16  C16 UNK     1      17.566  -0.591  36.337  1.00  0.00     0.068 A 
HETATM   17  C15 UNK     1      18.738   0.166  36.305  1.00  0.00     0.037 A 
HETATM   18  C12 UNK     1      18.915   1.135  35.319  1.00  0.00     0.017 A 
BRANCH  16  19
HETATM   19  O4  UNK     1      17.393  -1.539  37.298  1.00  0.00    -0.356 OA
HETATM   20  C17 UNK     1      18.538  -1.899  38.069  1.00  0.00     0.210 C 
ENDBRANCH  16  19
ENDBRANCH   5  13
BRANCH   7  21
HETATM   21  O2  UNK     1      18.588   0.768  31.612  1.00  0.00    -0.355 OA
HETATM   22  H11 UNK     1      19.217   0.302  32.187  1.00  0.00     0.218 HD
ENDBRANCH   7  21
TORSDOF 3
ENDMDL
MODEL 8
REMARK VINA RESULT:      -7.4     22.286     24.357
REMARK  3 active torsions:
REMARK  status: ('A' for Active; 'I' for Inactive)
REMARK    1  A    between atoms: C6_10  and  O2_2 
REMARK    2  A    between atoms: C16_20  and  O4_4 
REMARK    3  A    between atoms: C3_7  and  C4_8 
ROOT
HETATM    1  O1  UNK     1      14.236   9.227   8.195  1.00  0.00    -0.306 OA
HETATM    2  O3  UNK     1      16.689   7.768  11.103  1.00  0.00    -0.284 OA
HETATM    3  C1  UNK     1      16.254   9.463   9.524  1.00  0.00     0.051 A 
HETATM    4  C2  UNK     1      15.376   9.907   8.538  1.00  0.00     0.091 A 
HETATM    5  C3  UNK     1      13.940   8.052   8.867  1.00  0.00     0.123 A 
HETATM    6  C5  UNK     1      15.953   8.210  10.232  1.00  0.00     0.220 A 
HETATM    7  C6  UNK     1      14.708   7.510   9.831  1.00  0.00     0.152 A 
HETATM    8  C7  UNK     1      15.641  11.091   7.849  1.00  0.00     0.045 A 
HETATM    9  C8  UNK     1      16.786  11.829   8.152  1.00  0.00    -0.059 A 
HETATM   10  C9  UNK     1      17.402  10.199   9.829  1.00  0.00     0.019 A 
HETATM   11  C10 UNK     1      17.664  11.383   9.140  1.00  0.00     0.008 A 
HETATM   12  C13 UNK     1      17.072  13.095   7.417  1.00  0.00     0.048 C 
ENDROOT
BRANCH   5  13
HETATM   13  C4  UNK     1      12.691   7.422   8.402  1.00  0.00     0.001 A 
HETATM   14  C11 UNK     1      11.473   7.779   8.979  1.00  0.00     0.017 A 
HETATM   15  C14 UNK     1      10.291   7.183   8.538  1.00  0.00     0.037 A 
HETATM   16  C16 UNK     1      10.328   6.230   7.520  1.00  0.00     0.068 A 
HETATM   17  C15 UNK     1      11.548   5.873   6.943  1.00  0.00     0.037 A 
HETATM   18  C12 UNK     1      12.729   6.469   7.383  1.00  0.00     0.017 A 
BRANCH  16  19
HETATM   19  O4  UNK     1       9.175   5.649   7.089  1.00  0.00    -0.356 OA
HETATM   20  C17 UNK     1       8.049   5.717   7.962  1.00  0.00     0.210 C 
ENDBRANCH  16  19
ENDBRANCH   5  13
BRANCH   7  21
HETATM   21  O2  UNK     1      14.403   6.321  10.457  1.00  0.00    -0.355 OA
HETATM   22  H11 UNK     1      13.845   5.778   9.878  1.00  0.00     0.218 HD
ENDBRANCH   7  21
TORSDOF 3
ENDMDL
MODEL 9
REMARK VINA RESULT:      -7.4     23.201     25.257
REMARK  3 active torsions:
REMARK  status: ('A' for Active; 'I' for Inactive)
REMARK    1  A    between atoms: C6_10  and  O2_2 
REMARK    2  A    between atoms: C16_20  and  O4_4 
REMARK    3  A    between atoms: C3_7  and  C4_8 
ROOT
HETATM    1  O1  UNK     1      10.192   5.335   9.690  1.00  0.00    -0.306 OA
HETATM    2  O3  UNK     1      10.256   6.986   5.965  1.00  0.00    -0.284 OA
HETATM    3  C1  UNK     1      11.478   6.128   7.790  1.00  0.00     0.051 A 
HETATM    4  C2  UNK     1      11.389   5.569   9.062  1.00  0.00     0.091 A 
HETATM    5  C3  UNK     1       9.022   5.660   9.024  1.00  0.00     0.123 A 
HETATM    6  C5  UNK     1      10.240   6.488   7.082  1.00  0.00     0.220 A 
HETATM    7  C6  UNK     1       8.970   6.213   7.798  1.00  0.00     0.152 A 
HETATM    8  C7  UNK     1      12.549   5.223   9.756  1.00  0.00     0.045 A 
HETATM    9  C8  UNK     1      13.797   5.437   9.170  1.00  0.00    -0.059 A 
HETATM   10  C9  UNK     1      12.727   6.345   7.201  1.00  0.00     0.019 A 
HETATM   11  C10 UNK     1      13.885   5.997   7.895  1.00  0.00     0.008 A 
HETATM   12  C13 UNK     1      15.039   5.068   9.909  1.00  0.00     0.048 C 
ENDROOT
BRANCH   5  13
HETATM   13  C4  UNK     1       7.811   5.359   9.808  1.00  0.00     0.001 A 
HETATM   14  C11 UNK     1       7.244   4.086   9.757  1.00  0.00     0.017 A 
HETATM   15  C14 UNK     1       6.098   3.802  10.500  1.00  0.00     0.037 A 
HETATM   16  C16 UNK     1       5.519   4.792  11.295  1.00  0.00     0.068 A 
HETATM   17  C15 UNK     1       6.087   6.066  11.347  1.00  0.00     0.037 A 
HETATM   18  C12 UNK     1       7.232   6.349  10.604  1.00  0.00     0.017 A 
BRANCH  16  19
HETATM   19  O4  UNK     1       4.402   4.514  12.021  1.00  0.00    -0.356 OA
HETATM   20  C17 UNK     1       4.287   3.197  12.558  1.00  0.00     0.210 C 
ENDBRANCH  16  19
ENDBRANCH   5  13
BRANCH   7  21
HETATM   21  O2  UNK     1       7.789   6.556   7.175  1.00  0.00    -0.355 OA
HETATM   22  H11 UNK     1       7.296   5.754   6.940  1.00  0.00     0.218 HD
ENDBRANCH   7  21
TORSDOF 3
ENDMDL
MODEL 10
REMARK VINA RESULT:      -7.3      8.943     11.597
REMARK  3 active torsions:
REMARK  status: ('A' for Active; 'I' for Inactive)
REMARK    1  A    between atoms: C6_10  and  O2_2 
REMARK    2  A    between atoms: C16_20  and  O4_4 
REMARK    3  A    between atoms: C3_7  and  C4_8 
ROOT
HETATM    1  O1  UNK     1      18.930  -2.383  37.081  1.00  0.00    -0.306 OA
HETATM    2  O3  UNK     1      19.703  -1.396  33.203  1.00  0.00    -0.284 OA
HETATM    3  C1  UNK     1      18.771  -0.767  35.276  1.00  0.00     0.051 A 
HETATM    4  C2  UNK     1      18.535  -1.165  36.590  1.00  0.00     0.091 A 
HETATM    5  C3  UNK     1      19.602  -3.250  36.235  1.00  0.00     0.123 A 
HETATM    6  C5  UNK     1      19.472  -1.688  34.369  1.00  0.00     0.220 A 
HETATM    7  C6  UNK     1      19.884  -2.992  34.944  1.00  0.00     0.152 A 
HETATM    8  C7  UNK     1      17.868  -0.311  37.469  1.00  0.00     0.045 A 
HETATM    9  C8  UNK     1      17.441   0.942  37.028  1.00  0.00    -0.059 A 
HETATM   10  C9  UNK     1      18.343   0.487  34.831  1.00  0.00     0.019 A 
HETATM   11  C10 UNK     1      17.678   1.339  35.712  1.00  0.00     0.008 A 
HETATM   12  C13 UNK     1      16.728   1.857  37.965  1.00  0.00     0.048 C 
ENDROOT
BRANCH   5  13
HETATM   13  C4  UNK     1      19.969  -4.520  36.886  1.00  0.00     0.001 A 
HETATM   14  C11 UNK     1      21.161  -4.618  37.605  1.00  0.00     0.017 A 
HETATM   15  C14 UNK     1      21.506  -5.821  38.222  1.00  0.00     0.037 A 
HETATM   16  C16 UNK     1      20.660  -6.926  38.120  1.00  0.00     0.068 A 
HETATM   17  C15 UNK     1      19.468  -6.827  37.402  1.00  0.00     0.037 A 
HETATM   18  C12 UNK     1      19.122  -5.625  36.785  1.00  0.00     0.017 A 
BRANCH  16  19
HETATM   19  O4  UNK     1      20.997  -8.098  38.723  1.00  0.00    -0.356 OA
HETATM   20  C17 UNK     1      21.999  -8.043  39.737  1.00  0.00     0.210 C 
ENDBRANCH  16  19
ENDBRANCH   5  13
BRANCH   7  21
HETATM   21  O2  UNK     1      20.525  -3.890  34.119  1.00  0.00    -0.355 OA
HETATM   22  H11 UNK     1      20.091  -3.907  33.251  1.00  0.00     0.218 HD
ENDBRANCH   7  21
TORSDOF 3
ENDMDL
