MODEL 1
REMARK VINA RESULT:      -9.5      0.000      0.000
REMARK  1 active torsions:
REMARK  status: ('A' for Active; 'I' for Inactive)
REMARK    1  A    between atoms: C2_6  and  C4_8 
ROOT
HETATM    1  O2  UNK     1      18.702   0.914  31.081  1.00  0.00    -0.274 OA
HETATM    2  O3  UNK     1      18.823   1.776  28.967  1.00  0.00    -0.260 OA
HETATM    3  C1  UNK     1      18.304   2.421  32.957  1.00  0.00     0.012 A 
HETATM    4  C2  UNK     1      18.263   3.560  32.023  1.00  0.00     0.017 A 
HETATM    5  C3  UNK     1      18.522   1.138  32.459  1.00  0.00     0.096 A 
HETATM    6  C5  UNK     1      18.572   0.017  33.288  1.00  0.00    -0.027 A 
HETATM    7  C6  UNK     1      18.133   2.565  34.341  1.00  0.00     0.022 A 
HETATM    8  C7  UNK     1      18.180   1.451  35.185  1.00  0.00    -0.060 A 
HETATM    9  C10 UNK     1      18.400   0.179  34.659  1.00  0.00     0.016 A 
HETATM   10  C12 UNK     1      18.438   3.308  30.713  1.00  0.00     0.097 A 
HETATM   11  C13 UNK     1      18.807  -1.349  32.735  1.00  0.00     0.051 C 
HETATM   12  C14 UNK     1      18.670   1.958  30.170  1.00  0.00     0.289 A 
HETATM   13  C15 UNK     1      17.998   1.627  36.656  1.00  0.00     0.048 C 
ENDROOT
BRANCH   4  14
HETATM   14  C4  UNK     1      18.051   4.908  32.377  1.00  0.00     0.088 A 
HETATM   15  O1  UNK     1      16.827   5.494  32.295  1.00  0.00    -0.309 OA
HETATM   16  C11 UNK     1      16.974   6.785  32.707  1.00  0.00     0.086 A 
HETATM   17  C8  UNK     1      18.299   7.030  33.054  1.00  0.00     0.002 A 
HETATM   18  C17 UNK     1      15.958   7.737  32.775  1.00  0.00     0.040 A 
HETATM   19  C16 UNK     1      18.647   8.315  33.505  1.00  0.00     0.038 A 
HETATM   20  C9  UNK     1      18.987   5.808  32.837  1.00  0.00     0.052 A 
HETATM   21  C18 UNK     1      17.646   9.294  33.585  1.00  0.00     0.035 A 
HETATM   22 Cl1  UNK     1      18.052  10.877  34.136  1.00  0.00    -0.084 Cl
HETATM   23  C19 UNK     1      16.328   9.008  33.226  1.00  0.00     0.026 A 
ENDBRANCH   4  14
TORSDOF 1
ENDMDL
MODEL 2
REMARK VINA RESULT:      -8.7      6.728      9.842
REMARK  1 active torsions:
REMARK  status: ('A' for Active; 'I' for Inactive)
REMARK    1  A    between atoms: C2_6  and  C4_8 
ROOT
HETATM    1  O2  UNK     1      21.816  -6.992  38.050  1.00  0.00    -0.274 OA
HETATM    2  O3  UNK     1      23.417  -5.629  38.947  1.00  0.00    -0.260 OA
HETATM    3  C1  UNK     1      19.926  -5.993  36.878  1.00  0.00     0.012 A 
HETATM    4  C2  UNK     1      20.475  -4.653  37.151  1.00  0.00     0.017 A 
HETATM    5  C3  UNK     1      20.611  -7.117  37.335  1.00  0.00     0.096 A 
HETATM    6  C5  UNK     1      20.145  -8.413  37.110  1.00  0.00    -0.027 A 
HETATM    7  C6  UNK     1      18.732  -6.196  36.172  1.00  0.00     0.022 A 
HETATM    8  C7  UNK     1      18.253  -7.489  35.939  1.00  0.00    -0.060 A 
HETATM    9  C10 UNK     1      18.958  -8.596  36.408  1.00  0.00     0.016 A 
HETATM   10  C12 UNK     1      21.630  -4.572  37.836  1.00  0.00     0.097 A 
HETATM   11  C13 UNK     1      20.893  -9.604  37.609  1.00  0.00     0.051 C 
HETATM   12  C14 UNK     1      22.367  -5.750  38.326  1.00  0.00     0.289 A 
HETATM   13  C15 UNK     1      16.978  -7.684  35.187  1.00  0.00     0.048 C 
ENDROOT
BRANCH   4  14
HETATM   14  C4  UNK     1      19.899  -3.429  36.752  1.00  0.00     0.088 A 
HETATM   15  O1  UNK     1      19.130  -2.685  37.592  1.00  0.00    -0.309 OA
HETATM   16  C11 UNK     1      18.738  -1.579  36.897  1.00  0.00     0.086 A 
HETATM   17  C8  UNK     1      19.256  -1.614  35.606  1.00  0.00     0.002 A 
HETATM   18  C17 UNK     1      17.933  -0.553  37.390  1.00  0.00     0.040 A 
HETATM   19  C16 UNK     1      18.957  -0.552  34.735  1.00  0.00     0.038 A 
HETATM   20  C9  UNK     1      20.006  -2.816  35.524  1.00  0.00     0.052 A 
HETATM   21  C18 UNK     1      18.151   0.496  35.202  1.00  0.00     0.035 A 
HETATM   22 Cl1  UNK     1      17.772   1.807  34.150  1.00  0.00    -0.084 Cl
HETATM   23  C19 UNK     1      17.649   0.492  36.506  1.00  0.00     0.026 A 
ENDBRANCH   4  14
TORSDOF 1
ENDMDL
MODEL 3
REMARK VINA RESULT:      -8.6      3.242      7.427
REMARK  1 active torsions:
REMARK  status: ('A' for Active; 'I' for Inactive)
REMARK    1  A    between atoms: C2_6  and  C4_8 
ROOT
HETATM    1  O2  UNK     1      18.280   9.315  34.254  1.00  0.00    -0.274 OA
HETATM    2  O3  UNK     1      20.541   9.100  34.513  1.00  0.00    -0.260 OA
HETATM    3  C1  UNK     1      17.042   7.547  33.117  1.00  0.00     0.012 A 
HETATM    4  C2  UNK     1      18.298   6.801  32.927  1.00  0.00     0.017 A 
HETATM    5  C3  UNK     1      17.072   8.777  33.773  1.00  0.00     0.096 A 
HETATM    6  C5  UNK     1      15.919   9.533  33.986  1.00  0.00    -0.027 A 
HETATM    7  C6  UNK     1      15.802   7.076  32.666  1.00  0.00     0.022 A 
HETATM    8  C7  UNK     1      14.638   7.823  32.872  1.00  0.00    -0.060 A 
HETATM    9  C10 UNK     1      14.697   9.050  33.530  1.00  0.00     0.016 A 
HETATM   10  C12 UNK     1      19.433   7.345  33.401  1.00  0.00     0.097 A 
HETATM   11  C13 UNK     1      15.972  10.848  34.689  1.00  0.00     0.051 C 
HETATM   12  C14 UNK     1      19.483   8.643  34.096  1.00  0.00     0.289 A 
HETATM   13  C15 UNK     1      13.327   7.304  32.382  1.00  0.00     0.048 C 
ENDROOT
BRANCH   4  14
HETATM   14  C4  UNK     1      18.425   5.550  32.288  1.00  0.00     0.088 A 
HETATM   15  O1  UNK     1      18.345   4.377  32.972  1.00  0.00    -0.309 OA
HETATM   16  C11 UNK     1      18.508   3.375  32.062  1.00  0.00     0.086 A 
HETATM   17  C8  UNK     1      18.694   3.905  30.790  1.00  0.00     0.002 A 
HETATM   18  C17 UNK     1      18.496   2.010  32.347  1.00  0.00     0.040 A 
HETATM   19  C16 UNK     1      18.880   3.019  29.715  1.00  0.00     0.038 A 
HETATM   20  C9  UNK     1      18.637   5.315  30.948  1.00  0.00     0.052 A 
HETATM   21  C18 UNK     1      18.872   1.640  29.969  1.00  0.00     0.035 A 
HETATM   22 Cl1  UNK     1      19.099   0.537  28.665  1.00  0.00    -0.084 Cl
HETATM   23  C19 UNK     1      18.683   1.148  31.262  1.00  0.00     0.026 A 
ENDBRANCH   4  14
TORSDOF 1
ENDMDL
MODEL 4
REMARK VINA RESULT:      -8.4     15.886     18.772
REMARK  1 active torsions:
REMARK  status: ('A' for Active; 'I' for Inactive)
REMARK    1  A    between atoms: C2_6  and  C4_8 
ROOT
HETATM    1  O2  UNK     1      19.373  -3.339  11.931  1.00  0.00    -0.274 OA
HETATM    2  O3  UNK     1      20.232  -1.482  10.912  1.00  0.00    -0.260 OA
HETATM    3  C1  UNK     1      18.721  -3.211  14.278  1.00  0.00     0.012 A 
HETATM    4  C2  UNK     1      19.141  -1.799  14.309  1.00  0.00     0.017 A 
HETATM    5  C3  UNK     1      18.850  -3.935  13.094  1.00  0.00     0.096 A 
HETATM    6  C5  UNK     1      18.472  -5.275  12.998  1.00  0.00    -0.027 A 
HETATM    7  C6  UNK     1      18.192  -3.872  15.396  1.00  0.00     0.022 A 
HETATM    8  C7  UNK     1      17.809  -5.214  15.314  1.00  0.00    -0.060 A 
HETATM    9  C10 UNK     1      17.949  -5.915  14.117  1.00  0.00     0.016 A 
HETATM   10  C12 UNK     1      19.634  -1.262  13.179  1.00  0.00     0.097 A 
HETATM   11  C13 UNK     1      18.619  -6.032  11.721  1.00  0.00     0.051 C 
HETATM   12  C14 UNK     1      19.777  -2.013  11.919  1.00  0.00     0.289 A 
HETATM   13  C15 UNK     1      17.250  -5.901  16.516  1.00  0.00     0.048 C 
ENDROOT
BRANCH   4  14
HETATM   14  C4  UNK     1      19.069  -0.943  15.428  1.00  0.00     0.088 A 
HETATM   15  O1  UNK     1      19.243   0.402  15.322  1.00  0.00    -0.309 OA
HETATM   16  C11 UNK     1      19.112   0.921  16.576  1.00  0.00     0.086 A 
HETATM   17  C8  UNK     1      18.853  -0.094  17.491  1.00  0.00     0.002 A 
HETATM   18  C17 UNK     1      19.220   2.269  16.913  1.00  0.00     0.040 A 
HETATM   19  C16 UNK     1      18.687   0.249  18.844  1.00  0.00     0.038 A 
HETATM   20  C9  UNK     1      18.828  -1.297  16.736  1.00  0.00     0.052 A 
HETATM   21  C18 UNK     1      18.789   1.597  19.213  1.00  0.00     0.035 A 
HETATM   22 Cl1  UNK     1      18.588   2.040  20.867  1.00  0.00    -0.084 Cl
HETATM   23  C19 UNK     1      19.051   2.587  18.263  1.00  0.00     0.026 A 
ENDBRANCH   4  14
TORSDOF 1
ENDMDL
MODEL 5
REMARK VINA RESULT:      -8.4      6.286     10.268
REMARK  1 active torsions:
REMARK  status: ('A' for Active; 'I' for Inactive)
REMARK    1  A    between atoms: C2_6  and  C4_8 
ROOT
HETATM    1  O2  UNK     1      19.403  -0.620  33.072  1.00  0.00    -0.274 OA
HETATM    2  O3  UNK     1      20.415  -2.037  31.590  1.00  0.00    -0.260 OA
HETATM    3  C1  UNK     1      19.122  -1.327  35.389  1.00  0.00     0.012 A 
HETATM    4  C2  UNK     1      19.773  -2.609  35.068  1.00  0.00     0.017 A 
HETATM    5  C3  UNK     1      18.958  -0.375  34.384  1.00  0.00     0.096 A 
HETATM    6  C5  UNK     1      18.350   0.858  34.621  1.00  0.00    -0.027 A 
HETATM    7  C6  UNK     1      18.654  -1.012  36.672  1.00  0.00     0.022 A 
HETATM    8  C7  UNK     1      18.043   0.221  36.925  1.00  0.00    -0.060 A 
HETATM    9  C10 UNK     1      17.890   1.153  35.901  1.00  0.00     0.016 A 
HETATM   10  C12 UNK     1      20.187  -2.808  33.804  1.00  0.00     0.097 A 
HETATM   11  C13 UNK     1      18.182   1.863  33.531  1.00  0.00     0.051 C 
HETATM   12  C14 UNK     1      20.021  -1.813  32.730  1.00  0.00     0.289 A 
HETATM   13  C15 UNK     1      17.549   0.536  38.297  1.00  0.00     0.048 C 
ENDROOT
BRANCH   4  14
HETATM   14  C4  UNK     1      20.010  -3.662  35.976  1.00  0.00     0.088 A 
HETATM   15  O1  UNK     1      21.174  -3.771  36.670  1.00  0.00    -0.309 OA
HETATM   16  C11 UNK     1      21.073  -4.888  37.445  1.00  0.00     0.086 A 
HETATM   17  C8  UNK     1      19.839  -5.499  37.249  1.00  0.00     0.002 A 
HETATM   18  C17 UNK     1      22.053  -5.365  38.315  1.00  0.00     0.040 A 
HETATM   19  C16 UNK     1      19.550  -6.672  37.967  1.00  0.00     0.038 A 
HETATM   20  C9  UNK     1      19.159  -4.697  36.295  1.00  0.00     0.052 A 
HETATM   21  C18 UNK     1      20.515  -7.176  38.850  1.00  0.00     0.035 A 
HETATM   22 Cl1  UNK     1      20.181  -8.614  39.740  1.00  0.00    -0.084 Cl
HETATM   23  C19 UNK     1      21.743  -6.533  39.018  1.00  0.00     0.026 A 
ENDBRANCH   4  14
TORSDOF 1
ENDMDL
MODEL 6
REMARK VINA RESULT:      -8.2      6.313     10.520
REMARK  1 active torsions:
REMARK  status: ('A' for Active; 'I' for Inactive)
REMARK    1  A    between atoms: C2_6  and  C4_8 
ROOT
HETATM    1  O2  UNK     1      17.949   0.739  36.030  1.00  0.00    -0.274 OA
HETATM    2  O3  UNK     1      17.469   0.805  38.264  1.00  0.00    -0.260 OA
HETATM    3  C1  UNK     1      18.977  -1.266  35.095  1.00  0.00     0.012 A 
HETATM    4  C2  UNK     1      18.967  -1.884  36.432  1.00  0.00     0.017 A 
HETATM    5  C3  UNK     1      18.469   0.023  34.935  1.00  0.00     0.096 A 
HETATM    6  C5  UNK     1      18.449   0.666  33.697  1.00  0.00    -0.027 A 
HETATM    7  C6  UNK     1      19.477  -1.917  33.958  1.00  0.00     0.022 A 
HETATM    8  C7  UNK     1      19.463  -1.285  32.711  1.00  0.00    -0.060 A 
HETATM    9  C10 UNK     1      18.951   0.005  32.581  1.00  0.00     0.016 A 
HETATM   10  C12 UNK     1      18.461  -1.171  37.453  1.00  0.00     0.097 A 
HETATM   11  C13 UNK     1      17.902   2.047  33.548  1.00  0.00     0.051 C 
HETATM   12  C14 UNK     1      17.921   0.192  37.303  1.00  0.00     0.289 A 
HETATM   13  C15 UNK     1      20.003  -1.995  31.514  1.00  0.00     0.048 C 
ENDROOT
BRANCH   4  14
HETATM   14  C4  UNK     1      19.442  -3.175  36.745  1.00  0.00     0.088 A 
HETATM   15  O1  UNK     1      18.741  -4.298  36.435  1.00  0.00    -0.309 OA
HETATM   16  C11 UNK     1      19.476  -5.359  36.874  1.00  0.00     0.086 A 
HETATM   17  C8  UNK     1      20.653  -4.916  37.469  1.00  0.00     0.002 A 
HETATM   18  C17 UNK     1      19.117  -6.701  36.755  1.00  0.00     0.040 A 
HETATM   19  C16 UNK     1      21.544  -5.872  37.986  1.00  0.00     0.038 A 
HETATM   20  C9  UNK     1      20.620  -3.499  37.380  1.00  0.00     0.052 A 
HETATM   21  C18 UNK     1      21.211  -7.230  37.880  1.00  0.00     0.035 A 
HETATM   22 Cl1  UNK     1      22.291  -8.418  38.507  1.00  0.00    -0.084 Cl
HETATM   23  C19 UNK     1      20.019  -7.634  37.276  1.00  0.00     0.026 A 
ENDBRANCH   4  14
TORSDOF 1
ENDMDL
MODEL 7
REMARK VINA RESULT:      -8.2      1.763      2.906
REMARK  1 active torsions:
REMARK  status: ('A' for Active; 'I' for Inactive)
REMARK    1  A    between atoms: C2_6  and  C4_8 
ROOT
HETATM    1  O2  UNK     1      18.593  -1.335  34.130  1.00  0.00    -0.274 OA
HETATM    2  O3  UNK     1      18.971  -1.430  31.877  1.00  0.00    -0.260 OA
HETATM    3  C1  UNK     1      18.222   0.834  35.182  1.00  0.00     0.012 A 
HETATM    4  C2  UNK     1      18.379   1.488  33.871  1.00  0.00     0.017 A 
HETATM    5  C3  UNK     1      18.333  -0.553  35.271  1.00  0.00     0.096 A 
HETATM    6  C5  UNK     1      18.194  -1.233  36.481  1.00  0.00    -0.027 A 
HETATM    7  C6  UNK     1      17.962   1.546  36.361  1.00  0.00     0.022 A 
HETATM    8  C7  UNK     1      17.820   0.878  37.581  1.00  0.00    -0.060 A 
HETATM    9  C10 UNK     1      17.937  -0.510  37.641  1.00  0.00     0.016 A 
HETATM   10  C12 UNK     1      18.626   0.708  32.803  1.00  0.00     0.097 A 
HETATM   11  C13 UNK     1      18.318  -2.719  36.554  1.00  0.00     0.051 C 
HETATM   12  C14 UNK     1      18.746  -0.759  32.879  1.00  0.00     0.289 A 
HETATM   13  C15 UNK     1      17.546   1.655  38.825  1.00  0.00     0.048 C 
ENDROOT
BRANCH   4  14
HETATM   14  C4  UNK     1      18.292   2.873  33.626  1.00  0.00     0.088 A 
HETATM   15  O1  UNK     1      17.850   3.372  32.440  1.00  0.00    -0.309 OA
HETATM   16  C11 UNK     1      17.892   4.731  32.539  1.00  0.00     0.086 A 
HETATM   17  C8  UNK     1      18.363   5.107  33.793  1.00  0.00     0.002 A 
HETATM   18  C17 UNK     1      17.522   5.630  31.540  1.00  0.00     0.040 A 
HETATM   19  C16 UNK     1      18.477   6.478  34.082  1.00  0.00     0.038 A 
HETATM   20  C9  UNK     1      18.619   3.896  34.488  1.00  0.00     0.052 A 
HETATM   21  C18 UNK     1      18.112   7.407  33.098  1.00  0.00     0.035 A 
HETATM   22 Cl1  UNK     1      18.245   9.092  33.433  1.00  0.00    -0.084 Cl
HETATM   23  C19 UNK     1      17.644   6.988  31.851  1.00  0.00     0.026 A 
ENDBRANCH   4  14
TORSDOF 1
ENDMDL
MODEL 8
REMARK VINA RESULT:      -8.1      1.572      3.228
REMARK  1 active torsions:
REMARK  status: ('A' for Active; 'I' for Inactive)
REMARK    1  A    between atoms: C2_6  and  C4_8 
ROOT
HETATM    1  O2  UNK     1      18.802   0.531  34.237  1.00  0.00    -0.274 OA
HETATM    2  O3  UNK     1      18.806   0.909  36.491  1.00  0.00    -0.260 OA
HETATM    3  C1  UNK     1      18.558   2.423  32.716  1.00  0.00     0.012 A 
HETATM    4  C2  UNK     1      18.477   3.332  33.873  1.00  0.00     0.017 A 
HETATM    5  C3  UNK     1      18.717   1.055  32.933  1.00  0.00     0.096 A 
HETATM    6  C5  UNK     1      18.801   0.141  31.882  1.00  0.00    -0.027 A 
HETATM    7  C6  UNK     1      18.482   2.871  31.390  1.00  0.00     0.022 A 
HETATM    8  C7  UNK     1      18.565   1.966  30.327  1.00  0.00    -0.060 A 
HETATM    9  C10 UNK     1      18.723   0.604  30.573  1.00  0.00     0.016 A 
HETATM   10  C12 UNK     1      18.562   2.796  35.104  1.00  0.00     0.097 A 
HETATM   11  C13 UNK     1      18.971  -1.320  32.136  1.00  0.00     0.051 C 
HETATM   12  C14 UNK     1      18.731   1.353  35.351  1.00  0.00     0.289 A 
HETATM   13  C15 UNK     1      18.479   2.463  28.922  1.00  0.00     0.048 C 
ENDROOT
BRANCH   4  14
HETATM   14  C4  UNK     1      18.318   4.732  33.811  1.00  0.00     0.088 A 
HETATM   15  O1  UNK     1      17.158   5.311  33.402  1.00  0.00    -0.309 OA
HETATM   16  C11 UNK     1      17.345   6.660  33.460  1.00  0.00     0.086 A 
HETATM   17  C8  UNK     1      18.629   6.949  33.909  1.00  0.00     0.002 A 
HETATM   18  C17 UNK     1      16.398   7.627  33.123  1.00  0.00     0.040 A 
HETATM   19  C16 UNK     1      19.008   8.297  34.034  1.00  0.00     0.038 A 
HETATM   20  C9  UNK     1      19.251   5.692  34.133  1.00  0.00     0.052 A 
HETATM   21  C18 UNK     1      18.078   9.292  33.703  1.00  0.00     0.035 A 
HETATM   22 Cl1  UNK     1      18.523  10.950  33.850  1.00  0.00    -0.084 Cl
HETATM   23  C19 UNK     1      16.797   8.960  33.256  1.00  0.00     0.026 A 
ENDBRANCH   4  14
TORSDOF 1
ENDMDL
MODEL 9
REMARK VINA RESULT:      -8.0     15.743     18.106
REMARK  1 active torsions:
REMARK  status: ('A' for Active; 'I' for Inactive)
REMARK    1  A    between atoms: C2_6  and  C4_8 
ROOT
HETATM    1  O2  UNK     1      28.309  -5.270  39.119  1.00  0.00    -0.274 OA
HETATM    2  O3  UNK     1      29.438  -3.538  40.097  1.00  0.00    -0.260 OA
HETATM    3  C1  UNK     1      29.434  -6.610  37.419  1.00  0.00     0.012 A 
HETATM    4  C2  UNK     1      30.640  -5.778  37.573  1.00  0.00     0.017 A 
HETATM    5  C3  UNK     1      28.309  -6.331  38.194  1.00  0.00     0.096 A 
HETATM    6  C5  UNK     1      27.136  -7.079  38.098  1.00  0.00    -0.027 A 
HETATM    7  C6  UNK     1      29.359  -7.684  36.521  1.00  0.00     0.022 A 
HETATM    8  C7  UNK     1      28.190  -8.443  36.413  1.00  0.00    -0.060 A 
HETATM    9  C10 UNK     1      27.079  -8.141  37.200  1.00  0.00     0.016 A 
HETATM   10  C12 UNK     1      30.604  -4.774  38.466  1.00  0.00     0.097 A 
HETATM   11  C13 UNK     1      25.942  -6.763  38.936  1.00  0.00     0.051 C 
HETATM   12  C14 UNK     1      29.425  -4.465  39.293  1.00  0.00     0.289 A 
HETATM   13  C15 UNK     1      28.130  -9.580  35.449  1.00  0.00     0.048 C 
ENDROOT
BRANCH   4  14
HETATM   14  C4  UNK     1      31.848  -5.940  36.863  1.00  0.00     0.088 A 
HETATM   15  O1  UNK     1      32.079  -5.317  35.677  1.00  0.00    -0.309 OA
HETATM   16  C11 UNK     1      33.326  -5.687  35.269  1.00  0.00     0.086 A 
HETATM   17  C8  UNK     1      33.898  -6.552  36.196  1.00  0.00     0.002 A 
HETATM   18  C17 UNK     1      33.954  -5.272  34.095  1.00  0.00     0.040 A 
HETATM   19  C16 UNK     1      35.191  -7.044  35.946  1.00  0.00     0.038 A 
HETATM   20  C9  UNK     1      32.932  -6.709  37.225  1.00  0.00     0.052 A 
HETATM   21  C18 UNK     1      35.849  -6.643  34.774  1.00  0.00     0.035 A 
HETATM   22 Cl1  UNK     1      37.434  -7.235  34.448  1.00  0.00    -0.084 Cl
HETATM   23  C19 UNK     1      35.239  -5.773  33.867  1.00  0.00     0.026 A 
ENDBRANCH   4  14
TORSDOF 1
ENDMDL
MODEL 10
REMARK VINA RESULT:      -7.9      4.202      6.896
REMARK  1 active torsions:
REMARK  status: ('A' for Active; 'I' for Inactive)
REMARK    1  A    between atoms: C2_6  and  C4_8 
ROOT
HETATM    1  O2  UNK     1      15.977   6.780  32.201  1.00  0.00    -0.274 OA
HETATM    2  O3  UNK     1      13.736   6.697  31.757  1.00  0.00    -0.260 OA
HETATM    3  C1  UNK     1      16.856   8.622  33.536  1.00  0.00     0.012 A 
HETATM    4  C2  UNK     1      15.495   9.177  33.651  1.00  0.00     0.017 A 
HETATM    5  C3  UNK     1      17.054   7.445  32.817  1.00  0.00     0.096 A 
HETATM    6  C5  UNK     1      18.315   6.868  32.670  1.00  0.00    -0.027 A 
HETATM    7  C6  UNK     1      17.976   9.228  34.122  1.00  0.00     0.022 A 
HETATM    8  C7  UNK     1      19.247   8.660  33.983  1.00  0.00    -0.060 A 
HETATM    9  C10 UNK     1      19.416   7.483  33.258  1.00  0.00     0.016 A 
HETATM   10  C12 UNK     1      14.491   8.514  33.051  1.00  0.00     0.097 A 
HETATM   11  C13 UNK     1      18.506   5.607  31.895  1.00  0.00     0.051 C 
HETATM   12  C14 UNK     1      14.682   7.269  32.287  1.00  0.00     0.289 A 
HETATM   13  C15 UNK     1      20.427   9.322  34.613  1.00  0.00     0.048 C 
ENDROOT
BRANCH   4  14
HETATM   14  C4  UNK     1      15.141  10.353  34.344  1.00  0.00     0.088 A 
HETATM   15  O1  UNK     1      14.773  10.338  35.653  1.00  0.00    -0.309 OA
HETATM   16  C11 UNK     1      14.499  11.627  36.004  1.00  0.00     0.086 A 
HETATM   17  C8  UNK     1      14.693  12.473  34.918  1.00  0.00     0.002 A 
HETATM   18  C17 UNK     1      14.083  12.054  37.264  1.00  0.00     0.040 A 
HETATM   19  C16 UNK     1      14.459  13.848  35.089  1.00  0.00     0.038 A 
HETATM   20  C9  UNK     1      15.109  11.637  33.848  1.00  0.00     0.052 A 
HETATM   21  C18 UNK     1      14.041  14.309  36.345  1.00  0.00     0.035 A 
HETATM   22 Cl1  UNK     1      13.748  15.992  36.575  1.00  0.00    -0.084 Cl
HETATM   23  C19 UNK     1      13.857  13.426  37.411  1.00  0.00     0.026 A 
ENDBRANCH   4  14
TORSDOF 1
ENDMDL
