MODEL 1
REMARK VINA RESULT:      -8.0      0.000      0.000
REMARK  7 active torsions:
REMARK  status: ('A' for Active; 'I' for Inactive)
REMARK    1  A    between atoms: C14_17  and  O2_2 
REMARK    2  A    between atoms: C16_19  and  O2_2 
REMARK    3  A    between atoms: C1_4  and  C2_5 
REMARK    4  A    between atoms: C1_4  and  C3_6 
REMARK    5  A    between atoms: C2_5  and  C4_7 
REMARK    6  A    between atoms: C4_7  and  C7_10 
REMARK    7  A    between atoms: C16_19  and  C17_20 
ROOT
HETATM    1  O1  UNK     1      15.968   6.402  32.747  1.00  0.00    -0.274 OA
HETATM    2  O3  UNK     1      14.367   7.627  33.790  1.00  0.00    -0.259 OA
HETATM    3  C3  UNK     1      16.601   8.431  33.980  1.00  0.00     0.024 A 
HETATM    4  C5  UNK     1      17.907   8.234  33.698  1.00  0.00    -0.037 A 
HETATM    5  C6  UNK     1      18.302   7.082  32.861  1.00  0.00     0.005 A 
HETATM    6  C8  UNK     1      17.318   6.205  32.416  1.00  0.00     0.092 A 
HETATM    7  C9  UNK     1      15.554   7.479  33.511  1.00  0.00     0.295 A 
HETATM    8  C10 UNK     1      19.017   9.122  34.202  1.00  0.00     0.050 C 
HETATM    9  C11 UNK     1      19.623   6.813  32.469  1.00  0.00     0.017 A 
HETATM   10  C12 UNK     1      17.606   5.091  31.622  1.00  0.00     0.075 A 
HETATM   11  C14 UNK     1      18.921   4.841  31.252  1.00  0.00     0.071 A 
HETATM   12  C15 UNK     1      19.930   5.702  31.674  1.00  0.00     0.038 A 
ENDROOT
BRANCH  11  13
HETATM   13  O2  UNK     1      19.222   3.764  30.479  1.00  0.00    -0.347 OA
BRANCH  13  14
HETATM   14  C16 UNK     1      18.269   2.702  30.443  1.00  0.00     0.214 C 
BRANCH  14  15
HETATM   15  C17 UNK     1      18.946   1.451  29.965  1.00  0.00    -0.034 A 
HETATM   16  C18 UNK     1      19.883   0.822  30.777  1.00  0.00     0.009 A 
HETATM   17  C20 UNK     1      20.513  -0.341  30.332  1.00  0.00     0.001 A 
HETATM   18  C22 UNK     1      20.202  -0.866  29.078  1.00  0.00     0.000 A 
HETATM   19  C21 UNK     1      19.261  -0.229  28.268  1.00  0.00     0.001 A 
HETATM   20  C19 UNK     1      18.631   0.933  28.713  1.00  0.00     0.009 A 
ENDBRANCH  14  15
ENDBRANCH  13  14
ENDBRANCH  11  13
BRANCH   3  21
HETATM   21  C1  UNK     1      16.057   9.597  34.767  1.00  0.00     0.045 C 
BRANCH  21  22
HETATM   22  C2  UNK     1      15.742  10.808  33.895  1.00  0.00     0.005 C 
BRANCH  22  23
HETATM   23  C4  UNK     1      15.813  12.135  34.655  1.00  0.00    -0.000 C 
BRANCH  23  24
HETATM   24  C7  UNK     1      16.951  13.012  34.132  1.00  0.00    -0.005 C 
HETATM   25  C13 UNK     1      18.246  12.752  34.886  1.00  0.00     0.005 C 
ENDBRANCH  23  24
ENDBRANCH  22  23
ENDBRANCH  21  22
ENDBRANCH   3  21
TORSDOF 7
ENDMDL
MODEL 2
REMARK VINA RESULT:      -8.0      1.800      9.173
REMARK  7 active torsions:
REMARK  status: ('A' for Active; 'I' for Inactive)
REMARK    1  A    between atoms: C14_17  and  O2_2 
REMARK    2  A    between atoms: C16_19  and  O2_2 
REMARK    3  A    between atoms: C1_4  and  C2_5 
REMARK    4  A    between atoms: C1_4  and  C3_6 
REMARK    5  A    between atoms: C2_5  and  C4_7 
REMARK    6  A    between atoms: C4_7  and  C7_10 
REMARK    7  A    between atoms: C16_19  and  C17_20 
ROOT
HETATM    1  O1  UNK     1      18.116   3.112  33.519  1.00  0.00    -0.274 OA
HETATM    2  O3  UNK     1      18.138   0.885  33.076  1.00  0.00    -0.259 OA
HETATM    3  C3  UNK     1      18.561   2.332  31.231  1.00  0.00     0.024 A 
HETATM    4  C5  UNK     1      18.657   3.601  30.783  1.00  0.00    -0.037 A 
HETATM    5  C6  UNK     1      18.515   4.721  31.737  1.00  0.00     0.005 A 
HETATM    6  C8  UNK     1      18.248   4.436  33.073  1.00  0.00     0.092 A 
HETATM    7  C9  UNK     1      18.262   2.035  32.661  1.00  0.00     0.295 A 
HETATM    8  C10 UNK     1      18.888   3.965  29.337  1.00  0.00     0.050 C 
HETATM    9  C11 UNK     1      18.644   6.074  31.386  1.00  0.00     0.017 A 
HETATM   10  C12 UNK     1      18.099   5.434  34.040  1.00  0.00     0.075 A 
HETATM   11  C14 UNK     1      18.224   6.767  33.668  1.00  0.00     0.071 A 
HETATM   12  C15 UNK     1      18.498   7.087  32.341  1.00  0.00     0.038 A 
ENDROOT
BRANCH  11  13
HETATM   13  O2  UNK     1      18.084   7.753  34.593  1.00  0.00    -0.347 OA
BRANCH  13  14
HETATM   14  C16 UNK     1      16.829   7.838  35.268  1.00  0.00     0.214 C 
BRANCH  14  15
HETATM   15  C17 UNK     1      15.947   8.810  34.540  1.00  0.00    -0.034 A 
HETATM   16  C18 UNK     1      14.776   8.361  33.941  1.00  0.00     0.009 A 
HETATM   17  C20 UNK     1      13.956   9.265  33.264  1.00  0.00     0.001 A 
HETATM   18  C22 UNK     1      14.313  10.611  33.191  1.00  0.00     0.000 A 
HETATM   19  C21 UNK     1      15.491  11.055  33.795  1.00  0.00     0.001 A 
HETATM   20  C19 UNK     1      16.310  10.151  34.472  1.00  0.00     0.009 A 
ENDBRANCH  14  15
ENDBRANCH  13  14
ENDBRANCH  11  13
BRANCH   3  21
HETATM   21  C1  UNK     1      18.748   1.102  30.379  1.00  0.00     0.045 C 
BRANCH  21  22
HETATM   22  C2  UNK     1      20.148   0.509  30.488  1.00  0.00     0.005 C 
BRANCH  22  23
HETATM   23  C4  UNK     1      20.545  -0.331  29.271  1.00  0.00    -0.000 C 
BRANCH  23  24
HETATM   24  C7  UNK     1      20.199  -1.806  29.480  1.00  0.00    -0.005 C 
HETATM   25  C13 UNK     1      20.472  -2.245  30.911  1.00  0.00     0.005 C 
ENDBRANCH  23  24
ENDBRANCH  22  23
ENDBRANCH  21  22
ENDBRANCH   3  21
TORSDOF 7
ENDMDL
MODEL 3
REMARK VINA RESULT:      -7.8      9.392     14.728
REMARK  7 active torsions:
REMARK  status: ('A' for Active; 'I' for Inactive)
REMARK    1  A    between atoms: C14_17  and  O2_2 
REMARK    2  A    between atoms: C16_19  and  O2_2 
REMARK    3  A    between atoms: C1_4  and  C2_5 
REMARK    4  A    between atoms: C1_4  and  C3_6 
REMARK    5  A    between atoms: C2_5  and  C4_7 
REMARK    6  A    between atoms: C4_7  and  C7_10 
REMARK    7  A    between atoms: C16_19  and  C17_20 
ROOT
HETATM    1  O1  UNK     1      18.612  -6.619  35.893  1.00  0.00    -0.274 OA
HETATM    2  O3  UNK     1      17.686  -8.691  35.910  1.00  0.00    -0.259 OA
HETATM    3  C3  UNK     1      19.234  -8.213  37.657  1.00  0.00     0.024 A 
HETATM    4  C5  UNK     1      20.095  -7.326  38.199  1.00  0.00    -0.037 A 
HETATM    5  C6  UNK     1      20.224  -5.981  37.601  1.00  0.00     0.005 A 
HETATM    6  C8  UNK     1      19.478  -5.675  36.466  1.00  0.00     0.092 A 
HETATM    7  C9  UNK     1      18.447  -7.883  36.434  1.00  0.00     0.295 A 
HETATM    8  C10 UNK     1      20.967  -7.626  39.393  1.00  0.00     0.050 C 
HETATM    9  C11 UNK     1      21.053  -4.970  38.113  1.00  0.00     0.017 A 
HETATM   10  C12 UNK     1      19.541  -4.428  35.838  1.00  0.00     0.075 A 
HETATM   11  C14 UNK     1      20.373  -3.445  36.358  1.00  0.00     0.071 A 
HETATM   12  C15 UNK     1      21.128  -3.715  37.496  1.00  0.00     0.038 A 
ENDROOT
BRANCH  11  13
HETATM   13  O2  UNK     1      20.448  -2.225  35.763  1.00  0.00    -0.347 OA
BRANCH  13  14
HETATM   14  C16 UNK     1      19.260  -1.729  35.145  1.00  0.00     0.214 C 
BRANCH  14  15
HETATM   15  C17 UNK     1      18.690  -0.630  35.992  1.00  0.00    -0.034 A 
HETATM   16  C18 UNK     1      17.889  -0.946  37.084  1.00  0.00     0.009 A 
HETATM   17  C20 UNK     1      17.359   0.076  37.870  1.00  0.00     0.001 A 
HETATM   18  C22 UNK     1      17.632   1.408  37.561  1.00  0.00     0.000 A 
HETATM   19  C21 UNK     1      18.436   1.719  36.464  1.00  0.00     0.001 A 
HETATM   20  C19 UNK     1      18.967   0.697  35.677  1.00  0.00     0.009 A 
ENDBRANCH  14  15
ENDBRANCH  13  14
ENDBRANCH  11  13
BRANCH   3  21
HETATM   21  C1  UNK     1      18.959  -9.591  38.204  1.00  0.00     0.045 C 
BRANCH  21  22
HETATM   22  C2  UNK     1      19.606 -10.698  37.380  1.00  0.00     0.005 C 
BRANCH  22  23
HETATM   23  C4  UNK     1      21.103 -10.479  37.143  1.00  0.00    -0.000 C 
BRANCH  23  24
HETATM   24  C7  UNK     1      21.446 -10.570  35.655  1.00  0.00    -0.005 C 
HETATM   25  C13 UNK     1      21.545  -9.191  35.021  1.00  0.00     0.005 C 
ENDBRANCH  23  24
ENDBRANCH  22  23
ENDBRANCH  21  22
ENDBRANCH   3  21
TORSDOF 7
ENDMDL
MODEL 4
REMARK VINA RESULT:      -7.8      3.641      9.035
REMARK  7 active torsions:
REMARK  status: ('A' for Active; 'I' for Inactive)
REMARK    1  A    between atoms: C14_17  and  O2_2 
REMARK    2  A    between atoms: C16_19  and  O2_2 
REMARK    3  A    between atoms: C1_4  and  C2_5 
REMARK    4  A    between atoms: C1_4  and  C3_6 
REMARK    5  A    between atoms: C2_5  and  C4_7 
REMARK    6  A    between atoms: C4_7  and  C7_10 
REMARK    7  A    between atoms: C16_19  and  C17_20 
ROOT
HETATM    1  O1  UNK     1      17.719   2.196  33.883  1.00  0.00    -0.274 OA
HETATM    2  O3  UNK     1      17.258   1.170  35.855  1.00  0.00    -0.259 OA
HETATM    3  C3  UNK     1      18.262  -0.183  34.171  1.00  0.00     0.024 A 
HETATM    4  C5  UNK     1      18.721  -0.264  32.904  1.00  0.00    -0.037 A 
HETATM    5  C6  UNK     1      18.729   0.946  32.056  1.00  0.00     0.005 A 
HETATM    6  C8  UNK     1      18.226   2.135  32.576  1.00  0.00     0.092 A 
HETATM    7  C9  UNK     1      17.711   1.091  34.717  1.00  0.00     0.295 A 
HETATM    8  C10 UNK     1      19.224  -1.540  32.275  1.00  0.00     0.050 C 
HETATM    9  C11 UNK     1      19.229   0.983  30.745  1.00  0.00     0.017 A 
HETATM   10  C12 UNK     1      18.196   3.324  31.843  1.00  0.00     0.075 A 
HETATM   11  C14 UNK     1      18.689   3.335  30.543  1.00  0.00     0.071 A 
HETATM   12  C15 UNK     1      19.207   2.165  29.995  1.00  0.00     0.038 A 
ENDROOT
BRANCH  11  13
HETATM   13  O2  UNK     1      18.671   4.481  29.813  1.00  0.00    -0.347 OA
BRANCH  13  14
HETATM   14  C16 UNK     1      19.708   5.430  30.065  1.00  0.00     0.214 C 
BRANCH  14  15
HETATM   15  C17 UNK     1      19.347   6.242  31.274  1.00  0.00    -0.034 A 
HETATM   16  C18 UNK     1      18.109   6.871  31.336  1.00  0.00     0.009 A 
HETATM   17  C20 UNK     1      17.774   7.626  32.460  1.00  0.00     0.001 A 
HETATM   18  C22 UNK     1      18.678   7.747  33.515  1.00  0.00     0.000 A 
HETATM   19  C21 UNK     1      19.919   7.112  33.446  1.00  0.00     0.001 A 
HETATM   20  C19 UNK     1      20.255   6.357  32.322  1.00  0.00     0.009 A 
ENDBRANCH  14  15
ENDBRANCH  13  14
ENDBRANCH  11  13
BRANCH   3  21
HETATM   21  C1  UNK     1      18.256  -1.322  35.159  1.00  0.00     0.045 C 
BRANCH  21  22
HETATM   22  C2  UNK     1      19.559  -1.437  35.943  1.00  0.00     0.005 C 
BRANCH  22  23
HETATM   23  C4  UNK     1      20.290  -2.762  35.710  1.00  0.00    -0.000 C 
BRANCH  23  24
HETATM   24  C7  UNK     1      19.909  -3.798  36.768  1.00  0.00    -0.005 C 
HETATM   25  C13 UNK     1      19.834  -5.197  36.177  1.00  0.00     0.005 C 
ENDBRANCH  23  24
ENDBRANCH  22  23
ENDBRANCH  21  22
ENDBRANCH   3  21
TORSDOF 7
ENDMDL
MODEL 5
REMARK VINA RESULT:      -7.7      7.505      9.913
REMARK  7 active torsions:
REMARK  status: ('A' for Active; 'I' for Inactive)
REMARK    1  A    between atoms: C14_17  and  O2_2 
REMARK    2  A    between atoms: C16_19  and  O2_2 
REMARK    3  A    between atoms: C1_4  and  C2_5 
REMARK    4  A    between atoms: C1_4  and  C3_6 
REMARK    5  A    between atoms: C2_5  and  C4_7 
REMARK    6  A    between atoms: C4_7  and  C7_10 
REMARK    7  A    between atoms: C16_19  and  C17_20 
ROOT
HETATM    1  O1  UNK     1      19.460  -1.307  33.756  1.00  0.00    -0.274 OA
HETATM    2  O3  UNK     1      18.838   0.341  32.324  1.00  0.00    -0.259 OA
HETATM    3  C3  UNK     1      18.169   0.609  34.595  1.00  0.00     0.024 A 
HETATM    4  C5  UNK     1      18.144   0.088  35.839  1.00  0.00    -0.037 A 
HETATM    5  C6  UNK     1      18.839  -1.189  36.106  1.00  0.00     0.005 A 
HETATM    6  C8  UNK     1      19.472  -1.843  35.053  1.00  0.00     0.092 A 
HETATM    7  C9  UNK     1      18.838  -0.104  33.468  1.00  0.00     0.295 A 
HETATM    8  C10 UNK     1      17.425   0.727  37.001  1.00  0.00     0.050 C 
HETATM    9  C11 UNK     1      18.915  -1.793  37.371  1.00  0.00     0.017 A 
HETATM   10  C12 UNK     1      20.151  -3.053  35.218  1.00  0.00     0.075 A 
HETATM   11  C14 UNK     1      20.208  -3.635  36.478  1.00  0.00     0.071 A 
HETATM   12  C15 UNK     1      19.592  -3.004  37.555  1.00  0.00     0.038 A 
ENDROOT
BRANCH  11  13
HETATM   13  O2  UNK     1      20.865  -4.812  36.661  1.00  0.00    -0.347 OA
BRANCH  13  14
HETATM   14  C16 UNK     1      21.498  -5.014  37.924  1.00  0.00     0.214 C 
BRANCH  14  15
HETATM   15  C17 UNK     1      21.127  -6.371  38.446  1.00  0.00    -0.034 A 
HETATM   16  C18 UNK     1      22.083  -7.143  39.097  1.00  0.00     0.009 A 
HETATM   17  C20 UNK     1      21.738  -8.405  39.581  1.00  0.00     0.001 A 
HETATM   18  C22 UNK     1      20.440  -8.887  39.412  1.00  0.00     0.000 A 
HETATM   19  C21 UNK     1      19.486  -8.107  38.757  1.00  0.00     0.001 A 
HETATM   20  C19 UNK     1      19.831  -6.845  38.273  1.00  0.00     0.009 A 
ENDBRANCH  14  15
ENDBRANCH  13  14
ENDBRANCH  11  13
BRANCH   3  21
HETATM   21  C1  UNK     1      17.557   1.930  34.202  1.00  0.00     0.045 C 
BRANCH  21  22
HETATM   22  C2  UNK     1      18.502   3.108  34.406  1.00  0.00     0.005 C 
BRANCH  22  23
HETATM   23  C4  UNK     1      18.299   4.230  33.384  1.00  0.00    -0.000 C 
BRANCH  23  24
HETATM   24  C7  UNK     1      19.090   5.480  33.771  1.00  0.00    -0.005 C 
HETATM   25  C13 UNK     1      19.482   6.293  32.546  1.00  0.00     0.005 C 
ENDBRANCH  23  24
ENDBRANCH  22  23
ENDBRANCH  21  22
ENDBRANCH   3  21
TORSDOF 7
ENDMDL
MODEL 6
REMARK VINA RESULT:      -7.7     15.581     18.159
REMARK  7 active torsions:
REMARK  status: ('A' for Active; 'I' for Inactive)
REMARK    1  A    between atoms: C14_17  and  O2_2 
REMARK    2  A    between atoms: C16_19  and  O2_2 
REMARK    3  A    between atoms: C1_4  and  C2_5 
REMARK    4  A    between atoms: C1_4  and  C3_6 
REMARK    5  A    between atoms: C2_5  and  C4_7 
REMARK    6  A    between atoms: C4_7  and  C7_10 
REMARK    7  A    between atoms: C16_19  and  C17_20 
ROOT
HETATM    1  O1  UNK     1      28.163  -5.030  39.219  1.00  0.00    -0.274 OA
HETATM    2  O3  UNK     1      29.888  -3.602  39.588  1.00  0.00    -0.259 OA
HETATM    3  C3  UNK     1      30.435  -5.667  38.534  1.00  0.00     0.024 A 
HETATM    4  C5  UNK     1      30.000  -6.865  38.090  1.00  0.00    -0.037 A 
HETATM    5  C6  UNK     1      28.559  -7.187  38.166  1.00  0.00     0.005 A 
HETATM    6  C8  UNK     1      27.691  -6.257  38.729  1.00  0.00     0.092 A 
HETATM    7  C9  UNK     1      29.501  -4.681  39.149  1.00  0.00     0.295 A 
HETATM    8  C10 UNK     1      30.906  -7.929  37.523  1.00  0.00     0.050 C 
HETATM    9  C11 UNK     1      27.995  -8.382  37.690  1.00  0.00     0.017 A 
HETATM   10  C12 UNK     1      26.316  -6.482  38.840  1.00  0.00     0.075 A 
HETATM   11  C14 UNK     1      25.781  -7.675  38.368  1.00  0.00     0.071 A 
HETATM   12  C15 UNK     1      26.620  -8.624  37.792  1.00  0.00     0.038 A 
ENDROOT
BRANCH  11  13
HETATM   13  O2  UNK     1      24.446  -7.913  38.465  1.00  0.00    -0.347 OA
BRANCH  13  14
HETATM   14  C16 UNK     1      23.668  -6.965  39.196  1.00  0.00     0.214 C 
BRANCH  14  15
HETATM   15  C17 UNK     1      22.230  -7.394  39.179  1.00  0.00    -0.034 A 
HETATM   16  C18 UNK     1      21.906  -8.727  39.406  1.00  0.00     0.009 A 
HETATM   17  C20 UNK     1      20.570  -9.126  39.390  1.00  0.00     0.001 A 
HETATM   18  C22 UNK     1      19.565  -8.190  39.146  1.00  0.00     0.000 A 
HETATM   19  C21 UNK     1      19.897  -6.853  38.918  1.00  0.00     0.001 A 
HETATM   20  C19 UNK     1      21.234  -6.455  38.934  1.00  0.00     0.009 A 
ENDBRANCH  14  15
ENDBRANCH  13  14
ENDBRANCH  11  13
BRANCH   3  21
HETATM   21  C1  UNK     1      31.863  -5.188  38.458  1.00  0.00     0.045 C 
BRANCH  21  22
HETATM   22  C2  UNK     1      32.191  -4.503  37.136  1.00  0.00     0.005 C 
BRANCH  22  23
HETATM   23  C4  UNK     1      33.393  -5.123  36.416  1.00  0.00    -0.000 C 
BRANCH  23  24
HETATM   24  C7  UNK     1      33.011  -5.603  35.016  1.00  0.00    -0.005 C 
HETATM   25  C13 UNK     1      31.519  -5.449  34.761  1.00  0.00     0.005 C 
ENDBRANCH  23  24
ENDBRANCH  22  23
ENDBRANCH  21  22
ENDBRANCH   3  21
TORSDOF 7
ENDMDL
MODEL 7
REMARK VINA RESULT:      -7.6     15.473     18.079
REMARK  7 active torsions:
REMARK  status: ('A' for Active; 'I' for Inactive)
REMARK    1  A    between atoms: C14_17  and  O2_2 
REMARK    2  A    between atoms: C16_19  and  O2_2 
REMARK    3  A    between atoms: C1_4  and  C2_5 
REMARK    4  A    between atoms: C1_4  and  C3_6 
REMARK    5  A    between atoms: C2_5  and  C4_7 
REMARK    6  A    between atoms: C4_7  and  C7_10 
REMARK    7  A    between atoms: C16_19  and  C17_20 
ROOT
HETATM    1  O1  UNK     1      26.131  -5.187  38.801  1.00  0.00    -0.274 OA
HETATM    2  O3  UNK     1      23.875  -5.367  38.983  1.00  0.00    -0.259 OA
HETATM    3  C3  UNK     1      25.095  -7.412  38.924  1.00  0.00     0.024 A 
HETATM    4  C5  UNK     1      26.298  -8.013  38.804  1.00  0.00    -0.037 A 
HETATM    5  C6  UNK     1      27.518  -7.184  38.711  1.00  0.00     0.005 A 
HETATM    6  C8  UNK     1      27.391  -5.798  38.712  1.00  0.00     0.092 A 
HETATM    7  C9  UNK     1      24.966  -5.926  38.910  1.00  0.00     0.295 A 
HETATM    8  C10 UNK     1      26.485  -9.509  38.741  1.00  0.00     0.050 C 
HETATM    9  C11 UNK     1      28.819  -7.707  38.632  1.00  0.00     0.017 A 
HETATM   10  C12 UNK     1      28.492  -4.942  38.627  1.00  0.00     0.075 A 
HETATM   11  C14 UNK     1      29.769  -5.481  38.543  1.00  0.00     0.071 A 
HETATM   12  C15 UNK     1      29.933  -6.864  38.547  1.00  0.00     0.038 A 
ENDROOT
BRANCH  11  13
HETATM   13  O2  UNK     1      30.854  -4.665  38.461  1.00  0.00    -0.347 OA
BRANCH  13  14
HETATM   14  C16 UNK     1      31.205  -4.179  37.165  1.00  0.00     0.214 C 
BRANCH  14  15
HETATM   15  C17 UNK     1      32.587  -4.653  36.822  1.00  0.00    -0.034 A 
HETATM   16  C18 UNK     1      33.218  -5.584  37.639  1.00  0.00     0.009 A 
HETATM   17  C20 UNK     1      34.503  -6.024  37.320  1.00  0.00     0.001 A 
HETATM   18  C22 UNK     1      35.148  -5.531  36.185  1.00  0.00     0.000 A 
HETATM   19  C21 UNK     1      34.508  -4.596  35.370  1.00  0.00     0.001 A 
HETATM   20  C19 UNK     1      33.223  -4.156  35.689  1.00  0.00     0.009 A 
ENDBRANCH  14  15
ENDBRANCH  13  14
ENDBRANCH  11  13
BRANCH   3  21
HETATM   21  C1  UNK     1      23.783  -8.136  39.090  1.00  0.00     0.045 C 
BRANCH  21  22
HETATM   22  C2  UNK     1      23.053  -8.356  37.771  1.00  0.00     0.005 C 
BRANCH  22  23
HETATM   23  C4  UNK     1      21.541  -8.135  37.873  1.00  0.00    -0.000 C 
BRANCH  23  24
HETATM   24  C7  UNK     1      21.125  -7.811  39.308  1.00  0.00    -0.005 C 
HETATM   25  C13 UNK     1      20.110  -6.679  39.352  1.00  0.00     0.005 C 
ENDBRANCH  23  24
ENDBRANCH  22  23
ENDBRANCH  21  22
ENDBRANCH   3  21
TORSDOF 7
ENDMDL
MODEL 8
REMARK VINA RESULT:      -7.6      9.565     15.141
REMARK  7 active torsions:
REMARK  status: ('A' for Active; 'I' for Inactive)
REMARK    1  A    between atoms: C14_17  and  O2_2 
REMARK    2  A    between atoms: C16_19  and  O2_2 
REMARK    3  A    between atoms: C1_4  and  C2_5 
REMARK    4  A    between atoms: C1_4  and  C3_6 
REMARK    5  A    between atoms: C2_5  and  C4_7 
REMARK    6  A    between atoms: C4_7  and  C7_10 
REMARK    7  A    between atoms: C16_19  and  C17_20 
ROOT
HETATM    1  O1  UNK     1      20.670  -7.085  34.840  1.00  0.00    -0.274 OA
HETATM    2  O3  UNK     1      21.341  -9.134  34.132  1.00  0.00    -0.259 OA
HETATM    3  C3  UNK     1      21.898  -8.559  36.375  1.00  0.00     0.024 A 
HETATM    4  C5  UNK     1      21.869  -7.623  37.348  1.00  0.00    -0.037 A 
HETATM    5  C6  UNK     1      21.176  -6.341  37.101  1.00  0.00     0.005 A 
HETATM    6  C8  UNK     1      20.601  -6.117  35.853  1.00  0.00     0.092 A 
HETATM    7  C9  UNK     1      21.292  -8.306  35.036  1.00  0.00     0.295 A 
HETATM    8  C10 UNK     1      22.524  -7.794  38.696  1.00  0.00     0.050 C 
HETATM    9  C11 UNK     1      21.045  -5.322  38.058  1.00  0.00     0.017 A 
HETATM   10  C12 UNK     1      19.928  -4.933  35.537  1.00  0.00     0.075 A 
HETATM   11  C14 UNK     1      19.817  -3.935  36.498  1.00  0.00     0.071 A 
HETATM   12  C15 UNK     1      20.374  -4.130  37.758  1.00  0.00     0.038 A 
ENDROOT
BRANCH  11  13
HETATM   13  O2  UNK     1      19.166  -2.777  36.211  1.00  0.00    -0.347 OA
BRANCH  13  14
HETATM   14  C16 UNK     1      18.824  -1.934  37.311  1.00  0.00     0.214 C 
BRANCH  14  15
HETATM   15  C17 UNK     1      17.758  -0.971  36.876  1.00  0.00    -0.034 A 
HETATM   16  C18 UNK     1      17.500   0.161  37.641  1.00  0.00     0.009 A 
HETATM   17  C20 UNK     1      16.508   1.056  37.237  1.00  0.00     0.001 A 
HETATM   18  C22 UNK     1      15.781   0.812  36.072  1.00  0.00     0.000 A 
HETATM   19  C21 UNK     1      16.046  -0.327  35.310  1.00  0.00     0.001 A 
HETATM   20  C19 UNK     1      17.037  -1.221  35.713  1.00  0.00     0.009 A 
ENDBRANCH  14  15
ENDBRANCH  13  14
ENDBRANCH  11  13
BRANCH   3  21
HETATM   21  C1  UNK     1      22.514  -9.928  36.516  1.00  0.00     0.045 C 
BRANCH  21  22
HETATM   22  C2  UNK     1      21.476 -11.041  36.613  1.00  0.00     0.005 C 
BRANCH  22  23
HETATM   23  C4  UNK     1      20.530 -10.883  37.807  1.00  0.00    -0.000 C 
BRANCH  23  24
HETATM   24  C7  UNK     1      19.145 -10.416  37.357  1.00  0.00    -0.005 C 
HETATM   25  C13 UNK     1      18.726  -9.142  38.075  1.00  0.00     0.005 C 
ENDBRANCH  23  24
ENDBRANCH  22  23
ENDBRANCH  21  22
ENDBRANCH   3  21
TORSDOF 7
ENDMDL
MODEL 9
REMARK VINA RESULT:      -7.6      5.887     10.901
REMARK  7 active torsions:
REMARK  status: ('A' for Active; 'I' for Inactive)
REMARK    1  A    between atoms: C14_17  and  O2_2 
REMARK    2  A    between atoms: C16_19  and  O2_2 
REMARK    3  A    between atoms: C1_4  and  C2_5 
REMARK    4  A    between atoms: C1_4  and  C3_6 
REMARK    5  A    between atoms: C2_5  and  C4_7 
REMARK    6  A    between atoms: C4_7  and  C7_10 
REMARK    7  A    between atoms: C16_19  and  C17_20 
ROOT
HETATM    1  O1  UNK     1      19.705  -1.752  33.760  1.00  0.00    -0.274 OA
HETATM    2  O3  UNK     1      20.732  -3.760  34.024  1.00  0.00    -0.259 OA
HETATM    3  C3  UNK     1      19.681  -2.850  35.959  1.00  0.00     0.024 A 
HETATM    4  C5  UNK     1      19.002  -1.818  36.502  1.00  0.00    -0.037 A 
HETATM    5  C6  UNK     1      18.600  -0.682  35.646  1.00  0.00     0.005 A 
HETATM    6  C8  UNK     1      18.968  -0.689  34.304  1.00  0.00     0.092 A 
HETATM    7  C9  UNK     1      20.084  -2.844  34.523  1.00  0.00     0.295 A 
HETATM    8  C10 UNK     1      18.629  -1.735  37.962  1.00  0.00     0.050 C 
HETATM    9  C11 UNK     1      17.852   0.416  36.098  1.00  0.00     0.017 A 
HETATM   10  C12 UNK     1      18.630   0.344  33.426  1.00  0.00     0.075 A 
HETATM   11  C14 UNK     1      17.894   1.425  33.897  1.00  0.00     0.071 A 
HETATM   12  C15 UNK     1      17.504   1.460  35.233  1.00  0.00     0.038 A 
ENDROOT
BRANCH  11  13
HETATM   13  O2  UNK     1      17.554   2.440  33.059  1.00  0.00    -0.347 OA
BRANCH  13  14
HETATM   14  C16 UNK     1      18.316   2.576  31.860  1.00  0.00     0.214 C 
BRANCH  14  15
HETATM   15  C17 UNK     1      18.418   4.032  31.507  1.00  0.00    -0.034 A 
HETATM   16  C18 UNK     1      19.075   4.414  30.343  1.00  0.00     0.009 A 
HETATM   17  C20 UNK     1      19.170   5.766  30.016  1.00  0.00     0.001 A 
HETATM   18  C22 UNK     1      18.607   6.728  30.855  1.00  0.00     0.000 A 
HETATM   19  C21 UNK     1      17.949   6.337  32.022  1.00  0.00     0.001 A 
HETATM   20  C19 UNK     1      17.855   4.985  32.349  1.00  0.00     0.009 A 
ENDBRANCH  14  15
ENDBRANCH  13  14
ENDBRANCH  11  13
BRANCH   3  21
HETATM   21  C1  UNK     1      20.095  -4.095  36.703  1.00  0.00     0.045 C 
BRANCH  21  22
HETATM   22  C2  UNK     1      19.048  -5.201  36.640  1.00  0.00     0.005 C 
BRANCH  22  23
HETATM   23  C4  UNK     1      19.628  -6.597  36.886  1.00  0.00    -0.000 C 
BRANCH  23  24
HETATM   24  C7  UNK     1      18.950  -7.275  38.077  1.00  0.00    -0.005 C 
HETATM   25  C13 UNK     1      19.942  -7.561  39.194  1.00  0.00     0.005 C 
ENDBRANCH  23  24
ENDBRANCH  22  23
ENDBRANCH  21  22
ENDBRANCH   3  21
TORSDOF 7
ENDMDL
MODEL 10
REMARK VINA RESULT:      -7.5     21.823     24.287
REMARK  7 active torsions:
REMARK  status: ('A' for Active; 'I' for Inactive)
REMARK    1  A    between atoms: C14_17  and  O2_2 
REMARK    2  A    between atoms: C16_19  and  O2_2 
REMARK    3  A    between atoms: C1_4  and  C2_5 
REMARK    4  A    between atoms: C1_4  and  C3_6 
REMARK    5  A    between atoms: C2_5  and  C4_7 
REMARK    6  A    between atoms: C4_7  and  C7_10 
REMARK    7  A    between atoms: C16_19  and  C17_20 
ROOT
HETATM    1  O1  UNK     1      12.569   8.210  10.278  1.00  0.00    -0.274 OA
HETATM    2  O3  UNK     1      13.813   9.563  11.611  1.00  0.00    -0.259 OA
HETATM    3  C3  UNK     1      14.956   7.728  10.611  1.00  0.00     0.024 A 
HETATM    4  C5  UNK     1      14.874   6.625   9.836  1.00  0.00    -0.037 A 
HETATM    5  C6  UNK     1      13.586   6.282   9.196  1.00  0.00     0.005 A 
HETATM    6  C8  UNK     1      12.478   7.087   9.442  1.00  0.00     0.092 A 
HETATM    7  C9  UNK     1      13.760   8.578  10.880  1.00  0.00     0.295 A 
HETATM    8  C10 UNK     1      16.030   5.690   9.584  1.00  0.00     0.050 C 
HETATM    9  C11 UNK     1      13.404   5.188   8.336  1.00  0.00     0.017 A 
HETATM   10  C12 UNK     1      11.224   6.833   8.878  1.00  0.00     0.075 A 
HETATM   11  C14 UNK     1      11.065   5.741   8.034  1.00  0.00     0.071 A 
HETATM   12  C15 UNK     1      12.156   4.919   7.762  1.00  0.00     0.038 A 
ENDROOT
BRANCH  11  13
HETATM   13  O2  UNK     1       9.855   5.477   7.475  1.00  0.00    -0.347 OA
BRANCH  13  14
HETATM   14  C16 UNK     1       8.901   6.540   7.458  1.00  0.00     0.214 C 
BRANCH  14  15
HETATM   15  C17 UNK     1       7.925   6.339   8.580  1.00  0.00    -0.034 A 
HETATM   16  C18 UNK     1       7.589   5.051   8.979  1.00  0.00     0.009 A 
HETATM   17  C20 UNK     1       6.681   4.865  10.021  1.00  0.00     0.001 A 
HETATM   18  C22 UNK     1       6.114   5.969  10.658  1.00  0.00     0.000 A 
HETATM   19  C21 UNK     1       6.456   7.260  10.252  1.00  0.00     0.001 A 
HETATM   20  C19 UNK     1       7.364   7.446   9.209  1.00  0.00     0.009 A 
ENDBRANCH  14  15
ENDBRANCH  13  14
ENDBRANCH  11  13
BRANCH   3  21
HETATM   21  C1  UNK     1      16.218   8.226  11.268  1.00  0.00     0.045 C 
BRANCH  21  22
HETATM   22  C2  UNK     1      17.174   8.898  10.289  1.00  0.00     0.005 C 
BRANCH  22  23
HETATM   23  C4  UNK     1      16.960  10.410  10.177  1.00  0.00    -0.000 C 
BRANCH  23  24
HETATM   24  C7  UNK     1      16.794  10.838   8.718  1.00  0.00    -0.005 C 
HETATM   25  C13 UNK     1      15.384  10.569   8.216  1.00  0.00     0.005 C 
ENDBRANCH  23  24
ENDBRANCH  22  23
ENDBRANCH  21  22
ENDBRANCH   3  21
TORSDOF 7
ENDMDL
