MODEL 1
REMARK VINA RESULT:     -10.2      0.000      0.000
REMARK  4 active torsions:
REMARK  status: ('A' for Active; 'I' for Inactive)
REMARK    1  A    between atoms: C6_13  and  O2_4 
REMARK    2  A    between atoms: C11_18  and  N2_7 
REMARK    3  A    between atoms: C13_20  and  N2_7 
REMARK    4  A    between atoms: C2_9  and  C5_12 
ROOT
HETATM    1  S1  UNK     1      17.939  -1.680  37.475  1.00  0.00    -0.061 SA
HETATM    2  N1  UNK     1      19.572  -2.337  35.582  1.00  0.00    -0.223 NA
HETATM    3  C5  UNK     1      18.766  -1.323  35.114  1.00  0.00     0.082 A 
HETATM    4  C11 UNK     1      19.225  -2.609  36.820  1.00  0.00     0.171 A 
HETATM    5  C12 UNK     1      17.824  -0.835  35.987  1.00  0.00     0.086 A 
ENDROOT
BRANCH   3   6
HETATM    6  C2  UNK     1      18.955  -0.846  33.767  1.00  0.00     0.070 A 
HETATM    7  C4  UNK     1      19.508  -1.613  32.814  1.00  0.00     0.034 A 
HETATM    8  C1  UNK     1      19.693  -1.128  31.456  1.00  0.00     0.002 A 
HETATM    9  C7  UNK     1      20.268  -1.913  30.454  1.00  0.00     0.014 A 
HETATM   10  C3  UNK     1      19.279   0.160  31.145  1.00  0.00     0.123 A 
HETATM   11  C10 UNK     1      20.419  -1.398  29.163  1.00  0.00     0.004 A 
HETATM   12  C9  UNK     1      19.996  -0.100  28.868  1.00  0.00     0.040 A 
HETATM   13  C6  UNK     1      19.422   0.688  29.863  1.00  0.00     0.102 A 
HETATM   14  O1  UNK     1      18.699   0.979  32.131  1.00  0.00    -0.271 OA
HETATM   15  C8  UNK     1      18.524   0.547  33.444  1.00  0.00     0.301 A 
HETATM   16  O3  UNK     1      18.039   1.295  34.288  1.00  0.00    -0.259 OA
BRANCH  13  17
HETATM   17  O2  UNK     1      19.011   1.951  29.572  1.00  0.00    -0.353 OA
HETATM   18  C19 UNK     1      17.926   2.087  28.655  1.00  0.00     0.210 C 
ENDBRANCH  13  17
ENDBRANCH   3   6
BRANCH   4  19
HETATM   19  N2  UNK     1      19.816  -3.562  37.590  1.00  0.00    -0.335 N 
HETATM   20  H6  UNK     1      19.925  -3.322  38.574  1.00  0.00     0.168 HD
BRANCH  19  21
HETATM   21  C13 UNK     1      20.344  -4.879  37.329  1.00  0.00     0.034 A 
HETATM   22  C14 UNK     1      21.312  -5.386  38.170  1.00  0.00     0.031 A 
HETATM   23  C16 UNK     1      21.823  -6.659  37.918  1.00  0.00     0.021 A 
HETATM   24  C18 UNK     1      21.353  -7.396  36.830  1.00  0.00     0.011 A 
HETATM   25 Br1  UNK     1      22.044  -9.121  36.488  1.00  0.00    -0.051 Br
HETATM   26  C17 UNK     1      20.372  -6.859  35.996  1.00  0.00     0.021 A 
HETATM   27  C15 UNK     1      19.862  -5.585  36.248  1.00  0.00     0.031 A 
ENDBRANCH  19  21
ENDBRANCH   4  19
TORSDOF 4
ENDMDL
MODEL 2
REMARK VINA RESULT:      -9.3      3.161      5.031
REMARK  4 active torsions:
REMARK  status: ('A' for Active; 'I' for Inactive)
REMARK    1  A    between atoms: C6_13  and  O2_4 
REMARK    2  A    between atoms: C11_18  and  N2_7 
REMARK    3  A    between atoms: C13_20  and  N2_7 
REMARK    4  A    between atoms: C2_9  and  C5_12 
ROOT
HETATM    1  S1  UNK     1      21.438  -6.093  38.063  1.00  0.00    -0.061 SA
HETATM    2  N1  UNK     1      19.994  -5.380  36.041  1.00  0.00    -0.223 NA
HETATM    3  C5  UNK     1      20.251  -4.256  36.796  1.00  0.00     0.082 A 
HETATM    4  C11 UNK     1      20.572  -6.410  36.615  1.00  0.00     0.171 A 
HETATM    5  C12 UNK     1      21.014  -4.437  37.925  1.00  0.00     0.086 A 
ENDROOT
BRANCH   3   6
HETATM    6  C2  UNK     1      19.717  -2.988  36.367  1.00  0.00     0.070 A 
HETATM    7  C4  UNK     1      18.938  -2.240  37.165  1.00  0.00     0.034 A 
HETATM    8  C1  UNK     1      18.406  -0.960  36.730  1.00  0.00     0.002 A 
HETATM    9  C7  UNK     1      17.593  -0.172  37.547  1.00  0.00     0.014 A 
HETATM   10  C3  UNK     1      18.720  -0.504  35.456  1.00  0.00     0.123 A 
HETATM   11  C10 UNK     1      17.110   1.054  37.079  1.00  0.00     0.004 A 
HETATM   12  C9  UNK     1      17.437   1.497  35.796  1.00  0.00     0.040 A 
HETATM   13  C6  UNK     1      18.247   0.715  34.975  1.00  0.00     0.102 A 
HETATM   14  O1  UNK     1      19.533  -1.275  34.606  1.00  0.00    -0.271 OA
HETATM   15  C8  UNK     1      20.045  -2.512  34.990  1.00  0.00     0.301 A 
HETATM   16  O3  UNK     1      20.730  -3.174  34.215  1.00  0.00    -0.259 OA
BRANCH  13  17
HETATM   17  O2  UNK     1      18.564   1.149  33.726  1.00  0.00    -0.353 OA
HETATM   18  C19 UNK     1      18.205   2.491  33.393  1.00  0.00     0.210 C 
ENDBRANCH  13  17
ENDBRANCH   3   6
BRANCH   4  19
HETATM   19  N2  UNK     1      20.523  -7.682  36.135  1.00  0.00    -0.335 N 
HETATM   20  H6  UNK     1      19.637  -7.955  35.713  1.00  0.00     0.168 HD
BRANCH  19  21
HETATM   21  C13 UNK     1      21.466  -8.773  36.081  1.00  0.00     0.034 A 
HETATM   22  C14 UNK     1      21.156  -9.883  35.325  1.00  0.00     0.031 A 
HETATM   23  C16 UNK     1      22.068 -10.938  35.274  1.00  0.00     0.021 A 
HETATM   24  C18 UNK     1      23.268 -10.857  35.980  1.00  0.00     0.011 A 
HETATM   25 Br1  UNK     1      24.503 -12.286  35.910  1.00  0.00    -0.051 Br
HETATM   26  C17 UNK     1      23.556  -9.722  36.738  1.00  0.00     0.021 A 
HETATM   27  C15 UNK     1      22.645  -8.667  36.789  1.00  0.00     0.031 A 
ENDBRANCH  19  21
ENDBRANCH   4  19
TORSDOF 4
ENDMDL
MODEL 3
REMARK VINA RESULT:      -9.3      7.167     10.425
REMARK  4 active torsions:
REMARK  status: ('A' for Active; 'I' for Inactive)
REMARK    1  A    between atoms: C6_13  and  O2_4 
REMARK    2  A    between atoms: C11_18  and  N2_7 
REMARK    3  A    between atoms: C13_20  and  N2_7 
REMARK    4  A    between atoms: C2_9  and  C5_12 
ROOT
HETATM    1  S1  UNK     1      18.273   6.583  30.719  1.00  0.00    -0.061 SA
HETATM    2  N1  UNK     1      17.437   4.616  32.173  1.00  0.00    -0.223 NA
HETATM    3  C5  UNK     1      18.374   4.123  31.292  1.00  0.00     0.082 A 
HETATM    4  C11 UNK     1      17.302   5.906  31.961  1.00  0.00     0.171 A 
HETATM    5  C12 UNK     1      18.939   5.030  30.427  1.00  0.00     0.086 A 
ENDROOT
BRANCH   3   6
HETATM    6  C2  UNK     1      18.699   2.720  31.328  1.00  0.00     0.070 A 
HETATM    7  C4  UNK     1      19.203   2.080  30.260  1.00  0.00     0.034 A 
HETATM    8  C1  UNK     1      19.533   0.666  30.304  1.00  0.00     0.002 A 
HETATM    9  C7  UNK     1      20.056  -0.014  29.202  1.00  0.00     0.014 A 
HETATM   10  C3  UNK     1      19.324  -0.033  31.486  1.00  0.00     0.123 A 
HETATM   11  C10 UNK     1      20.359  -1.375  29.299  1.00  0.00     0.004 A 
HETATM   12  C9  UNK     1      20.143  -2.062  30.496  1.00  0.00     0.040 A 
HETATM   13  C6  UNK     1      19.621  -1.390  31.599  1.00  0.00     0.102 A 
HETATM   14  O1  UNK     1      18.795   0.619  32.614  1.00  0.00    -0.271 OA
HETATM   15  C8  UNK     1      18.455   1.970  32.597  1.00  0.00     0.301 A 
HETATM   16  O3  UNK     1      17.971   2.506  33.590  1.00  0.00    -0.259 OA
BRANCH  13  17
HETATM   17  O2  UNK     1      19.412  -2.061  32.763  1.00  0.00    -0.353 OA
HETATM   18  C19 UNK     1      20.568  -2.486  33.486  1.00  0.00     0.210 C 
ENDBRANCH  13  17
ENDBRANCH   3   6
BRANCH   4  19
HETATM   19  N2  UNK     1      16.456   6.711  32.658  1.00  0.00    -0.335 N 
HETATM   20  H6  UNK     1      15.573   6.283  32.933  1.00  0.00     0.168 HD
BRANCH  19  21
HETATM   21  C13 UNK     1      16.518   8.079  33.113  1.00  0.00     0.034 A 
HETATM   22  C14 UNK     1      17.707   8.556  33.622  1.00  0.00     0.031 A 
HETATM   23  C16 UNK     1      17.768   9.878  34.063  1.00  0.00     0.021 A 
HETATM   24  C18 UNK     1      16.638  10.692  33.985  1.00  0.00     0.011 A 
HETATM   25 Br1  UNK     1      16.719  12.483  34.582  1.00  0.00    -0.051 Br
HETATM   26  C17 UNK     1      15.447  10.183  33.466  1.00  0.00     0.021 A 
HETATM   27  C15 UNK     1      15.386   8.861  33.025  1.00  0.00     0.031 A 
ENDBRANCH  19  21
ENDBRANCH   4  19
TORSDOF 4
ENDMDL
MODEL 4
REMARK VINA RESULT:      -9.2     26.819     29.249
REMARK  4 active torsions:
REMARK  status: ('A' for Active; 'I' for Inactive)
REMARK    1  A    between atoms: C6_13  and  O2_4 
REMARK    2  A    between atoms: C11_18  and  N2_7 
REMARK    3  A    between atoms: C13_20  and  N2_7 
REMARK    4  A    between atoms: C2_9  and  C5_12 
ROOT
HETATM    1  S1  UNK     1      17.269   7.413  10.219  1.00  0.00    -0.061 SA
HETATM    2  N1  UNK     1      15.476   8.914   9.115  1.00  0.00    -0.223 NA
HETATM    3  C5  UNK     1      14.910   7.679   9.349  1.00  0.00     0.082 A 
HETATM    4  C11 UNK     1      16.721   8.889   9.535  1.00  0.00     0.171 A 
HETATM    5  C12 UNK     1      15.718   6.736   9.938  1.00  0.00     0.086 A 
ENDROOT
BRANCH   3   6
HETATM    6  C2  UNK     1      13.538   7.457   8.972  1.00  0.00     0.070 A 
HETATM    7  C4  UNK     1      13.201   7.008   7.751  1.00  0.00     0.034 A 
HETATM    8  C1  UNK     1      11.816   6.781   7.376  1.00  0.00     0.002 A 
HETATM    9  C7  UNK     1      11.451   6.317   6.111  1.00  0.00     0.014 A 
HETATM   10  C3  UNK     1      10.821   7.031   8.313  1.00  0.00     0.123 A 
HETATM   11  C10 UNK     1      10.102   6.112   5.804  1.00  0.00     0.004 A 
HETATM   12  C9  UNK     1       9.115   6.368   6.758  1.00  0.00     0.040 A 
HETATM   13  C6  UNK     1       9.473   6.831   8.022  1.00  0.00     0.102 A 
HETATM   14  O1  UNK     1      11.154   7.502   9.595  1.00  0.00    -0.271 OA
HETATM   15  C8  UNK     1      12.472   7.743   9.978  1.00  0.00     0.301 A 
HETATM   16  O3  UNK     1      12.728   8.180  11.096  1.00  0.00    -0.259 OA
BRANCH  13  17
HETATM   17  O2  UNK     1       8.510   7.079   8.950  1.00  0.00    -0.353 OA
HETATM   18  C19 UNK     1       7.881   5.948   9.553  1.00  0.00     0.210 C 
ENDBRANCH  13  17
ENDBRANCH   3   6
BRANCH   4  19
HETATM   19  N2  UNK     1      17.576   9.944   9.458  1.00  0.00    -0.335 N 
HETATM   20  H6  UNK     1      18.277   9.992  10.196  1.00  0.00     0.168 HD
BRANCH  19  21
HETATM   21  C13 UNK     1      17.728  11.049   8.544  1.00  0.00     0.034 A 
HETATM   22  C14 UNK     1      16.676  11.926   8.380  1.00  0.00     0.031 A 
HETATM   23  C16 UNK     1      16.822  12.995   7.496  1.00  0.00     0.021 A 
HETATM   24  C18 UNK     1      18.017  13.162   6.795  1.00  0.00     0.011 A 
HETATM   25 Br1  UNK     1      18.215  14.610   5.598  1.00  0.00    -0.051 Br
HETATM   26  C17 UNK     1      19.065  12.260   6.980  1.00  0.00     0.021 A 
HETATM   27  C15 UNK     1      18.919  11.191   7.864  1.00  0.00     0.031 A 
ENDBRANCH  19  21
ENDBRANCH   4  19
TORSDOF 4
ENDMDL
MODEL 5
REMARK VINA RESULT:      -9.1      5.065      9.235
REMARK  4 active torsions:
REMARK  status: ('A' for Active; 'I' for Inactive)
REMARK    1  A    between atoms: C6_13  and  O2_4 
REMARK    2  A    between atoms: C11_18  and  N2_7 
REMARK    3  A    between atoms: C13_20  and  N2_7 
REMARK    4  A    between atoms: C2_9  and  C5_12 
ROOT
HETATM    1  S1  UNK     1      19.741  -0.049  29.049  1.00  0.00    -0.061 SA
HETATM    2  N1  UNK     1      19.284   0.752  31.464  1.00  0.00    -0.223 NA
HETATM    3  C5  UNK     1      19.624  -0.583  31.517  1.00  0.00     0.082 A 
HETATM    4  C11 UNK     1      19.313   1.141  30.210  1.00  0.00     0.171 A 
HETATM    5  C12 UNK     1      19.907  -1.191  30.318  1.00  0.00     0.086 A 
ENDROOT
BRANCH   3   6
HETATM    6  C2  UNK     1      19.663  -1.244  32.797  1.00  0.00     0.070 A 
HETATM    7  C4  UNK     1      18.955  -0.797  33.848  1.00  0.00     0.034 A 
HETATM    8  C1  UNK     1      18.994  -1.470  35.135  1.00  0.00     0.002 A 
HETATM    9  C7  UNK     1      18.266  -1.017  36.237  1.00  0.00     0.014 A 
HETATM   10  C3  UNK     1      19.780  -2.607  35.271  1.00  0.00     0.123 A 
HETATM   11  C10 UNK     1      18.337  -1.705  37.452  1.00  0.00     0.004 A 
HETATM   12  C9  UNK     1      19.133  -2.846  37.571  1.00  0.00     0.040 A 
HETATM   13  C6  UNK     1      19.862  -3.303  36.476  1.00  0.00     0.102 A 
HETATM   14  O1  UNK     1      20.530  -3.088  34.182  1.00  0.00    -0.271 OA
HETATM   15  C8  UNK     1      20.524  -2.455  32.941  1.00  0.00     0.301 A 
HETATM   16  O3  UNK     1      21.209  -2.884  32.018  1.00  0.00    -0.259 OA
BRANCH  13  17
HETATM   17  O2  UNK     1      20.636  -4.415  36.594  1.00  0.00    -0.353 OA
HETATM   18  C19 UNK     1      19.961  -5.664  36.747  1.00  0.00     0.210 C 
ENDBRANCH  13  17
ENDBRANCH   3   6
BRANCH   4  19
HETATM   19  N2  UNK     1      19.029   2.404  29.793  1.00  0.00    -0.335 N 
HETATM   20  H6  UNK     1      18.989   2.531  28.783  1.00  0.00     0.168 HD
BRANCH  19  21
HETATM   21  C13 UNK     1      18.763   3.649  30.471  1.00  0.00     0.034 A 
HETATM   22  C14 UNK     1      19.120   4.831  29.856  1.00  0.00     0.031 A 
HETATM   23  C16 UNK     1      18.863   6.035  30.512  1.00  0.00     0.021 A 
HETATM   24  C18 UNK     1      18.255   6.029  31.768  1.00  0.00     0.011 A 
HETATM   25 Br1  UNK     1      17.906   7.660  32.656  1.00  0.00    -0.051 Br
HETATM   26  C17 UNK     1      17.904   4.819  32.367  1.00  0.00     0.021 A 
HETATM   27  C15 UNK     1      18.161   3.615  31.711  1.00  0.00     0.031 A 
ENDBRANCH  19  21
ENDBRANCH   4  19
TORSDOF 4
ENDMDL
MODEL 6
REMARK VINA RESULT:      -9.1     26.784     28.745
REMARK  4 active torsions:
REMARK  status: ('A' for Active; 'I' for Inactive)
REMARK    1  A    between atoms: C6_13  and  O2_4 
REMARK    2  A    between atoms: C11_18  and  N2_7 
REMARK    3  A    between atoms: C13_20  and  N2_7 
REMARK    4  A    between atoms: C2_9  and  C5_12 
ROOT
HETATM    1  S1  UNK     1      17.306   7.724  10.245  1.00  0.00    -0.061 SA
HETATM    2  N1  UNK     1      15.278   9.188   9.592  1.00  0.00    -0.223 NA
HETATM    3  C5  UNK     1      14.902   7.868   9.477  1.00  0.00     0.082 A 
HETATM    4  C11 UNK     1      16.530   9.233   9.990  1.00  0.00     0.171 A 
HETATM    5  C12 UNK     1      15.857   6.929   9.786  1.00  0.00     0.086 A 
ENDROOT
BRANCH   3   6
HETATM    6  C2  UNK     1      13.562   7.557   9.050  1.00  0.00     0.070 A 
HETATM    7  C4  UNK     1      13.292   7.148   7.800  1.00  0.00     0.034 A 
HETATM    8  C1  UNK     1      11.939   6.832   7.376  1.00  0.00     0.002 A 
HETATM    9  C7  UNK     1      11.643   6.407   6.079  1.00  0.00     0.014 A 
HETATM   10  C3  UNK     1      10.905   6.953   8.295  1.00  0.00     0.123 A 
HETATM   11  C10 UNK     1      10.323   6.112   5.724  1.00  0.00     0.004 A 
HETATM   12  C9  UNK     1       9.295   6.239   6.662  1.00  0.00     0.040 A 
HETATM   13  C6  UNK     1       9.584   6.663   7.957  1.00  0.00     0.102 A 
HETATM   14  O1  UNK     1      11.168   7.382   9.608  1.00  0.00    -0.271 OA
HETATM   15  C8  UNK     1      12.452   7.706  10.039  1.00  0.00     0.301 A 
HETATM   16  O3  UNK     1      12.646   8.104  11.185  1.00  0.00    -0.259 OA
BRANCH  13  17
HETATM   17  O2  UNK     1       8.582   6.786   8.868  1.00  0.00    -0.353 OA
HETATM   18  C19 UNK     1       7.752   5.643   9.080  1.00  0.00     0.210 C 
ENDBRANCH  13  17
ENDBRANCH   3   6
BRANCH   4  19
HETATM   19  N2  UNK     1      17.223  10.383  10.207  1.00  0.00    -0.335 N 
HETATM   20  H6  UNK     1      16.968  10.894  11.051  1.00  0.00     0.168 HD
BRANCH  19  21
HETATM   21  C13 UNK     1      18.273  11.072   9.497  1.00  0.00     0.034 A 
HETATM   22  C14 UNK     1      19.322  11.608  10.215  1.00  0.00     0.031 A 
HETATM   23  C16 UNK     1      20.337  12.274   9.529  1.00  0.00     0.021 A 
HETATM   24  C18 UNK     1      20.279  12.390   8.139  1.00  0.00     0.011 A 
HETATM   25 Br1  UNK     1      21.654  13.292   7.209  1.00  0.00    -0.051 Br
HETATM   26  C17 UNK     1      19.207  11.838   7.438  1.00  0.00     0.021 A 
HETATM   27  C15 UNK     1      18.192  11.172   8.124  1.00  0.00     0.031 A 
ENDBRANCH  19  21
ENDBRANCH   4  19
TORSDOF 4
ENDMDL
MODEL 7
REMARK VINA RESULT:      -9.0     26.173     28.219
REMARK  4 active torsions:
REMARK  status: ('A' for Active; 'I' for Inactive)
REMARK    1  A    between atoms: C6_13  and  O2_4 
REMARK    2  A    between atoms: C11_18  and  N2_7 
REMARK    3  A    between atoms: C13_20  and  N2_7 
REMARK    4  A    between atoms: C2_9  and  C5_12 
ROOT
HETATM    1  S1  UNK     1       9.898   6.375   6.029  1.00  0.00    -0.061 SA
HETATM    2  N1  UNK     1      10.228   5.525   8.448  1.00  0.00    -0.223 NA
HETATM    3  C5  UNK     1       8.877   5.698   8.240  1.00  0.00     0.082 A 
HETATM    4  C11 UNK     1      10.866   5.853   7.346  1.00  0.00     0.171 A 
HETATM    5  C12 UNK     1       8.501   6.150   6.998  1.00  0.00     0.086 A 
ENDROOT
BRANCH   3   6
HETATM    6  C2  UNK     1       7.962   5.401   9.312  1.00  0.00     0.070 A 
HETATM    7  C4  UNK     1       7.379   4.197   9.434  1.00  0.00     0.034 A 
HETATM    8  C1  UNK     1       6.459   3.901  10.519  1.00  0.00     0.002 A 
HETATM    9  C7  UNK     1       5.844   2.655  10.659  1.00  0.00     0.014 A 
HETATM   10  C3  UNK     1       6.187   4.893  11.453  1.00  0.00     0.123 A 
HETATM   11  C10 UNK     1       4.970   2.423  11.724  1.00  0.00     0.004 A 
HETATM   12  C9  UNK     1       4.707   3.431  12.654  1.00  0.00     0.040 A 
HETATM   13  C6  UNK     1       5.317   4.676  12.521  1.00  0.00     0.102 A 
HETATM   14  O1  UNK     1       6.786   6.160  11.340  1.00  0.00    -0.271 OA
HETATM   15  C8  UNK     1       7.659   6.477  10.302  1.00  0.00     0.301 A 
HETATM   16  O3  UNK     1       8.146   7.601  10.216  1.00  0.00    -0.259 OA
BRANCH  13  17
HETATM   17  O2  UNK     1       5.060   5.657  13.428  1.00  0.00    -0.353 OA
HETATM   18  C19 UNK     1       5.542   5.456  14.757  1.00  0.00     0.210 C 
ENDBRANCH  13  17
ENDBRANCH   3   6
BRANCH   4  19
HETATM   19  N2  UNK     1      12.217   5.801   7.199  1.00  0.00    -0.335 N 
HETATM   20  H6  UNK     1      12.546   5.368   6.338  1.00  0.00     0.168 HD
BRANCH  19  21
HETATM   21  C13 UNK     1      13.333   6.230   8.007  1.00  0.00     0.034 A 
HETATM   22  C14 UNK     1      14.192   5.278   8.514  1.00  0.00     0.031 A 
HETATM   23  C16 UNK     1      15.270   5.692   9.296  1.00  0.00     0.021 A 
HETATM   24  C18 UNK     1      15.464   7.049   9.553  1.00  0.00     0.011 A 
HETATM   25 Br1  UNK     1      16.925   7.611  10.611  1.00  0.00    -0.051 Br
HETATM   26  C17 UNK     1      14.580   7.992   9.027  1.00  0.00     0.021 A 
HETATM   27  C15 UNK     1      13.501   7.577   8.246  1.00  0.00     0.031 A 
ENDBRANCH  19  21
ENDBRANCH   4  19
TORSDOF 4
ENDMDL
MODEL 8
REMARK VINA RESULT:      -9.0      8.084     10.806
REMARK  4 active torsions:
REMARK  status: ('A' for Active; 'I' for Inactive)
REMARK    1  A    between atoms: C6_13  and  O2_4 
REMARK    2  A    between atoms: C11_18  and  N2_7 
REMARK    3  A    between atoms: C13_20  and  N2_7 
REMARK    4  A    between atoms: C2_9  and  C5_12 
ROOT
HETATM    1  S1  UNK     1      19.229   5.429  31.463  1.00  0.00    -0.061 SA
HETATM    2  N1  UNK     1      16.884   5.510  32.549  1.00  0.00    -0.223 NA
HETATM    3  C5  UNK     1      17.440   6.767  32.646  1.00  0.00     0.082 A 
HETATM    4  C11 UNK     1      17.741   4.720  31.941  1.00  0.00     0.171 A 
HETATM    5  C12 UNK     1      18.699   6.923  32.118  1.00  0.00     0.086 A 
ENDROOT
BRANCH   3   6
HETATM    6  C2  UNK     1      16.685   7.818  33.280  1.00  0.00     0.070 A 
HETATM    7  C4  UNK     1      15.692   8.461  32.644  1.00  0.00     0.034 A 
HETATM    8  C1  UNK     1      14.931   9.517  33.289  1.00  0.00     0.002 A 
HETATM    9  C7  UNK     1      13.897  10.196  32.640  1.00  0.00     0.014 A 
HETATM   10  C3  UNK     1      15.241   9.860  34.599  1.00  0.00     0.123 A 
HETATM   11  C10 UNK     1      13.194  11.203  33.309  1.00  0.00     0.004 A 
HETATM   12  C9  UNK     1      13.519  11.534  34.627  1.00  0.00     0.040 A 
HETATM   13  C6  UNK     1      14.550  10.861  35.279  1.00  0.00     0.102 A 
HETATM   14  O1  UNK     1      16.279   9.199  35.280  1.00  0.00    -0.271 OA
HETATM   15  C8  UNK     1      17.035   8.194  34.682  1.00  0.00     0.301 A 
HETATM   16  O3  UNK     1      17.952   7.653  35.294  1.00  0.00    -0.259 OA
BRANCH  13  17
HETATM   17  O2  UNK     1      14.864  11.185  36.562  1.00  0.00    -0.353 OA
HETATM   18  C19 UNK     1      14.437  12.464  37.033  1.00  0.00     0.210 C 
ENDBRANCH  13  17
ENDBRANCH   3   6
BRANCH   4  19
HETATM   19  N2  UNK     1      17.516   3.405  31.678  1.00  0.00    -0.335 N 
HETATM   20  H6  UNK     1      16.626   3.039  32.012  1.00  0.00     0.168 HD
BRANCH  19  21
HETATM   21  C13 UNK     1      18.270   2.371  31.012  1.00  0.00     0.034 A 
HETATM   22  C14 UNK     1      18.281   2.339  29.633  1.00  0.00     0.031 A 
HETATM   23  C16 UNK     1      19.010   1.340  28.989  1.00  0.00     0.021 A 
HETATM   24  C18 UNK     1      19.710   0.394  29.738  1.00  0.00     0.011 A 
HETATM   25 Br1  UNK     1      20.697  -0.960  28.866  1.00  0.00    -0.051 Br
HETATM   26  C17 UNK     1      19.681   0.449  31.132  1.00  0.00     0.021 A 
HETATM   27  C15 UNK     1      18.953   1.449  31.776  1.00  0.00     0.031 A 
ENDBRANCH  19  21
ENDBRANCH   4  19
TORSDOF 4
ENDMDL
MODEL 9
REMARK VINA RESULT:      -8.9      6.752      8.866
REMARK  4 active torsions:
REMARK  status: ('A' for Active; 'I' for Inactive)
REMARK    1  A    between atoms: C6_13  and  O2_4 
REMARK    2  A    between atoms: C11_18  and  N2_7 
REMARK    3  A    between atoms: C13_20  and  N2_7 
REMARK    4  A    between atoms: C2_9  and  C5_12 
ROOT
HETATM    1  S1  UNK     1      18.920   3.064  30.350  1.00  0.00    -0.061 SA
HETATM    2  N1  UNK     1      17.882   3.815  32.595  1.00  0.00    -0.223 NA
HETATM    3  C5  UNK     1      18.044   4.933  31.807  1.00  0.00     0.082 A 
HETATM    4  C11 UNK     1      18.312   2.768  31.927  1.00  0.00     0.171 A 
HETATM    5  C12 UNK     1      18.588   4.733  30.561  1.00  0.00     0.086 A 
ENDROOT
BRANCH   3   6
HETATM    6  C2  UNK     1      17.642   6.217  32.325  1.00  0.00     0.070 A 
HETATM    7  C4  UNK     1      16.349   6.571  32.418  1.00  0.00     0.034 A 
HETATM    8  C1  UNK     1      15.949   7.864  32.945  1.00  0.00     0.002 A 
HETATM    9  C7  UNK     1      14.610   8.247  33.046  1.00  0.00     0.014 A 
HETATM   10  C3  UNK     1      16.934   8.748  33.366  1.00  0.00     0.123 A 
HETATM   11  C10 UNK     1      14.279   9.503  33.564  1.00  0.00     0.004 A 
HETATM   12  C9  UNK     1      15.283  10.380  33.983  1.00  0.00     0.040 A 
HETATM   13  C6  UNK     1      16.620  10.004  33.884  1.00  0.00     0.102 A 
HETATM   14  O1  UNK     1      18.292   8.396  33.274  1.00  0.00    -0.271 OA
HETATM   15  C8  UNK     1      18.707   7.169  32.760  1.00  0.00     0.301 A 
HETATM   16  O3  UNK     1      19.901   6.901  32.668  1.00  0.00    -0.259 OA
BRANCH  13  17
HETATM   17  O2  UNK     1      17.596  10.859  34.293  1.00  0.00    -0.353 OA
HETATM   18  C19 UNK     1      17.282  12.252  34.291  1.00  0.00     0.210 C 
ENDBRANCH  13  17
ENDBRANCH   3   6
BRANCH   4  19
HETATM   19  N2  UNK     1      18.299   1.495  32.407  1.00  0.00    -0.335 N 
HETATM   20  H6  UNK     1      18.331   0.762  31.701  1.00  0.00     0.168 HD
BRANCH  19  21
HETATM   21  C13 UNK     1      18.250   0.921  33.730  1.00  0.00     0.034 A 
HETATM   22  C14 UNK     1      18.255   1.764  34.821  1.00  0.00     0.031 A 
HETATM   23  C16 UNK     1      18.208   1.209  36.100  1.00  0.00     0.021 A 
HETATM   24  C18 UNK     1      18.158  -0.176  36.258  1.00  0.00     0.011 A 
HETATM   25 Br1  UNK     1      18.093  -0.928  37.990  1.00  0.00    -0.051 Br
HETATM   26  C17 UNK     1      18.154  -1.006  35.136  1.00  0.00     0.021 A 
HETATM   27  C15 UNK     1      18.201  -0.451  33.857  1.00  0.00     0.031 A 
ENDBRANCH  19  21
ENDBRANCH   4  19
TORSDOF 4
ENDMDL
MODEL 10
REMARK VINA RESULT:      -8.9     26.721     28.813
REMARK  4 active torsions:
REMARK  status: ('A' for Active; 'I' for Inactive)
REMARK    1  A    between atoms: C6_13  and  O2_4 
REMARK    2  A    between atoms: C11_18  and  N2_7 
REMARK    3  A    between atoms: C13_20  and  N2_7 
REMARK    4  A    between atoms: C2_9  and  C5_12 
ROOT
HETATM    1  S1  UNK     1      17.286   6.887  10.107  1.00  0.00    -0.061 SA
HETATM    2  N1  UNK     1      15.479   8.597   9.405  1.00  0.00    -0.223 NA
HETATM    3  C5  UNK     1      14.915   7.340   9.359  1.00  0.00     0.082 A 
HETATM    4  C11 UNK     1      16.730   8.479   9.788  1.00  0.00     0.171 A 
HETATM    5  C12 UNK     1      15.730   6.289   9.704  1.00  0.00     0.086 A 
ENDROOT
BRANCH   3   6
HETATM    6  C2  UNK     1      13.536   7.207   8.962  1.00  0.00     0.070 A 
HETATM    7  C4  UNK     1      13.189   6.804   7.729  1.00  0.00     0.034 A 
HETATM    8  C1  UNK     1      11.797   6.667   7.335  1.00  0.00     0.002 A 
HETATM    9  C7  UNK     1      11.420   6.251   6.056  1.00  0.00     0.014 A 
HETATM   10  C3  UNK     1      10.807   6.956   8.265  1.00  0.00     0.123 A 
HETATM   11  C10 UNK     1      10.066   6.133   5.730  1.00  0.00     0.004 A 
HETATM   12  C9  UNK     1       9.084   6.428   6.679  1.00  0.00     0.040 A 
HETATM   13  C6  UNK     1       9.453   6.844   7.956  1.00  0.00     0.102 A 
HETATM   14  O1  UNK     1      11.152   7.382   9.561  1.00  0.00    -0.271 OA
HETATM   15  C8  UNK     1      12.477   7.537   9.962  1.00  0.00     0.301 A 
HETATM   16  O3  UNK     1      12.746   7.935  11.092  1.00  0.00    -0.259 OA
BRANCH  13  17
HETATM   17  O2  UNK     1       8.495   7.130   8.878  1.00  0.00    -0.353 OA
HETATM   18  C19 UNK     1       7.949   6.032   9.611  1.00  0.00     0.210 C 
ENDBRANCH  13  17
ENDBRANCH   3   6
BRANCH   4  19
HETATM   19  N2  UNK     1      17.586   9.525   9.941  1.00  0.00    -0.335 N 
HETATM   20  H6  UNK     1      18.434   9.322  10.467  1.00  0.00     0.168 HD
BRANCH  19  21
HETATM   21  C13 UNK     1      17.572  10.905   9.518  1.00  0.00     0.034 A 
HETATM   22  C14 UNK     1      17.212  11.876  10.428  1.00  0.00     0.031 A 
HETATM   23  C16 UNK     1      17.198  13.209  10.019  1.00  0.00     0.021 A 
HETATM   24  C18 UNK     1      17.544  13.540   8.709  1.00  0.00     0.011 A 
HETATM   25 Br1  UNK     1      17.525  15.347   8.154  1.00  0.00    -0.051 Br
HETATM   26  C17 UNK     1      17.904  12.537   7.808  1.00  0.00     0.021 A 
HETATM   27  C15 UNK     1      17.918  11.204   8.217  1.00  0.00     0.031 A 
ENDBRANCH  19  21
ENDBRANCH   4  19
TORSDOF 4
ENDMDL
