MODEL 1
REMARK VINA RESULT:      -7.8      0.000      0.000
REMARK  4 active torsions:
REMARK  status: ('A' for Active; 'I' for Inactive)
REMARK    1  A    between atoms: C12_19  and  O4_5 
REMARK    2  A    between atoms: C11_18  and  N1_7 
REMARK       I    between atoms: C7_14  and  N1_7 
REMARK    3  A    between atoms: C3_10  and  C7_14 
REMARK    4  A    between atoms: C11_18  and  C12_19 
ROOT
HETATM    1 Cl1  UNK     1      21.274  -3.227  32.237  1.00  0.00    -0.084 Cl
HETATM    2  O1  UNK     1      18.988   0.801  28.586  1.00  0.00    -0.274 OA
HETATM    3  O3  UNK     1      18.091   2.872  28.227  1.00  0.00    -0.259 OA
HETATM    4  C1  UNK     1      19.658   0.156  30.832  1.00  0.00     0.001 A 
HETATM    5  C2  UNK     1      19.531  -0.143  29.480  1.00  0.00     0.089 A 
HETATM    6  C3  UNK     1      18.707   2.352  30.456  1.00  0.00     0.108 A 
HETATM    7  C4  UNK     1      19.221   1.459  31.309  1.00  0.00     0.037 A 
HETATM    8  C5  UNK     1      20.200  -0.806  31.687  1.00  0.00     0.038 A 
HETATM    9  C6  UNK     1      18.562   2.056  29.013  1.00  0.00     0.304 A 
HETATM   10  C8  UNK     1      19.930  -1.372  28.959  1.00  0.00     0.040 A 
HETATM   11  C9  UNK     1      20.605  -2.045  31.180  1.00  0.00     0.035 A 
HETATM   12  C10 UNK     1      20.470  -2.326  29.818  1.00  0.00     0.026 A 
ENDROOT
BRANCH   6  13
HETATM   13  C7  UNK     1      18.296   3.638  31.032  1.00  0.00     0.258 C 
HETATM   14  O2  UNK     1      17.507   3.684  31.974  1.00  0.00    -0.267 OA
HETATM   15  N1  UNK     1      18.882   4.722  30.402  1.00  0.00    -0.347 N 
HETATM   16  H4  UNK     1      19.534   4.577  29.639  1.00  0.00     0.163 HD
BRANCH  15  17
HETATM   17  C11 UNK     1      18.629   6.090  30.792  1.00  0.00     0.233 C 
BRANCH  17  18
HETATM   18  C12 UNK     1      19.403   6.513  32.018  1.00  0.00     0.276 C 
HETATM   19  O5  UNK     1      20.566   6.170  32.207  1.00  0.00    -0.263 OA
BRANCH  18  20
HETATM   20  O4  UNK     1      18.666   7.293  32.855  1.00  0.00    -0.325 OA
HETATM   21  C13 UNK     1      17.972   6.604  33.899  1.00  0.00     0.213 C 
ENDBRANCH  18  20
ENDBRANCH  17  18
ENDBRANCH  15  17
ENDBRANCH   6  13
TORSDOF 4
ENDMDL
MODEL 2
REMARK VINA RESULT:      -7.6      4.054      6.043
REMARK  4 active torsions:
REMARK  status: ('A' for Active; 'I' for Inactive)
REMARK    1  A    between atoms: C12_19  and  O4_5 
REMARK    2  A    between atoms: C11_18  and  N1_7 
REMARK       I    between atoms: C7_14  and  N1_7 
REMARK    3  A    between atoms: C3_10  and  C7_14 
REMARK    4  A    between atoms: C11_18  and  C12_19 
ROOT
HETATM    1 Cl1  UNK     1      16.526   0.379  37.539  1.00  0.00    -0.084 Cl
HETATM    2  O1  UNK     1      20.373  -2.729  34.327  1.00  0.00    -0.274 OA
HETATM    3  O3  UNK     1      21.349  -3.209  32.318  1.00  0.00    -0.259 OA
HETATM    4  C1  UNK     1      18.660  -1.009  34.449  1.00  0.00     0.001 A 
HETATM    5  C2  UNK     1      19.447  -1.972  35.071  1.00  0.00     0.089 A 
HETATM    6  C3  UNK     1      19.691  -1.516  32.317  1.00  0.00     0.108 A 
HETATM    7  C4  UNK     1      18.809  -0.795  33.018  1.00  0.00     0.037 A 
HETATM    8  C5  UNK     1      17.751  -0.279  35.220  1.00  0.00     0.038 A 
HETATM    9  C6  UNK     1      20.539  -2.547  32.956  1.00  0.00     0.304 A 
HETATM   10  C8  UNK     1      19.352  -2.227  36.438  1.00  0.00     0.040 A 
HETATM   11  C9  UNK     1      17.645  -0.523  36.593  1.00  0.00     0.035 A 
HETATM   12  C10 UNK     1      18.445  -1.495  37.199  1.00  0.00     0.026 A 
ENDROOT
BRANCH   6  13
HETATM   13  C7  UNK     1      19.770  -1.227  30.879  1.00  0.00     0.258 C 
HETATM   14  O2  UNK     1      20.182  -2.073  30.088  1.00  0.00    -0.267 OA
HETATM   15  N1  UNK     1      19.345   0.051  30.563  1.00  0.00    -0.347 N 
HETATM   16  H4  UNK     1      19.008   0.672  31.291  1.00  0.00     0.163 HD
BRANCH  15  17
HETATM   17  C11 UNK     1      19.333   0.565  29.212  1.00  0.00     0.233 C 
BRANCH  17  18
HETATM   18  C12 UNK     1      18.257   1.600  28.979  1.00  0.00     0.276 C 
HETATM   19  O5  UNK     1      18.024   2.061  27.867  1.00  0.00    -0.263 OA
BRANCH  18  20
HETATM   20  O4  UNK     1      17.606   1.940  30.126  1.00  0.00    -0.325 OA
HETATM   21  C13 UNK     1      18.123   3.081  30.819  1.00  0.00     0.213 C 
ENDBRANCH  18  20
ENDBRANCH  17  18
ENDBRANCH  15  17
ENDBRANCH   6  13
TORSDOF 4
ENDMDL
MODEL 3
REMARK VINA RESULT:      -7.6     13.460     16.401
REMARK  4 active torsions:
REMARK  status: ('A' for Active; 'I' for Inactive)
REMARK    1  A    between atoms: C12_19  and  O4_5 
REMARK    2  A    between atoms: C11_18  and  N1_7 
REMARK       I    between atoms: C7_14  and  N1_7 
REMARK    3  A    between atoms: C3_10  and  C7_14 
REMARK    4  A    between atoms: C11_18  and  C12_19 
ROOT
HETATM    1 Cl1  UNK     1      18.860   2.111  21.070  1.00  0.00    -0.084 Cl
HETATM    2  O1  UNK     1      19.266   0.999  15.292  1.00  0.00    -0.274 OA
HETATM    3  O3  UNK     1      19.246  -0.479  13.550  1.00  0.00    -0.259 OA
HETATM    4  C1  UNK     1      18.951   0.185  17.561  1.00  0.00     0.001 A 
HETATM    5  C2  UNK     1      19.164   1.237  16.677  1.00  0.00     0.089 A 
HETATM    6  C3  UNK     1      18.930  -1.385  15.716  1.00  0.00     0.108 A 
HETATM    7  C4  UNK     1      18.834  -1.166  17.032  1.00  0.00     0.037 A 
HETATM    8  C5  UNK     1      18.857   0.460  18.927  1.00  0.00     0.038 A 
HETATM    9  C6  UNK     1      19.157  -0.282  14.756  1.00  0.00     0.304 A 
HETATM   10  C8  UNK     1      19.287   2.553  17.118  1.00  0.00     0.040 A 
HETATM   11  C9  UNK     1      18.977   1.775  19.385  1.00  0.00     0.035 A 
HETATM   12  C10 UNK     1      19.191   2.819  18.482  1.00  0.00     0.026 A 
ENDROOT
BRANCH   6  13
HETATM   13  C7  UNK     1      18.797  -2.781  15.279  1.00  0.00     0.258 C 
HETATM   14  O2  UNK     1      17.771  -3.418  15.508  1.00  0.00    -0.267 OA
HETATM   15  N1  UNK     1      19.919  -3.247  14.619  1.00  0.00    -0.347 N 
HETATM   16  H4  UNK     1      20.714  -2.635  14.466  1.00  0.00     0.163 HD
BRANCH  15  17
HETATM   17  C11 UNK     1      20.024  -4.591  14.097  1.00  0.00     0.233 C 
BRANCH  17  18
HETATM   18  C12 UNK     1      20.569  -5.578  15.103  1.00  0.00     0.276 C 
HETATM   19  O5  UNK     1      21.771  -5.786  15.230  1.00  0.00    -0.263 OA
BRANCH  18  20
HETATM   20  O4  UNK     1      19.584  -6.185  15.821  1.00  0.00    -0.325 OA
HETATM   21  C13 UNK     1      18.431  -6.592  15.076  1.00  0.00     0.213 C 
ENDBRANCH  18  20
ENDBRANCH  17  18
ENDBRANCH  15  17
ENDBRANCH   6  13
TORSDOF 4
ENDMDL
MODEL 4
REMARK VINA RESULT:      -7.4      3.455      4.335
REMARK  4 active torsions:
REMARK  status: ('A' for Active; 'I' for Inactive)
REMARK    1  A    between atoms: C12_19  and  O4_5 
REMARK    2  A    between atoms: C11_18  and  N1_7 
REMARK       I    between atoms: C7_14  and  N1_7 
REMARK    3  A    between atoms: C3_10  and  C7_14 
REMARK    4  A    between atoms: C11_18  and  C12_19 
ROOT
HETATM    1 Cl1  UNK     1      18.163  -0.258  37.766  1.00  0.00    -0.084 Cl
HETATM    2  O1  UNK     1      18.330   1.565  32.159  1.00  0.00    -0.274 OA
HETATM    3  O3  UNK     1      18.355   3.256  30.623  1.00  0.00    -0.259 OA
HETATM    4  C1  UNK     1      18.237   2.098  34.530  1.00  0.00     0.001 A 
HETATM    5  C2  UNK     1      18.290   1.157  33.507  1.00  0.00     0.089 A 
HETATM    6  C3  UNK     1      18.262   3.893  32.903  1.00  0.00     0.108 A 
HETATM    7  C4  UNK     1      18.223   3.512  34.185  1.00  0.00     0.037 A 
HETATM    8  C5  UNK     1      18.196   1.654  35.853  1.00  0.00     0.038 A 
HETATM    9  C6  UNK     1      18.319   2.910  31.798  1.00  0.00     0.304 A 
HETATM   10  C8  UNK     1      18.305  -0.212  33.769  1.00  0.00     0.040 A 
HETATM   11  C9  UNK     1      18.211   0.285  36.133  1.00  0.00     0.035 A 
HETATM   12  C10 UNK     1      18.266  -0.646  35.092  1.00  0.00     0.026 A 
ENDROOT
BRANCH   6  13
HETATM   13  C7  UNK     1      18.245   5.341  32.656  1.00  0.00     0.258 C 
HETATM   14  O2  UNK     1      19.239   5.917  32.217  1.00  0.00    -0.267 OA
HETATM   15  N1  UNK     1      17.032   5.927  32.971  1.00  0.00    -0.347 N 
HETATM   16  H4  UNK     1      16.265   5.359  33.316  1.00  0.00     0.163 HD
BRANCH  15  17
HETATM   17  C11 UNK     1      16.777   7.340  32.814  1.00  0.00     0.233 C 
BRANCH  17  18
HETATM   18  C12 UNK     1      15.934   7.661  31.602  1.00  0.00     0.276 C 
HETATM   19  O5  UNK     1      16.263   8.514  30.784  1.00  0.00    -0.263 OA
BRANCH  18  20
HETATM   20  O4  UNK     1      14.802   6.908  31.542  1.00  0.00    -0.325 OA
HETATM   21  C13 UNK     1      13.706   7.366  32.341  1.00  0.00     0.213 C 
ENDBRANCH  18  20
ENDBRANCH  17  18
ENDBRANCH  15  17
ENDBRANCH   6  13
TORSDOF 4
ENDMDL
MODEL 5
REMARK VINA RESULT:      -7.4      5.555      8.169
REMARK  4 active torsions:
REMARK  status: ('A' for Active; 'I' for Inactive)
REMARK    1  A    between atoms: C12_19  and  O4_5 
REMARK    2  A    between atoms: C11_18  and  N1_7 
REMARK       I    between atoms: C7_14  and  N1_7 
REMARK    3  A    between atoms: C3_10  and  C7_14 
REMARK    4  A    between atoms: C11_18  and  C12_19 
ROOT
HETATM    1 Cl1  UNK     1      18.297   2.248  28.867  1.00  0.00    -0.084 Cl
HETATM    2  O1  UNK     1      20.805  -2.729  30.797  1.00  0.00    -0.274 OA
HETATM    3  O3  UNK     1      21.393  -4.119  32.513  1.00  0.00    -0.259 OA
HETATM    4  C1  UNK     1      19.637  -0.652  31.281  1.00  0.00     0.001 A 
HETATM    5  C2  UNK     1      20.199  -1.534  30.363  1.00  0.00     0.089 A 
HETATM    6  C3  UNK     1      20.260  -2.122  33.102  1.00  0.00     0.108 A 
HETATM    7  C4  UNK     1      19.685  -0.985  32.696  1.00  0.00     0.037 A 
HETATM    8  C5  UNK     1      19.047   0.524  30.812  1.00  0.00     0.038 A 
HETATM    9  C6  UNK     1      20.865  -3.076  32.145  1.00  0.00     0.304 A 
HETATM   10  C8  UNK     1      20.188  -1.274  28.994  1.00  0.00     0.040 A 
HETATM   11  C9  UNK     1      19.027   0.798  29.441  1.00  0.00     0.035 A 
HETATM   12  C10 UNK     1      19.597  -0.100  28.535  1.00  0.00     0.026 A 
ENDROOT
BRANCH   6  13
HETATM   13  C7  UNK     1      20.258  -2.371  34.550  1.00  0.00     0.258 C 
HETATM   14  O2  UNK     1      20.540  -1.475  35.343  1.00  0.00    -0.267 OA
HETATM   15  N1  UNK     1      19.917  -3.672  34.872  1.00  0.00    -0.347 N 
HETATM   16  H4  UNK     1      19.686  -4.336  34.141  1.00  0.00     0.163 HD
BRANCH  15  17
HETATM   17  C11 UNK     1      19.849  -4.154  36.233  1.00  0.00     0.233 C 
BRANCH  17  18
HETATM   18  C12 UNK     1      20.007  -5.652  36.342  1.00  0.00     0.276 C 
HETATM   19  O5  UNK     1      19.727  -6.265  37.367  1.00  0.00    -0.263 OA
BRANCH  18  20
HETATM   20  O4  UNK     1      20.484  -6.209  35.196  1.00  0.00    -0.325 OA
HETATM   21  C13 UNK     1      20.471  -7.639  35.147  1.00  0.00     0.213 C 
ENDBRANCH  18  20
ENDBRANCH  17  18
ENDBRANCH  15  17
ENDBRANCH   6  13
TORSDOF 4
ENDMDL
MODEL 6
REMARK VINA RESULT:      -7.3     22.239     24.352
REMARK  4 active torsions:
REMARK  status: ('A' for Active; 'I' for Inactive)
REMARK    1  A    between atoms: C12_19  and  O4_5 
REMARK    2  A    between atoms: C11_18  and  N1_7 
REMARK       I    between atoms: C7_14  and  N1_7 
REMARK    3  A    between atoms: C3_10  and  C7_14 
REMARK    4  A    between atoms: C11_18  and  C12_19 
ROOT
HETATM    1 Cl1  UNK     1      17.166  10.085  10.202  1.00  0.00    -0.084 Cl
HETATM    2  O1  UNK     1      14.114   5.150   9.144  1.00  0.00    -0.274 OA
HETATM    3  O3  UNK     1      12.336   4.084   8.182  1.00  0.00    -0.259 OA
HETATM    4  C1  UNK     1      14.373   7.550   8.857  1.00  0.00     0.001 A 
HETATM    5  C2  UNK     1      14.824   6.343   9.381  1.00  0.00     0.089 A 
HETATM    6  C3  UNK     1      12.486   6.424   7.837  1.00  0.00     0.108 A 
HETATM    7  C4  UNK     1      13.156   7.560   8.060  1.00  0.00     0.037 A 
HETATM    8  C5  UNK     1      15.104   8.713   9.115  1.00  0.00     0.038 A 
HETATM    9  C6  UNK     1      12.947   5.128   8.384  1.00  0.00     0.304 A 
HETATM   10  C8  UNK     1      15.982   6.265  10.153  1.00  0.00     0.040 A 
HETATM   11  C9  UNK     1      16.267   8.650   9.887  1.00  0.00     0.035 A 
HETATM   12  C10 UNK     1      16.705   7.428  10.404  1.00  0.00     0.026 A 
ENDROOT
BRANCH   6  13
HETATM   13  C7  UNK     1      11.271   6.536   7.021  1.00  0.00     0.258 C 
HETATM   14  O2  UNK     1      11.337   6.824   5.828  1.00  0.00    -0.267 OA
HETATM   15  N1  UNK     1      10.115   6.289   7.740  1.00  0.00    -0.347 N 
HETATM   16  H4  UNK     1      10.167   6.044   8.723  1.00  0.00     0.163 HD
BRANCH  15  17
HETATM   17  C11 UNK     1       8.796   6.342   7.152  1.00  0.00     0.233 C 
BRANCH  17  18
HETATM   18  C12 UNK     1       7.698   5.963   8.118  1.00  0.00     0.276 C 
HETATM   19  O5  UNK     1       7.064   6.802   8.749  1.00  0.00    -0.263 OA
BRANCH  18  20
HETATM   20  O4  UNK     1       7.515   4.616   8.193  1.00  0.00    -0.325 OA
HETATM   21  C13 UNK     1       7.122   4.112   9.474  1.00  0.00     0.213 C 
ENDBRANCH  18  20
ENDBRANCH  17  18
ENDBRANCH  15  17
ENDBRANCH   6  13
TORSDOF 4
ENDMDL
MODEL 7
REMARK VINA RESULT:      -7.1     13.168     15.188
REMARK  4 active torsions:
REMARK  status: ('A' for Active; 'I' for Inactive)
REMARK    1  A    between atoms: C12_19  and  O4_5 
REMARK    2  A    between atoms: C11_18  and  N1_7 
REMARK       I    between atoms: C7_14  and  N1_7 
REMARK    3  A    between atoms: C3_10  and  C7_14 
REMARK    4  A    between atoms: C11_18  and  C12_19 
ROOT
HETATM    1 Cl1  UNK     1      21.247  -7.260  13.358  1.00  0.00    -0.084 Cl
HETATM    2  O1  UNK     1      16.995  -3.946  15.751  1.00  0.00    -0.274 OA
HETATM    3  O3  UNK     1      16.317  -2.006  16.749  1.00  0.00    -0.259 OA
HETATM    4  C1  UNK     1      19.326  -4.218  15.114  1.00  0.00     0.001 A 
HETATM    5  C2  UNK     1      18.029  -4.716  15.184  1.00  0.00     0.089 A 
HETATM    6  C3  UNK     1      18.610  -2.159  16.173  1.00  0.00     0.108 A 
HETATM    7  C4  UNK     1      19.596  -2.887  15.636  1.00  0.00     0.037 A 
HETATM    8  C5  UNK     1      20.324  -5.012  14.546  1.00  0.00     0.038 A 
HETATM    9  C6  UNK     1      17.223  -2.669  16.258  1.00  0.00     0.304 A 
HETATM   10  C8  UNK     1      17.704  -5.983  14.703  1.00  0.00     0.040 A 
HETATM   11  C9  UNK     1      20.013  -6.285  14.059  1.00  0.00     0.035 A 
HETATM   12  C10 UNK     1      18.705  -6.768  14.137  1.00  0.00     0.026 A 
ENDROOT
BRANCH   6  13
HETATM   13  C7  UNK     1      18.982  -0.829  16.671  1.00  0.00     0.258 C 
HETATM   14  O2  UNK     1      19.191   0.100  15.893  1.00  0.00    -0.267 OA
HETATM   15  N1  UNK     1      19.059  -0.774  18.051  1.00  0.00    -0.347 N 
HETATM   16  H4  UNK     1      18.852  -1.596  18.608  1.00  0.00     0.163 HD
BRANCH  15  17
HETATM   17  C11 UNK     1      19.409   0.429  18.772  1.00  0.00     0.233 C 
BRANCH  17  18
HETATM   18  C12 UNK     1      18.716   0.544  20.109  1.00  0.00     0.276 C 
HETATM   19  O5  UNK     1      17.518   0.320  20.246  1.00  0.00    -0.263 OA
BRANCH  18  20
HETATM   20  O4  UNK     1      19.566   0.918  21.105  1.00  0.00    -0.325 OA
HETATM   21  C13 UNK     1      20.311   2.117  20.869  1.00  0.00     0.213 C 
ENDBRANCH  18  20
ENDBRANCH  17  18
ENDBRANCH  15  17
ENDBRANCH   6  13
TORSDOF 4
ENDMDL
MODEL 8
REMARK VINA RESULT:      -7.1      4.991      7.476
REMARK  4 active torsions:
REMARK  status: ('A' for Active; 'I' for Inactive)
REMARK    1  A    between atoms: C12_19  and  O4_5 
REMARK    2  A    between atoms: C11_18  and  N1_7 
REMARK       I    between atoms: C7_14  and  N1_7 
REMARK    3  A    between atoms: C3_10  and  C7_14 
REMARK    4  A    between atoms: C11_18  and  C12_19 
ROOT
HETATM    1 Cl1  UNK     1      18.225   7.806  33.177  1.00  0.00    -0.084 Cl
HETATM    2  O1  UNK     1      18.337   2.063  31.841  1.00  0.00    -0.274 OA
HETATM    3  O3  UNK     1      18.384  -0.126  32.496  1.00  0.00    -0.259 OA
HETATM    4  C1  UNK     1      18.308   3.818  33.523  1.00  0.00     0.001 A 
HETATM    5  C2  UNK     1      18.310   3.428  32.188  1.00  0.00     0.089 A 
HETATM    6  C3  UNK     1      18.359   1.499  34.220  1.00  0.00     0.108 A 
HETATM    7  C4  UNK     1      18.335   2.794  34.556  1.00  0.00     0.037 A 
HETATM    8  C5  UNK     1      18.282   5.181  33.827  1.00  0.00     0.038 A 
HETATM    9  C6  UNK     1      18.362   1.060  32.807  1.00  0.00     0.304 A 
HETATM   10  C8  UNK     1      18.286   4.359  31.151  1.00  0.00     0.040 A 
HETATM   11  C9  UNK     1      18.258   6.127  32.798  1.00  0.00     0.035 A 
HETATM   12  C10 UNK     1      18.259   5.716  31.463  1.00  0.00     0.026 A 
ENDROOT
BRANCH   6  13
HETATM   13  C7  UNK     1      18.384   0.541  35.333  1.00  0.00     0.258 C 
HETATM   14  O2  UNK     1      17.628   0.672  36.294  1.00  0.00    -0.267 OA
HETATM   15  N1  UNK     1      19.318  -0.464  35.157  1.00  0.00    -0.347 N 
HETATM   16  H4  UNK     1      19.887  -0.492  34.317  1.00  0.00     0.163 HD
BRANCH  15  17
HETATM   17  C11 UNK     1      19.527  -1.521  36.120  1.00  0.00     0.233 C 
BRANCH  17  18
HETATM   18  C12 UNK     1      20.790  -2.313  35.870  1.00  0.00     0.276 C 
HETATM   19  O5  UNK     1      21.660  -1.927  35.097  1.00  0.00    -0.263 OA
BRANCH  18  20
HETATM   20  O4  UNK     1      20.830  -3.468  36.588  1.00  0.00    -0.325 OA
HETATM   21  C13 UNK     1      19.746  -4.377  36.365  1.00  0.00     0.213 C 
ENDBRANCH  18  20
ENDBRANCH  17  18
ENDBRANCH  15  17
ENDBRANCH   6  13
TORSDOF 4
ENDMDL
MODEL 9
REMARK VINA RESULT:      -7.1      7.110     10.058
REMARK  4 active torsions:
REMARK  status: ('A' for Active; 'I' for Inactive)
REMARK    1  A    between atoms: C12_19  and  O4_5 
REMARK    2  A    between atoms: C11_18  and  N1_7 
REMARK       I    between atoms: C7_14  and  N1_7 
REMARK    3  A    between atoms: C3_10  and  C7_14 
REMARK    4  A    between atoms: C11_18  and  C12_19 
ROOT
HETATM    1 Cl1  UNK     1      16.103   1.780  37.585  1.00  0.00    -0.084 Cl
HETATM    2  O1  UNK     1      19.613  -1.347  34.023  1.00  0.00    -0.274 OA
HETATM    3  O3  UNK     1      20.882  -3.203  33.617  1.00  0.00    -0.259 OA
HETATM    4  C1  UNK     1      18.466  -1.118  36.154  1.00  0.00     0.001 A 
HETATM    5  C2  UNK     1      18.776  -0.620  34.893  1.00  0.00     0.089 A 
HETATM    6  C3  UNK     1      19.812  -3.087  35.728  1.00  0.00     0.108 A 
HETATM    7  C4  UNK     1      19.019  -2.402  36.560  1.00  0.00     0.037 A 
HETATM    8  C5  UNK     1      17.635  -0.369  36.989  1.00  0.00     0.038 A 
HETATM    9  C6  UNK     1      20.156  -2.577  34.382  1.00  0.00     0.304 A 
HETATM   10  C8  UNK     1      18.281   0.602  34.444  1.00  0.00     0.040 A 
HETATM   11  C9  UNK     1      17.129   0.860  36.553  1.00  0.00     0.035 A 
HETATM   12  C10 UNK     1      17.452   1.343  35.283  1.00  0.00     0.026 A 
ENDROOT
BRANCH   6  13
HETATM   13  C7  UNK     1      20.320  -4.371  36.227  1.00  0.00     0.258 C 
HETATM   14  O2  UNK     1      21.137  -4.413  37.145  1.00  0.00    -0.267 OA
HETATM   15  N1  UNK     1      19.784  -5.458  35.559  1.00  0.00    -0.347 N 
HETATM   16  H4  UNK     1      19.102  -5.318  34.821  1.00  0.00     0.163 HD
BRANCH  15  17
HETATM   17  C11 UNK     1      20.134  -6.825  35.871  1.00  0.00     0.233 C 
BRANCH  17  18
HETATM   18  C12 UNK     1      20.744  -7.565  34.704  1.00  0.00     0.276 C 
HETATM   19  O5  UNK     1      20.898  -7.040  33.606  1.00  0.00    -0.263 OA
BRANCH  18  20
HETATM   20  O4  UNK     1      21.084  -8.844  35.020  1.00  0.00    -0.325 OA
HETATM   21  C13 UNK     1      21.920  -8.999  36.172  1.00  0.00     0.213 C 
ENDBRANCH  18  20
ENDBRANCH  17  18
ENDBRANCH  15  17
ENDBRANCH   6  13
TORSDOF 4
ENDMDL
MODEL 10
REMARK VINA RESULT:      -7.0      4.621      6.924
REMARK  4 active torsions:
REMARK  status: ('A' for Active; 'I' for Inactive)
REMARK    1  A    between atoms: C12_19  and  O4_5 
REMARK    2  A    between atoms: C11_18  and  N1_7 
REMARK       I    between atoms: C7_14  and  N1_7 
REMARK    3  A    between atoms: C3_10  and  C7_14 
REMARK    4  A    between atoms: C11_18  and  C12_19 
ROOT
HETATM    1 Cl1  UNK     1      18.261   8.482  34.179  1.00  0.00    -0.084 Cl
HETATM    2  O1  UNK     1      18.504   3.547  30.958  1.00  0.00    -0.274 OA
HETATM    3  O3  UNK     1      18.453   1.267  30.814  1.00  0.00    -0.259 OA
HETATM    4  C1  UNK     1      18.273   4.618  33.128  1.00  0.00     0.001 A 
HETATM    5  C2  UNK     1      18.442   4.710  31.751  1.00  0.00     0.089 A 
HETATM    6  C3  UNK     1      18.219   2.201  32.979  1.00  0.00     0.108 A 
HETATM    7  C4  UNK     1      18.161   3.302  33.737  1.00  0.00     0.037 A 
HETATM    8  C5  UNK     1      18.218   5.794  33.881  1.00  0.00     0.038 A 
HETATM    9  C6  UNK     1      18.399   2.274  31.512  1.00  0.00     0.304 A 
HETATM   10  C8  UNK     1      18.558   5.940  31.106  1.00  0.00     0.040 A 
HETATM   11  C9  UNK     1      18.331   7.035  33.248  1.00  0.00     0.035 A 
HETATM   12  C10 UNK     1      18.500   7.107  31.863  1.00  0.00     0.026 A 
ENDROOT
BRANCH   6  13
HETATM   13  C7  UNK     1      18.095   0.919  33.685  1.00  0.00     0.258 C 
HETATM   14  O2  UNK     1      19.051   0.150  33.768  1.00  0.00    -0.267 OA
HETATM   15  N1  UNK     1      16.831   0.713  34.207  1.00  0.00    -0.347 N 
HETATM   16  H4  UNK     1      16.111   1.419  34.097  1.00  0.00     0.163 HD
BRANCH  15  17
HETATM   17  C11 UNK     1      16.468  -0.478  34.942  1.00  0.00     0.233 C 
BRANCH  17  18
HETATM   18  C12 UNK     1      16.960  -0.469  36.370  1.00  0.00     0.276 C 
HETATM   19  O5  UNK     1      17.676  -1.357  36.820  1.00  0.00    -0.263 OA
BRANCH  18  20
HETATM   20  O4  UNK     1      16.519   0.615  37.065  1.00  0.00    -0.325 OA
HETATM   21  C13 UNK     1      17.481   1.238  37.923  1.00  0.00     0.213 C 
ENDBRANCH  18  20
ENDBRANCH  17  18
ENDBRANCH  15  17
ENDBRANCH   6  13
TORSDOF 4
ENDMDL
