MODEL 1
REMARK VINA RESULT:      -8.3      0.000      0.000
REMARK  2 active torsions:
REMARK  status: ('A' for Active; 'I' for Inactive)
REMARK       I    between atoms: C5_12  and  N1_4 
REMARK    1  A    between atoms: C6_13  and  N2_5 
REMARK    2  A    between atoms: C5_12  and  C7_14 
ROOT
HETATM    1  O1  UNK     1      17.911  -2.958  36.802  1.00  0.00    -0.267 OA
HETATM    2  N1  UNK     1      19.471  -2.232  35.241  1.00  0.00    -0.345 N 
HETATM    3  N2  UNK     1      19.638  -1.210  32.617  1.00  0.00    -0.211 N 
HETATM    4  C1  UNK     1      20.729  -2.355  34.500  1.00  0.00     0.146 C 
HETATM    5  C2  UNK     1      18.716  -1.030  34.897  1.00  0.00     0.146 C 
HETATM    6  C3  UNK     1      20.461  -2.368  32.996  1.00  0.00     0.161 C 
HETATM    7  C4  UNK     1      18.409  -1.002  33.400  1.00  0.00     0.161 C 
HETATM    8  C5  UNK     1      18.978  -3.105  36.205  1.00  0.00     0.260 C 
ENDROOT
BRANCH   8   9
HETATM    9  C7  UNK     1      19.786  -4.296  36.532  1.00  0.00     0.108 A 
HETATM   10  C10 UNK     1      20.773  -4.297  37.636  1.00  0.00     0.304 A 
HETATM   11  O2  UNK     1      21.473  -5.482  37.847  1.00  0.00    -0.274 OA
HETATM   12  O3  UNK     1      20.967  -3.307  38.333  1.00  0.00    -0.259 OA
HETATM   13  C11 UNK     1      21.258  -6.625  37.052  1.00  0.00     0.089 A 
HETATM   14  C9  UNK     1      20.325  -6.601  36.020  1.00  0.00    -0.001 A 
HETATM   15  C15 UNK     1      22.007  -7.764  37.340  1.00  0.00     0.038 A 
HETATM   16  C12 UNK     1      20.139  -7.755  35.253  1.00  0.00     0.014 A 
HETATM   17  C8  UNK     1      19.577  -5.379  35.774  1.00  0.00     0.037 A 
HETATM   18  C17 UNK     1      20.883  -8.906  35.530  1.00  0.00     0.001 A 
HETATM   19  C18 UNK     1      21.815  -8.910  36.571  1.00  0.00     0.003 A 
ENDBRANCH   8   9
BRANCH   3  20
HETATM   20  C6  UNK     1      19.646  -0.764  31.289  1.00  0.00     0.724 A 
HETATM   21  N3  UNK     1      19.052   0.433  31.010  1.00  0.00    -0.075 NA
HETATM   22  C13 UNK     1      19.079   0.832  29.721  1.00  0.00     0.138 A 
HETATM   23  C16 UNK     1      19.664   0.105  28.705  1.00  0.00     0.040 A 
HETATM   24  C14 UNK     1      20.239  -1.091  29.083  1.00  0.00     0.138 A 
HETATM   25  N4  UNK     1      20.249  -1.552  30.351  1.00  0.00    -0.075 NA
ENDBRANCH   3  20
TORSDOF 2
ENDMDL
MODEL 2
REMARK VINA RESULT:      -8.3      2.800      7.745
REMARK  2 active torsions:
REMARK  status: ('A' for Active; 'I' for Inactive)
REMARK       I    between atoms: C5_12  and  N1_4 
REMARK    1  A    between atoms: C6_13  and  N2_5 
REMARK    2  A    between atoms: C5_12  and  C7_14 
ROOT
HETATM    1  O1  UNK     1      20.716  -2.856  37.895  1.00  0.00    -0.267 OA
HETATM    2  N1  UNK     1      19.885  -4.806  36.941  1.00  0.00    -0.345 N 
HETATM    3  N2  UNK     1      20.583  -7.505  36.506  1.00  0.00    -0.211 N 
HETATM    4  C1  UNK     1      19.225  -5.556  35.869  1.00  0.00     0.146 C 
HETATM    5  C2  UNK     1      20.253  -5.639  38.084  1.00  0.00     0.146 C 
HETATM    6  C3  UNK     1      20.129  -6.683  35.374  1.00  0.00     0.161 C 
HETATM    7  C4  UNK     1      21.172  -6.778  37.642  1.00  0.00     0.161 C 
HETATM    8  C5  UNK     1      20.155  -3.442  36.967  1.00  0.00     0.260 C 
ENDROOT
BRANCH   8   9
HETATM    9  C7  UNK     1      19.749  -2.639  35.798  1.00  0.00     0.108 A 
HETATM   10  C10 UNK     1      18.623  -1.679  35.856  1.00  0.00     0.304 A 
HETATM   11  O2  UNK     1      18.336  -0.980  34.688  1.00  0.00    -0.274 OA
HETATM   12  O3  UNK     1      17.972  -1.506  36.881  1.00  0.00    -0.259 OA
HETATM   13  C11 UNK     1      19.077  -1.172  33.504  1.00  0.00     0.089 A 
HETATM   14  C9  UNK     1      20.132  -2.079  33.472  1.00  0.00    -0.001 A 
HETATM   15  C15 UNK     1      18.714  -0.426  32.385  1.00  0.00     0.038 A 
HETATM   16  C12 UNK     1      20.843  -2.243  32.280  1.00  0.00     0.014 A 
HETATM   17  C8  UNK     1      20.456  -2.826  34.677  1.00  0.00     0.037 A 
HETATM   18  C17 UNK     1      20.492  -1.501  31.148  1.00  0.00     0.001 A 
HETATM   19  C18 UNK     1      19.429  -0.595  31.201  1.00  0.00     0.003 A 
ENDBRANCH   8   9
BRANCH   3  20
HETATM   20  C6  UNK     1      21.023  -8.814  36.274  1.00  0.00     0.724 A 
HETATM   21  N3  UNK     1      21.575  -9.101  35.059  1.00  0.00    -0.075 NA
HETATM   22  C13 UNK     1      21.988 -10.372  34.870  1.00  0.00     0.138 A 
HETATM   23  C16 UNK     1      21.881 -11.363  35.823  1.00  0.00     0.040 A 
HETATM   24  C14 UNK     1      21.310 -10.979  37.020  1.00  0.00     0.138 A 
HETATM   25  N4  UNK     1      20.875  -9.729  37.278  1.00  0.00    -0.075 NA
ENDBRANCH   3  20
TORSDOF 2
ENDMDL
MODEL 3
REMARK VINA RESULT:      -8.1      8.000     10.682
REMARK  2 active torsions:
REMARK  status: ('A' for Active; 'I' for Inactive)
REMARK       I    between atoms: C5_12  and  N1_4 
REMARK    1  A    between atoms: C6_13  and  N2_5 
REMARK    2  A    between atoms: C5_12  and  C7_14 
ROOT
HETATM    1  O1  UNK     1      20.175   6.039  33.336  1.00  0.00    -0.267 OA
HETATM    2  N1  UNK     1      17.964   6.652  32.970  1.00  0.00    -0.345 N 
HETATM    3  N2  UNK     1      16.084   8.626  33.699  1.00  0.00    -0.211 N 
HETATM    4  C1  UNK     1      16.532   6.362  32.850  1.00  0.00     0.146 C 
HETATM    5  C2  UNK     1      18.287   8.059  32.745  1.00  0.00     0.146 C 
HETATM    6  C3  UNK     1      15.734   7.205  33.842  1.00  0.00     0.161 C 
HETATM    7  C4  UNK     1      17.521   8.947  33.726  1.00  0.00     0.161 C 
HETATM    8  C5  UNK     1      18.982   5.746  33.244  1.00  0.00     0.260 C 
ENDROOT
BRANCH   8   9
HETATM    9  C7  UNK     1      18.609   4.332  33.446  1.00  0.00     0.108 A 
HETATM   10  C10 UNK     1      18.215   3.455  32.320  1.00  0.00     0.304 A 
HETATM   11  O2  UNK     1      17.886   2.140  32.638  1.00  0.00    -0.274 OA
HETATM   12  O3  UNK     1      18.179   3.861  31.164  1.00  0.00    -0.259 OA
HETATM   13  C11 UNK     1      17.923   1.663  33.963  1.00  0.00     0.089 A 
HETATM   14  C9  UNK     1      18.297   2.505  35.006  1.00  0.00    -0.001 A 
HETATM   15  C15 UNK     1      17.575   0.332  34.182  1.00  0.00     0.038 A 
HETATM   16  C12 UNK     1      18.322   1.996  36.307  1.00  0.00     0.014 A 
HETATM   17  C8  UNK     1      18.646   3.884  34.706  1.00  0.00     0.037 A 
HETATM   18  C17 UNK     1      17.977   0.662  36.543  1.00  0.00     0.001 A 
HETATM   19  C18 UNK     1      17.604  -0.168  35.483  1.00  0.00     0.003 A 
ENDBRANCH   8   9
BRANCH   3  20
HETATM   20  C6  UNK     1      15.191   9.605  34.152  1.00  0.00     0.724 A 
HETATM   21  N3  UNK     1      14.257  10.078  33.276  1.00  0.00    -0.075 NA
HETATM   22  C13 UNK     1      13.413  11.020  33.746  1.00  0.00     0.138 A 
HETATM   23  C16 UNK     1      13.452  11.510  35.035  1.00  0.00     0.040 A 
HETATM   24  C14 UNK     1      14.429  10.972  35.848  1.00  0.00     0.138 A 
HETATM   25  N4  UNK     1      15.306  10.030  35.446  1.00  0.00    -0.075 NA
ENDBRANCH   3  20
TORSDOF 2
ENDMDL
MODEL 4
REMARK VINA RESULT:      -8.0     27.362     29.147
REMARK  2 active torsions:
REMARK  status: ('A' for Active; 'I' for Inactive)
REMARK       I    between atoms: C5_12  and  N1_4 
REMARK    1  A    between atoms: C6_13  and  N2_5 
REMARK    2  A    between atoms: C5_12  and  C7_14 
ROOT
HETATM    1  O1  UNK     1       9.329   5.597   6.840  1.00  0.00    -0.267 OA
HETATM    2  N1  UNK     1      10.778   6.874   8.131  1.00  0.00    -0.345 N 
HETATM    3  N2  UNK     1      13.507   7.069   8.824  1.00  0.00    -0.211 N 
HETATM    4  C1  UNK     1      11.160   7.569   9.364  1.00  0.00     0.146 C 
HETATM    5  C2  UNK     1      11.775   6.996   7.070  1.00  0.00     0.146 C 
HETATM    6  C3  UNK     1      12.491   7.032   9.887  1.00  0.00     0.161 C 
HETATM    7  C4  UNK     1      13.126   6.457   7.540  1.00  0.00     0.161 C 
HETATM    8  C5  UNK     1       9.604   6.167   7.897  1.00  0.00     0.260 C 
ENDROOT
BRANCH   8   9
HETATM    9  C7  UNK     1       8.619   6.087   8.993  1.00  0.00     0.108 A 
HETATM   10  C10 UNK     1       8.564   4.933   9.918  1.00  0.00     0.304 A 
HETATM   11  O2  UNK     1       7.591   4.974  10.912  1.00  0.00    -0.274 OA
HETATM   12  O3  UNK     1       9.336   3.985   9.818  1.00  0.00    -0.259 OA
HETATM   13  C11 UNK     1       6.699   6.058  11.036  1.00  0.00     0.089 A 
HETATM   14  C9  UNK     1       6.769   7.134  10.156  1.00  0.00    -0.001 A 
HETATM   15  C15 UNK     1       5.759   6.008  12.063  1.00  0.00     0.038 A 
HETATM   16  C12 UNK     1       5.868   8.190  10.311  1.00  0.00     0.014 A 
HETATM   17  C8  UNK     1       7.775   7.120   9.106  1.00  0.00     0.037 A 
HETATM   18  C17 UNK     1       4.919   8.156  11.337  1.00  0.00     0.001 A 
HETATM   19  C18 UNK     1       4.865   7.067  12.210  1.00  0.00     0.003 A 
ENDBRANCH   8   9
BRANCH   3  20
HETATM   20  C6  UNK     1      14.864   7.066   9.168  1.00  0.00     0.724 A 
HETATM   21  N3  UNK     1      15.436   8.249   9.539  1.00  0.00    -0.075 NA
HETATM   22  C13 UNK     1      16.745   8.209   9.864  1.00  0.00     0.138 A 
HETATM   23  C16 UNK     1      17.507   7.060   9.840  1.00  0.00     0.040 A 
HETATM   24  C14 UNK     1      16.843   5.913   9.453  1.00  0.00     0.138 A 
HETATM   25  N4  UNK     1      15.538   5.879   9.115  1.00  0.00    -0.075 NA
ENDBRANCH   3  20
TORSDOF 2
ENDMDL
MODEL 5
REMARK VINA RESULT:      -8.0      8.171     10.268
REMARK  2 active torsions:
REMARK  status: ('A' for Active; 'I' for Inactive)
REMARK       I    between atoms: C5_12  and  N1_4 
REMARK    1  A    between atoms: C6_13  and  N2_5 
REMARK    2  A    between atoms: C5_12  and  C7_14 
ROOT
HETATM    1  O1  UNK     1      27.601 -10.212  38.884  1.00  0.00    -0.267 OA
HETATM    2  N1  UNK     1      28.297  -8.964  37.053  1.00  0.00    -0.345 N 
HETATM    3  N2  UNK     1      30.114  -6.921  36.353  1.00  0.00    -0.211 N 
HETATM    4  C1  UNK     1      28.053  -8.164  35.849  1.00  0.00     0.146 C 
HETATM    5  C2  UNK     1      29.718  -9.144  37.344  1.00  0.00     0.146 C 
HETATM    6  C3  UNK     1      28.697  -6.786  35.986  1.00  0.00     0.161 C 
HETATM    7  C4  UNK     1      30.407  -7.789  37.505  1.00  0.00     0.161 C 
HETATM    8  C5  UNK     1      27.344  -9.547  37.879  1.00  0.00     0.260 C 
ENDROOT
BRANCH   8   9
HETATM    9  C7  UNK     1      25.922  -9.353  37.533  1.00  0.00     0.108 A 
HETATM   10  C10 UNK     1      25.167  -8.153  37.960  1.00  0.00     0.304 A 
HETATM   11  O2  UNK     1      23.832  -8.084  37.571  1.00  0.00    -0.274 OA
HETATM   12  O3  UNK     1      25.687  -7.261  38.622  1.00  0.00    -0.259 OA
HETATM   13  C11 UNK     1      23.225  -9.103  36.810  1.00  0.00     0.089 A 
HETATM   14  C9  UNK     1      23.954 -10.222  36.420  1.00  0.00    -0.001 A 
HETATM   15  C15 UNK     1      21.883  -8.945  36.470  1.00  0.00     0.038 A 
HETATM   16  C12 UNK     1      23.318 -11.212  35.666  1.00  0.00     0.014 A 
HETATM   17  C8  UNK     1      25.351 -10.324  36.811  1.00  0.00     0.037 A 
HETATM   18  C17 UNK     1      21.972 -11.067  35.315  1.00  0.00     0.001 A 
HETATM   19  C18 UNK     1      21.257  -9.936  35.717  1.00  0.00     0.003 A 
ENDBRANCH   8   9
BRANCH   3  20
HETATM   20  C6  UNK     1      30.997  -5.865  36.093  1.00  0.00     0.724 A 
HETATM   21  N3  UNK     1      31.057  -4.842  36.995  1.00  0.00    -0.075 NA
HETATM   22  C13 UNK     1      31.918  -3.842  36.713  1.00  0.00     0.138 A 
HETATM   23  C16 UNK     1      32.717  -3.811  35.589  1.00  0.00     0.040 A 
HETATM   24  C14 UNK     1      32.588  -4.888  34.736  1.00  0.00     0.138 A 
HETATM   25  N4  UNK     1      31.748  -5.921  34.954  1.00  0.00    -0.075 NA
ENDBRANCH   3  20
TORSDOF 2
ENDMDL
MODEL 6
REMARK VINA RESULT:      -8.0      3.625      7.955
REMARK  2 active torsions:
REMARK  status: ('A' for Active; 'I' for Inactive)
REMARK       I    between atoms: C5_12  and  N1_4 
REMARK    1  A    between atoms: C6_13  and  N2_5 
REMARK    2  A    between atoms: C5_12  and  C7_14 
ROOT
HETATM    1  O1  UNK     1      21.388  -2.861  38.080  1.00  0.00    -0.267 OA
HETATM    2  N1  UNK     1      20.243  -4.782  37.452  1.00  0.00    -0.345 N 
HETATM    3  N2  UNK     1      20.705  -7.446  36.643  1.00  0.00    -0.211 N 
HETATM    4  C1  UNK     1      19.205  -5.497  36.704  1.00  0.00     0.146 C 
HETATM    5  C2  UNK     1      21.042  -5.657  38.308  1.00  0.00     0.146 C 
HETATM    6  C3  UNK     1      19.832  -6.584  35.832  1.00  0.00     0.161 C 
HETATM    7  C4  UNK     1      21.703  -6.758  37.478  1.00  0.00     0.161 C 
HETATM    8  C5  UNK     1      20.500  -3.416  37.431  1.00  0.00     0.260 C 
ENDROOT
BRANCH   8   9
HETATM    9  C7  UNK     1      19.655  -2.571  36.566  1.00  0.00     0.108 A 
HETATM   10  C10 UNK     1      19.873  -2.476  35.104  1.00  0.00     0.304 A 
HETATM   11  O2  UNK     1      19.009  -1.646  34.396  1.00  0.00    -0.274 OA
HETATM   12  O3  UNK     1      20.768  -3.098  34.541  1.00  0.00    -0.259 OA
HETATM   13  C11 UNK     1      17.978  -0.927  35.034  1.00  0.00     0.089 A 
HETATM   14  C9  UNK     1      17.792  -1.031  36.409  1.00  0.00    -0.001 A 
HETATM   15  C15 UNK     1      17.165  -0.120  34.240  1.00  0.00     0.038 A 
HETATM   16  C12 UNK     1      16.758  -0.303  37.005  1.00  0.00     0.014 A 
HETATM   17  C8  UNK     1      18.678  -1.890  37.176  1.00  0.00     0.037 A 
HETATM   18  C17 UNK     1      15.933   0.510  36.222  1.00  0.00     0.001 A 
HETATM   19  C18 UNK     1      16.137   0.601  34.843  1.00  0.00     0.003 A 
ENDBRANCH   8   9
BRANCH   3  20
HETATM   20  C6  UNK     1      21.013  -8.735  36.192  1.00  0.00     0.724 A 
HETATM   21  N3  UNK     1      21.508  -8.872  34.927  1.00  0.00    -0.075 NA
HETATM   22  C13 UNK     1      21.794 -10.127  34.525  1.00  0.00     0.138 A 
HETATM   23  C16 UNK     1      21.614 -11.245  35.313  1.00  0.00     0.040 A 
HETATM   24  C14 UNK     1      21.110 -11.009  36.576  1.00  0.00     0.138 A 
HETATM   25  N4  UNK     1      20.801  -9.782  37.043  1.00  0.00    -0.075 NA
ENDBRANCH   3  20
TORSDOF 2
ENDMDL
MODEL 7
REMARK VINA RESULT:      -7.9      1.362      2.066
REMARK  2 active torsions:
REMARK  status: ('A' for Active; 'I' for Inactive)
REMARK       I    between atoms: C5_12  and  N1_4 
REMARK    1  A    between atoms: C6_13  and  N2_5 
REMARK    2  A    between atoms: C5_12  and  C7_14 
ROOT
HETATM    1  O1  UNK     1      17.948  -2.818  37.173  1.00  0.00    -0.267 OA
HETATM    2  N1  UNK     1      19.587  -2.402  35.580  1.00  0.00    -0.345 N 
HETATM    3  N2  UNK     1      19.882  -1.550  32.906  1.00  0.00    -0.211 N 
HETATM    4  C1  UNK     1      20.811  -2.739  34.848  1.00  0.00     0.146 C 
HETATM    5  C2  UNK     1      19.007  -1.124  35.172  1.00  0.00     0.146 C 
HETATM    6  C3  UNK     1      20.536  -2.792  33.346  1.00  0.00     0.161 C 
HETATM    7  C4  UNK     1      18.699  -1.131  33.675  1.00  0.00     0.161 C 
HETATM    8  C5  UNK     1      18.981  -3.145  36.587  1.00  0.00     0.260 C 
ENDROOT
BRANCH   8   9
HETATM    9  C7  UNK     1      19.614  -4.420  36.977  1.00  0.00     0.108 A 
HETATM   10  C10 UNK     1      18.999  -5.730  36.670  1.00  0.00     0.304 A 
HETATM   11  O2  UNK     1      19.693  -6.861  37.089  1.00  0.00    -0.274 OA
HETATM   12  O3  UNK     1      17.930  -5.820  36.074  1.00  0.00    -0.259 OA
HETATM   13  C11 UNK     1      20.921  -6.769  37.774  1.00  0.00     0.089 A 
HETATM   14  C9  UNK     1      21.482  -5.526  38.053  1.00  0.00    -0.001 A 
HETATM   15  C15 UNK     1      21.541  -7.957  38.155  1.00  0.00     0.038 A 
HETATM   16  C12 UNK     1      22.701  -5.475  38.734  1.00  0.00     0.014 A 
HETATM   17  C8  UNK     1      20.781  -4.326  37.627  1.00  0.00     0.037 A 
HETATM   18  C17 UNK     1      23.336  -6.659  39.121  1.00  0.00     0.001 A 
HETATM   19  C18 UNK     1      22.757  -7.897  38.833  1.00  0.00     0.003 A 
ENDBRANCH   8   9
BRANCH   3  20
HETATM   20  C6  UNK     1      19.946  -1.179  31.558  1.00  0.00     0.724 A 
HETATM   21  N3  UNK     1      19.781   0.140  31.245  1.00  0.00    -0.075 NA
HETATM   22  C13 UNK     1      19.849   0.462  29.937  1.00  0.00     0.138 A 
HETATM   23  C16 UNK     1      20.072  -0.456  28.932  1.00  0.00     0.040 A 
HETATM   24  C14 UNK     1      20.228  -1.764  29.343  1.00  0.00     0.138 A 
HETATM   25  N4  UNK     1      20.172  -2.158  30.632  1.00  0.00    -0.075 NA
ENDBRANCH   3  20
TORSDOF 2
ENDMDL
MODEL 8
REMARK VINA RESULT:      -7.7     10.955     13.060
REMARK  2 active torsions:
REMARK  status: ('A' for Active; 'I' for Inactive)
REMARK       I    between atoms: C5_12  and  N1_4 
REMARK    1  A    between atoms: C6_13  and  N2_5 
REMARK    2  A    between atoms: C5_12  and  C7_14 
ROOT
HETATM    1  O1  UNK     1      30.711  -3.271  36.972  1.00  0.00    -0.267 OA
HETATM    2  N1  UNK     1      32.119  -5.106  37.187  1.00  0.00    -0.345 N 
HETATM    3  N2  UNK     1      34.122  -6.512  35.782  1.00  0.00    -0.211 N 
HETATM    4  C1  UNK     1      32.400  -6.501  37.539  1.00  0.00     0.146 C 
HETATM    5  C2  UNK     1      33.298  -4.383  36.716  1.00  0.00     0.146 C 
HETATM    6  C3  UNK     1      32.975  -7.247  36.335  1.00  0.00     0.161 C 
HETATM    7  C4  UNK     1      33.904  -5.084  35.500  1.00  0.00     0.161 C 
HETATM    8  C5  UNK     1      30.898  -4.448  37.282  1.00  0.00     0.260 C 
ENDROOT
BRANCH   8   9
HETATM    9  C7  UNK     1      29.740  -5.215  37.781  1.00  0.00     0.108 A 
HETATM   10  C10 UNK     1      29.126  -4.942  39.100  1.00  0.00     0.304 A 
HETATM   11  O2  UNK     1      28.038  -5.733  39.459  1.00  0.00    -0.274 OA
HETATM   12  O3  UNK     1      29.550  -4.063  39.843  1.00  0.00    -0.259 OA
HETATM   13  C11 UNK     1      27.543  -6.745  38.614  1.00  0.00     0.089 A 
HETATM   14  C9  UNK     1      28.136  -6.985  37.377  1.00  0.00    -0.001 A 
HETATM   15  C15 UNK     1      26.450  -7.485  39.061  1.00  0.00     0.038 A 
HETATM   16  C12 UNK     1      27.616  -7.998  36.566  1.00  0.00     0.014 A 
HETATM   17  C8  UNK     1      29.274  -6.176  36.974  1.00  0.00     0.037 A 
HETATM   18  C17 UNK     1      26.519  -8.748  37.001  1.00  0.00     0.001 A 
HETATM   19  C18 UNK     1      25.938  -8.492  38.245  1.00  0.00     0.003 A 
ENDBRANCH   8   9
BRANCH   3  20
HETATM   20  C6  UNK     1      35.064  -7.192  35.002  1.00  0.00     0.724 A 
HETATM   21  N3  UNK     1      34.630  -8.230  34.228  1.00  0.00    -0.075 NA
HETATM   22  C13 UNK     1      35.565  -8.862  33.489  1.00  0.00     0.138 A 
HETATM   23  C16 UNK     1      36.900  -8.515  33.481  1.00  0.00     0.040 A 
HETATM   24  C14 UNK     1      37.245  -7.454  34.293  1.00  0.00     0.138 A 
HETATM   25  N4  UNK     1      36.365  -6.777  35.058  1.00  0.00    -0.075 NA
ENDBRANCH   3  20
TORSDOF 2
ENDMDL
MODEL 9
REMARK VINA RESULT:      -7.7      9.478     12.690
REMARK  2 active torsions:
REMARK  status: ('A' for Active; 'I' for Inactive)
REMARK       I    between atoms: C5_12  and  N1_4 
REMARK    1  A    between atoms: C6_13  and  N2_5 
REMARK    2  A    between atoms: C5_12  and  C7_14 
ROOT
HETATM    1  O1  UNK     1      30.839 -10.722  39.101  1.00  0.00    -0.267 OA
HETATM    2  N1  UNK     1      29.146  -9.313  38.360  1.00  0.00    -0.345 N 
HETATM    3  N2  UNK     1      26.435  -9.362  37.581  1.00  0.00    -0.211 N 
HETATM    4  C1  UNK     1      28.620  -8.236  37.517  1.00  0.00     0.146 C 
HETATM    5  C2  UNK     1      28.152  -9.862  39.280  1.00  0.00     0.146 C 
HETATM    6  C3  UNK     1      27.430  -8.734  36.699  1.00  0.00     0.161 C 
HETATM    7  C4  UNK     1      26.942 -10.388  38.507  1.00  0.00     0.161 C 
HETATM    8  C5  UNK     1      30.444  -9.811  38.371  1.00  0.00     0.260 C 
ENDROOT
BRANCH   8   9
HETATM    9  C7  UNK     1      31.418  -9.213  37.437  1.00  0.00     0.108 A 
HETATM   10  C10 UNK     1      31.503  -9.626  36.018  1.00  0.00     0.304 A 
HETATM   11  O2  UNK     1      32.462  -8.987  35.238  1.00  0.00    -0.274 OA
HETATM   12  O3  UNK     1      30.766 -10.486  35.549  1.00  0.00    -0.259 OA
HETATM   13  C11 UNK     1      33.313  -7.997  35.767  1.00  0.00     0.089 A 
HETATM   14  C9  UNK     1      33.216  -7.624  37.104  1.00  0.00    -0.001 A 
HETATM   15  C15 UNK     1      34.243  -7.415  34.908  1.00  0.00     0.038 A 
HETATM   16  C12 UNK     1      34.078  -6.638  37.593  1.00  0.00     0.014 A 
HETATM   17  C8  UNK     1      32.224  -8.273  37.946  1.00  0.00     0.037 A 
HETATM   18  C17 UNK     1      35.015  -6.044  36.743  1.00  0.00     0.001 A 
HETATM   19  C18 UNK     1      35.097  -6.433  35.403  1.00  0.00     0.003 A 
ENDBRANCH   8   9
BRANCH   3  20
HETATM   20  C6  UNK     1      25.107  -9.475  37.152  1.00  0.00     0.724 A 
HETATM   21  N3  UNK     1      24.227  -8.498  37.520  1.00  0.00    -0.075 NA
HETATM   22  C13 UNK     1      22.956  -8.638  37.088  1.00  0.00     0.138 A 
HETATM   23  C16 UNK     1      22.521  -9.693  36.313  1.00  0.00     0.040 A 
HETATM   24  C14 UNK     1      23.481 -10.631  35.990  1.00  0.00     0.138 A 
HETATM   25  N4  UNK     1      24.768 -10.555  36.387  1.00  0.00    -0.075 NA
ENDBRANCH   3  20
TORSDOF 2
ENDMDL
MODEL 10
REMARK VINA RESULT:      -7.7     17.579     20.842
REMARK  2 active torsions:
REMARK  status: ('A' for Active; 'I' for Inactive)
REMARK       I    between atoms: C5_12  and  N1_4 
REMARK    1  A    between atoms: C6_13  and  N2_5 
REMARK    2  A    between atoms: C5_12  and  C7_14 
ROOT
HETATM    1  O1  UNK     1      16.951  -5.760  13.844  1.00  0.00    -0.267 OA
HETATM    2  N1  UNK     1      18.469  -4.528  15.099  1.00  0.00    -0.345 N 
HETATM    3  N2  UNK     1      18.753  -2.015  16.351  1.00  0.00    -0.211 N 
HETATM    4  C1  UNK     1      19.812  -4.015  15.387  1.00  0.00     0.146 C 
HETATM    5  C2  UNK     1      17.469  -4.103  16.075  1.00  0.00     0.146 C 
HETATM    6  C3  UNK     1      19.799  -2.487  15.432  1.00  0.00     0.161 C 
HETATM    7  C4  UNK     1      17.407  -2.577  16.148  1.00  0.00     0.161 C 
HETATM    8  C5  UNK     1      18.097  -5.355  14.045  1.00  0.00     0.260 C 
ENDROOT
BRANCH   8   9
HETATM    9  C7  UNK     1      19.146  -5.773  13.095  1.00  0.00     0.108 A 
HETATM   10  C10 UNK     1      19.379  -5.062  11.817  1.00  0.00     0.304 A 
HETATM   11  O2  UNK     1      20.398  -5.551  11.006  1.00  0.00    -0.274 OA
HETATM   12  O3  UNK     1      18.709  -4.089  11.486  1.00  0.00    -0.259 OA
HETATM   13  C11 UNK     1      21.173  -6.668  11.377  1.00  0.00     0.089 A 
HETATM   14  C9  UNK     1      20.938  -7.321  12.583  1.00  0.00    -0.001 A 
HETATM   15  C15 UNK     1      22.171  -7.084  10.498  1.00  0.00     0.038 A 
HETATM   16  C12 UNK     1      21.727  -8.425  12.916  1.00  0.00     0.014 A 
HETATM   17  C8  UNK     1      19.879  -6.834  13.453  1.00  0.00     0.037 A 
HETATM   18  C17 UNK     1      22.733  -8.854  12.045  1.00  0.00     0.001 A 
HETATM   19  C18 UNK     1      22.954  -8.185  10.839  1.00  0.00     0.003 A 
ENDBRANCH   8   9
BRANCH   3  20
HETATM   20  C6  UNK     1      18.844  -0.728  16.896  1.00  0.00     0.724 A 
HETATM   21  N3  UNK     1      18.630  -0.581  18.236  1.00  0.00    -0.075 NA
HETATM   22  C13 UNK     1      18.726   0.673  18.727  1.00  0.00     0.138 A 
HETATM   23  C16 UNK     1      19.024   1.777  17.956  1.00  0.00     0.040 A 
HETATM   24  C14 UNK     1      19.224   1.531  16.613  1.00  0.00     0.138 A 
HETATM   25  N4  UNK     1      19.143   0.306  16.055  1.00  0.00    -0.075 NA
ENDBRANCH   3  20
TORSDOF 2
ENDMDL
