MODEL 1
REMARK VINA RESULT:      -9.6      0.000      0.000
REMARK  4 active torsions:
REMARK  status: ('A' for Active; 'I' for Inactive)
REMARK    1  A    between atoms: C12_16  and  O1_3 
REMARK    2  A    between atoms: C8_12  and  O1_3 
REMARK    3  A    between atoms: C5_9  and  C6_10 
REMARK    4  A    between atoms: C12_16  and  C13_17 
ROOT
HETATM    1  C5  UNK     1      18.692   6.314  32.375  1.00  0.00    -0.035 A 
HETATM    2  C8  UNK     1      18.668   3.749  31.229  1.00  0.00     0.069 A 
HETATM    3  C10 UNK     1      18.269   5.199  33.118  1.00  0.00     0.014 A 
HETATM    4  C11 UNK     1      19.103   6.118  31.046  1.00  0.00     0.014 A 
HETATM    5  C14 UNK     1      18.256   3.926  32.549  1.00  0.00     0.037 A 
HETATM    6  C15 UNK     1      19.091   4.845  30.477  1.00  0.00     0.037 A 
ENDROOT
BRANCH   1   7
HETATM    7  C6  UNK     1      18.705   7.623  32.960  1.00  0.00     0.034 C 
HETATM    8  C2  UNK     1      17.623   8.382  33.146  1.00  0.00     0.057 A 
HETATM    9  S1  UNK     1      16.006   7.931  32.718  1.00  0.00    -0.086 SA
HETATM   10  C4  UNK     1      17.690   9.736  33.759  1.00  0.00     0.200 A 
HETATM   11  C3  UNK     1      15.365   9.474  33.315  1.00  0.00     0.020 A 
HETATM   12  C1  UNK     1      16.344  10.320  33.831  1.00  0.00     0.032 A 
HETATM   13  C9  UNK     1      14.036   9.872  33.306  1.00  0.00     0.020 A 
HETATM   14  C7  UNK     1      16.037  11.570  34.347  1.00  0.00     0.017 A 
HETATM   15  C16 UNK     1      14.701  11.972  34.339  1.00  0.00     0.001 A 
HETATM   16  C17 UNK     1      13.707  11.128  33.822  1.00  0.00     0.001 A 
HETATM   17  O2  UNK     1      18.697  10.297  34.149  1.00  0.00    -0.286 OA
ENDBRANCH   1   7
BRANCH   2  18
HETATM   18  O1  UNK     1      18.656   2.506  30.673  1.00  0.00    -0.347 OA
BRANCH  18  19
HETATM   19  C12 UNK     1      18.732   1.395  31.565  1.00  0.00     0.216 C 
BRANCH  19  20
HETATM   20  C13 UNK     1      19.390   0.246  30.860  1.00  0.00    -0.012 A 
HETATM   21  C18 UNK     1      19.538  -0.994  31.475  1.00  0.00     0.042 A 
HETATM   22 Cl1  UNK     1      18.973  -1.277  33.081  1.00  0.00    -0.084 Cl
HETATM   23  C20 UNK     1      20.155  -2.040  30.788  1.00  0.00     0.024 A 
HETATM   24  C22 UNK     1      20.622  -1.841  29.489  1.00  0.00     0.002 A 
HETATM   25  C21 UNK     1      20.471  -0.597  28.877  1.00  0.00     0.001 A 
HETATM   26  C19 UNK     1      19.854   0.449  29.563  1.00  0.00     0.011 A 
ENDBRANCH  19  20
ENDBRANCH  18  19
ENDBRANCH   2  18
TORSDOF 4
ENDMDL
MODEL 2
REMARK VINA RESULT:      -9.2      8.316     11.732
REMARK  4 active torsions:
REMARK  status: ('A' for Active; 'I' for Inactive)
REMARK    1  A    between atoms: C12_16  and  O1_3 
REMARK    2  A    between atoms: C8_12  and  O1_3 
REMARK    3  A    between atoms: C5_9  and  C6_10 
REMARK    4  A    between atoms: C12_16  and  C13_17 
ROOT
HETATM    1  C5  UNK     1      19.908  -4.770  36.738  1.00  0.00    -0.035 A 
HETATM    2  C8  UNK     1      20.023  -6.918  38.547  1.00  0.00     0.069 A 
HETATM    3  C10 UNK     1      18.938  -5.786  36.710  1.00  0.00     0.014 A 
HETATM    4  C11 UNK     1      20.938  -4.852  37.692  1.00  0.00     0.014 A 
HETATM    5  C14 UNK     1      18.994  -6.852  37.608  1.00  0.00     0.037 A 
HETATM    6  C15 UNK     1      20.995  -5.919  38.589  1.00  0.00     0.037 A 
ENDROOT
BRANCH   1   7
HETATM    7  C6  UNK     1      19.851  -3.674  35.816  1.00  0.00     0.034 C 
HETATM    8  C2  UNK     1      19.310  -2.484  36.084  1.00  0.00     0.057 A 
HETATM    9  S1  UNK     1      18.578  -2.041  37.590  1.00  0.00    -0.086 SA
HETATM   10  C4  UNK     1      19.276  -1.377  35.090  1.00  0.00     0.200 A 
HETATM   11  C3  UNK     1      18.204  -0.415  36.986  1.00  0.00     0.020 A 
HETATM   12  C1  UNK     1      18.621  -0.199  35.674  1.00  0.00     0.032 A 
HETATM   13  C9  UNK     1      17.566   0.598  37.688  1.00  0.00     0.020 A 
HETATM   14  C7  UNK     1      18.420   1.011  35.029  1.00  0.00     0.017 A 
HETATM   15  C16 UNK     1      17.778   2.030  35.733  1.00  0.00     0.001 A 
HETATM   16  C17 UNK     1      17.354   1.825  37.054  1.00  0.00     0.001 A 
HETATM   17  O2  UNK     1      19.718  -1.419  33.957  1.00  0.00    -0.286 OA
ENDBRANCH   1   7
BRANCH   2  18
HETATM   18  O1  UNK     1      20.078  -7.958  39.423  1.00  0.00    -0.347 OA
BRANCH  18  19
HETATM   19  C12 UNK     1      21.269  -8.745  39.423  1.00  0.00     0.216 C 
BRANCH  19  20
HETATM   20  C13 UNK     1      21.419  -9.403  38.082  1.00  0.00    -0.012 A 
HETATM   21  C18 UNK     1      20.563 -10.421  37.673  1.00  0.00     0.042 A 
HETATM   22 Cl1  UNK     1      19.281 -10.981  38.683  1.00  0.00    -0.084 Cl
HETATM   23  C20 UNK     1      20.734 -11.009  36.420  1.00  0.00     0.024 A 
HETATM   24  C22 UNK     1      21.761 -10.577  35.581  1.00  0.00     0.002 A 
HETATM   25  C21 UNK     1      22.617  -9.557  35.996  1.00  0.00     0.001 A 
HETATM   26  C19 UNK     1      22.446  -8.968  37.249  1.00  0.00     0.011 A 
ENDBRANCH  19  20
ENDBRANCH  18  19
ENDBRANCH   2  18
TORSDOF 4
ENDMDL
MODEL 3
REMARK VINA RESULT:      -9.1      1.343      2.047
REMARK  4 active torsions:
REMARK  status: ('A' for Active; 'I' for Inactive)
REMARK    1  A    between atoms: C12_16  and  O1_3 
REMARK    2  A    between atoms: C8_12  and  O1_3 
REMARK    3  A    between atoms: C5_9  and  C6_10 
REMARK    4  A    between atoms: C12_16  and  C13_17 
ROOT
HETATM    1  C5  UNK     1      18.882   6.188  32.833  1.00  0.00    -0.035 A 
HETATM    2  C8  UNK     1      18.245   3.621  31.884  1.00  0.00     0.069 A 
HETATM    3  C10 UNK     1      18.979   5.883  31.464  1.00  0.00     0.014 A 
HETATM    4  C11 UNK     1      18.458   5.180  33.716  1.00  0.00     0.014 A 
HETATM    5  C14 UNK     1      18.664   4.609  30.993  1.00  0.00     0.037 A 
HETATM    6  C15 UNK     1      18.142   3.906  33.245  1.00  0.00     0.037 A 
ENDROOT
BRANCH   1   7
HETATM    7  C6  UNK     1      19.206   7.497  33.317  1.00  0.00     0.034 C 
HETATM    8  C2  UNK     1      18.324   8.483  33.492  1.00  0.00     0.057 A 
HETATM    9  S1  UNK     1      16.626   8.367  33.167  1.00  0.00    -0.086 SA
HETATM   10  C4  UNK     1      18.713   9.826  34.000  1.00  0.00     0.200 A 
HETATM   11  C3  UNK     1      16.364  10.046  33.674  1.00  0.00     0.020 A 
HETATM   12  C1  UNK     1      17.529  10.691  34.085  1.00  0.00     0.032 A 
HETATM   13  C9  UNK     1      15.152  10.721  33.692  1.00  0.00     0.020 A 
HETATM   14  C7  UNK     1      17.525  12.008  34.519  1.00  0.00     0.017 A 
HETATM   15  C16 UNK     1      16.307  12.688  34.538  1.00  0.00     0.001 A 
HETATM   16  C17 UNK     1      15.128  12.049  34.127  1.00  0.00     0.001 A 
HETATM   17  O2  UNK     1      19.837  10.178  34.304  1.00  0.00    -0.286 OA
ENDBRANCH   1   7
BRANCH   2  18
HETATM   18  O1  UNK     1      17.936   2.377  31.424  1.00  0.00    -0.347 OA
BRANCH  18  19
HETATM   19  C12 UNK     1      18.933   1.703  30.657  1.00  0.00     0.216 C 
BRANCH  19  20
HETATM   20  C13 UNK     1      19.248   0.389  31.311  1.00  0.00    -0.012 A 
HETATM   21  C18 UNK     1      20.095  -0.537  30.709  1.00  0.00     0.042 A 
HETATM   22 Cl1  UNK     1      20.829  -0.226  29.178  1.00  0.00    -0.084 Cl
HETATM   23  C20 UNK     1      20.365  -1.747  31.347  1.00  0.00     0.024 A 
HETATM   24  C22 UNK     1      19.787  -2.027  32.585  1.00  0.00     0.002 A 
HETATM   25  C21 UNK     1      18.939  -1.096  33.185  1.00  0.00     0.001 A 
HETATM   26  C19 UNK     1      18.669   0.115  32.547  1.00  0.00     0.011 A 
ENDBRANCH  19  20
ENDBRANCH  18  19
ENDBRANCH   2  18
TORSDOF 4
ENDMDL
MODEL 4
REMARK VINA RESULT:      -8.8      7.796     12.954
REMARK  4 active torsions:
REMARK  status: ('A' for Active; 'I' for Inactive)
REMARK    1  A    between atoms: C12_16  and  O1_3 
REMARK    2  A    between atoms: C8_12  and  O1_3 
REMARK    3  A    between atoms: C5_9  and  C6_10 
REMARK    4  A    between atoms: C12_16  and  C13_17 
ROOT
HETATM    1  C5  UNK     1      20.161  -3.378  36.751  1.00  0.00    -0.035 A 
HETATM    2  C8  UNK     1      19.412  -1.429  34.870  1.00  0.00     0.069 A 
HETATM    3  C10 UNK     1      19.035  -2.565  36.967  1.00  0.00     0.014 A 
HETATM    4  C11 UNK     1      20.905  -3.194  35.572  1.00  0.00     0.014 A 
HETATM    5  C14 UNK     1      18.663  -1.598  36.035  1.00  0.00     0.037 A 
HETATM    6  C15 UNK     1      20.533  -2.226  34.639  1.00  0.00     0.037 A 
ENDROOT
BRANCH   1   7
HETATM    7  C6  UNK     1      20.544  -4.372  37.710  1.00  0.00     0.034 C 
HETATM    8  C2  UNK     1      20.187  -5.656  37.656  1.00  0.00     0.057 A 
HETATM    9  S1  UNK     1      19.197  -6.362  36.422  1.00  0.00    -0.086 SA
HETATM   10  C4  UNK     1      20.613  -6.651  38.678  1.00  0.00     0.200 A 
HETATM   11  C3  UNK     1      19.299  -7.961  37.184  1.00  0.00     0.020 A 
HETATM   12  C1  UNK     1      20.065  -7.973  38.348  1.00  0.00     0.032 A 
HETATM   13  C9  UNK     1      18.707  -9.130  36.729  1.00  0.00     0.020 A 
HETATM   14  C7  UNK     1      20.263  -9.131  39.085  1.00  0.00     0.017 A 
HETATM   15  C16 UNK     1      19.669 -10.308  38.628  1.00  0.00     0.001 A 
HETATM   16  C17 UNK     1      18.896 -10.307  37.458  1.00  0.00     0.001 A 
HETATM   17  O2  UNK     1      21.309  -6.424  39.650  1.00  0.00    -0.286 OA
ENDBRANCH   1   7
BRANCH   2  18
HETATM   18  O1  UNK     1      19.049  -0.485  33.959  1.00  0.00    -0.347 OA
BRANCH  18  19
HETATM   19  C12 UNK     1      18.292  -0.926  32.833  1.00  0.00     0.216 C 
BRANCH  19  20
HETATM   20  C13 UNK     1      19.154  -0.856  31.606  1.00  0.00    -0.012 A 
HETATM   21  C18 UNK     1      19.365   0.345  30.936  1.00  0.00     0.042 A 
HETATM   22 Cl1  UNK     1      18.650   1.819  31.478  1.00  0.00    -0.084 Cl
HETATM   23  C20 UNK     1      20.173   0.371  29.798  1.00  0.00     0.024 A 
HETATM   24  C22 UNK     1      20.765  -0.804  29.336  1.00  0.00     0.002 A 
HETATM   25  C21 UNK     1      20.550  -2.005  30.012  1.00  0.00     0.001 A 
HETATM   26  C19 UNK     1      19.742  -2.032  31.149  1.00  0.00     0.011 A 
ENDBRANCH  19  20
ENDBRANCH  18  19
ENDBRANCH   2  18
TORSDOF 4
ENDMDL
MODEL 5
REMARK VINA RESULT:      -8.7      6.772     12.369
REMARK  4 active torsions:
REMARK  status: ('A' for Active; 'I' for Inactive)
REMARK    1  A    between atoms: C12_16  and  O1_3 
REMARK    2  A    between atoms: C8_12  and  O1_3 
REMARK    3  A    between atoms: C5_9  and  C6_10 
REMARK    4  A    between atoms: C12_16  and  C13_17 
ROOT
HETATM    1  C5  UNK     1      20.082  -2.520  35.925  1.00  0.00    -0.035 A 
HETATM    2  C8  UNK     1      18.555  -0.750  34.366  1.00  0.00     0.069 A 
HETATM    3  C10 UNK     1      20.243  -2.468  34.530  1.00  0.00     0.014 A 
HETATM    4  C11 UNK     1      19.139  -1.666  36.524  1.00  0.00     0.014 A 
HETATM    5  C14 UNK     1      19.485  -1.590  33.756  1.00  0.00     0.037 A 
HETATM    6  C15 UNK     1      18.381  -0.787  35.749  1.00  0.00     0.037 A 
ENDROOT
BRANCH   1   7
HETATM    7  C6  UNK     1      20.861  -3.422  36.721  1.00  0.00     0.034 C 
HETATM    8  C2  UNK     1      20.475  -4.650  37.073  1.00  0.00     0.057 A 
HETATM    9  S1  UNK     1      18.967  -5.383  36.637  1.00  0.00    -0.086 SA
HETATM   10  C4  UNK     1      21.323  -5.550  37.902  1.00  0.00     0.200 A 
HETATM   11  C3  UNK     1      19.380  -6.871  37.509  1.00  0.00     0.020 A 
HETATM   12  C1  UNK     1      20.632  -6.828  38.121  1.00  0.00     0.032 A 
HETATM   13  C9  UNK     1      18.593  -8.008  37.616  1.00  0.00     0.020 A 
HETATM   14  C7  UNK     1      21.132  -7.898  38.847  1.00  0.00     0.017 A 
HETATM   15  C16 UNK     1      20.342  -9.042  38.956  1.00  0.00     0.001 A 
HETATM   16  C17 UNK     1      19.080  -9.097  38.345  1.00  0.00     0.001 A 
HETATM   17  O2  UNK     1      22.426  -5.287  38.344  1.00  0.00    -0.286 OA
ENDBRANCH   1   7
BRANCH   2  18
HETATM   18  O1  UNK     1      17.815   0.108  33.611  1.00  0.00    -0.347 OA
BRANCH  18  19
HETATM   19  C12 UNK     1      18.108   1.499  33.733  1.00  0.00     0.216 C 
BRANCH  19  20
HETATM   20  C13 UNK     1      18.353   2.069  32.366  1.00  0.00    -0.012 A 
HETATM   21  C18 UNK     1      18.320   3.441  32.136  1.00  0.00     0.042 A 
HETATM   22 Cl1  UNK     1      17.996   4.562  33.407  1.00  0.00    -0.084 Cl
HETATM   23  C20 UNK     1      18.552   3.934  30.852  1.00  0.00     0.024 A 
HETATM   24  C22 UNK     1      18.816   3.053  29.803  1.00  0.00     0.002 A 
HETATM   25  C21 UNK     1      18.849   1.679  30.040  1.00  0.00     0.001 A 
HETATM   26  C19 UNK     1      18.617   1.186  31.324  1.00  0.00     0.011 A 
ENDBRANCH  19  20
ENDBRANCH  18  19
ENDBRANCH   2  18
TORSDOF 4
ENDMDL
MODEL 6
REMARK VINA RESULT:      -8.4     14.967     18.063
REMARK  4 active torsions:
REMARK  status: ('A' for Active; 'I' for Inactive)
REMARK    1  A    between atoms: C12_16  and  O1_3 
REMARK    2  A    between atoms: C8_12  and  O1_3 
REMARK    3  A    between atoms: C5_9  and  C6_10 
REMARK    4  A    between atoms: C12_16  and  C13_17 
ROOT
HETATM    1  C5  UNK     1      28.533  -6.273  38.861  1.00  0.00    -0.035 A 
HETATM    2  C8  UNK     1      25.840  -7.074  38.798  1.00  0.00     0.069 A 
HETATM    3  C10 UNK     1      27.510  -5.337  38.637  1.00  0.00     0.014 A 
HETATM    4  C11 UNK     1      28.180  -7.620  39.053  1.00  0.00     0.014 A 
HETATM    5  C14 UNK     1      26.173  -5.734  38.605  1.00  0.00     0.037 A 
HETATM    6  C15 UNK     1      26.843  -8.017  39.021  1.00  0.00     0.037 A 
ENDROOT
BRANCH   1   7
HETATM    7  C6  UNK     1      29.907  -5.866  38.893  1.00  0.00     0.034 C 
HETATM    8  C2  UNK     1      30.727  -5.875  37.840  1.00  0.00     0.057 A 
HETATM    9  S1  UNK     1      30.287  -6.380  36.242  1.00  0.00    -0.086 SA
HETATM   10  C4  UNK     1      32.147  -5.440  37.926  1.00  0.00     0.200 A 
HETATM   11  C3  UNK     1      31.921  -6.047  35.634  1.00  0.00     0.020 A 
HETATM   12  C1  UNK     1      32.789  -5.562  36.611  1.00  0.00     0.032 A 
HETATM   13  C9  UNK     1      32.366  -6.223  34.333  1.00  0.00     0.020 A 
HETATM   14  C7  UNK     1      34.108  -5.242  36.327  1.00  0.00     0.017 A 
HETATM   15  C16 UNK     1      34.558  -5.418  35.018  1.00  0.00     0.001 A 
HETATM   16  C17 UNK     1      33.693  -5.906  34.027  1.00  0.00     0.001 A 
HETATM   17  O2  UNK     1      32.714  -5.041  38.926  1.00  0.00    -0.286 OA
ENDBRANCH   1   7
BRANCH   2  18
HETATM   18  O1  UNK     1      24.535  -7.462  38.767  1.00  0.00    -0.347 OA
BRANCH  18  19
HETATM   19  C12 UNK     1      23.559  -6.486  39.130  1.00  0.00     0.216 C 
BRANCH  19  20
HETATM   20  C13 UNK     1      22.199  -7.120  39.097  1.00  0.00    -0.012 A 
HETATM   21  C18 UNK     1      21.104  -6.460  38.548  1.00  0.00     0.042 A 
HETATM   22 Cl1  UNK     1      21.250  -4.878  37.872  1.00  0.00    -0.084 Cl
HETATM   23  C20 UNK     1      19.855  -7.080  38.535  1.00  0.00     0.024 A 
HETATM   24  C22 UNK     1      19.706  -8.358  39.074  1.00  0.00     0.002 A 
HETATM   25  C21 UNK     1      20.806  -9.016  39.623  1.00  0.00     0.001 A 
HETATM   26  C19 UNK     1      22.056  -8.395  39.635  1.00  0.00     0.011 A 
ENDBRANCH  19  20
ENDBRANCH  18  19
ENDBRANCH   2  18
TORSDOF 4
ENDMDL
MODEL 7
REMARK VINA RESULT:      -8.3     15.081     18.340
REMARK  4 active torsions:
REMARK  status: ('A' for Active; 'I' for Inactive)
REMARK    1  A    between atoms: C12_16  and  O1_3 
REMARK    2  A    between atoms: C8_12  and  O1_3 
REMARK    3  A    between atoms: C5_9  and  C6_10 
REMARK    4  A    between atoms: C12_16  and  C13_17 
ROOT
HETATM    1  C5  UNK     1      28.522  -7.991  38.229  1.00  0.00    -0.035 A 
HETATM    2  C8  UNK     1      25.714  -8.048  38.149  1.00  0.00     0.069 A 
HETATM    3  C10 UNK     1      27.845  -8.905  37.404  1.00  0.00     0.014 A 
HETATM    4  C11 UNK     1      27.763  -7.106  39.014  1.00  0.00     0.014 A 
HETATM    5  C14 UNK     1      26.451  -8.934  37.364  1.00  0.00     0.037 A 
HETATM    6  C15 UNK     1      26.369  -7.135  38.974  1.00  0.00     0.037 A 
ENDROOT
BRANCH   1   7
HETATM    7  C6  UNK     1      29.955  -7.962  38.271  1.00  0.00     0.034 C 
HETATM    8  C2  UNK     1      30.719  -7.149  37.539  1.00  0.00     0.057 A 
HETATM    9  S1  UNK     1      30.126  -5.980  36.405  1.00  0.00    -0.086 SA
HETATM   10  C4  UNK     1      32.204  -7.157  37.620  1.00  0.00     0.200 A 
HETATM   11  C3  UNK     1      31.775  -5.465  35.999  1.00  0.00     0.020 A 
HETATM   12  C1  UNK     1      32.761  -6.155  36.701  1.00  0.00     0.032 A 
HETATM   13  C9  UNK     1      32.129  -4.481  35.087  1.00  0.00     0.020 A 
HETATM   14  C7  UNK     1      34.111  -5.892  36.521  1.00  0.00     0.017 A 
HETATM   15  C16 UNK     1      34.469  -4.903  35.605  1.00  0.00     0.001 A 
HETATM   16  C17 UNK     1      33.484  -4.202  34.892  1.00  0.00     0.001 A 
HETATM   17  O2  UNK     1      32.878  -7.877  38.332  1.00  0.00    -0.286 OA
ENDBRANCH   1   7
BRANCH   2  18
HETATM   18  O1  UNK     1      24.353  -8.076  38.111  1.00  0.00    -0.347 OA
BRANCH  18  19
HETATM   19  C12 UNK     1      23.660  -7.239  39.036  1.00  0.00     0.216 C 
BRANCH  19  20
HETATM   20  C13 UNK     1      22.195  -7.560  38.983  1.00  0.00    -0.012 A 
HETATM   21  C18 UNK     1      21.265  -6.629  38.530  1.00  0.00     0.042 A 
HETATM   22 Cl1  UNK     1      21.744  -5.057  38.004  1.00  0.00    -0.084 Cl
HETATM   23  C20 UNK     1      19.910  -6.963  38.495  1.00  0.00     0.024 A 
HETATM   24  C22 UNK     1      19.492  -8.226  38.913  1.00  0.00     0.002 A 
HETATM   25  C21 UNK     1      20.429  -9.155  39.366  1.00  0.00     0.001 A 
HETATM   26  C19 UNK     1      21.783  -8.822  39.401  1.00  0.00     0.011 A 
ENDBRANCH  19  20
ENDBRANCH  18  19
ENDBRANCH   2  18
TORSDOF 4
ENDMDL
MODEL 8
REMARK VINA RESULT:      -8.3     14.582     16.725
REMARK  4 active torsions:
REMARK  status: ('A' for Active; 'I' for Inactive)
REMARK    1  A    between atoms: C12_16  and  O1_3 
REMARK    2  A    between atoms: C8_12  and  O1_3 
REMARK    3  A    between atoms: C5_9  and  C6_10 
REMARK    4  A    between atoms: C12_16  and  C13_17 
ROOT
HETATM    1  C5  UNK     1      23.164  -6.462  39.084  1.00  0.00    -0.035 A 
HETATM    2  C8  UNK     1      20.736  -7.876  39.124  1.00  0.00     0.069 A 
HETATM    3  C10 UNK     1      23.082  -7.733  39.677  1.00  0.00     0.014 A 
HETATM    4  C11 UNK     1      22.004  -5.913  38.510  1.00  0.00     0.014 A 
HETATM    5  C14 UNK     1      21.877  -8.435  39.698  1.00  0.00     0.037 A 
HETATM    6  C15 UNK     1      20.799  -6.615  38.531  1.00  0.00     0.037 A 
ENDROOT
BRANCH   1   7
HETATM    7  C6  UNK     1      24.403  -5.741  39.063  1.00  0.00     0.034 C 
HETATM    8  C2  UNK     1      25.600  -6.292  38.855  1.00  0.00     0.057 A 
HETATM    9  S1  UNK     1      25.882  -7.978  38.572  1.00  0.00    -0.086 SA
HETATM   10  C4  UNK     1      26.858  -5.498  38.842  1.00  0.00     0.200 A 
HETATM   11  C3  UNK     1      27.630  -7.712  38.429  1.00  0.00     0.020 A 
HETATM   12  C1  UNK     1      28.005  -6.380  38.589  1.00  0.00     0.032 A 
HETATM   13  C9  UNK     1      28.593  -8.680  38.182  1.00  0.00     0.020 A 
HETATM   14  C7  UNK     1      29.328  -5.974  38.509  1.00  0.00     0.017 A 
HETATM   15  C16 UNK     1      30.298  -6.946  38.260  1.00  0.00     0.001 A 
HETATM   16  C17 UNK     1      29.933  -8.290  38.098  1.00  0.00     0.001 A 
HETATM   17  O2  UNK     1      26.947  -4.296  39.015  1.00  0.00    -0.286 OA
ENDBRANCH   1   7
BRANCH   2  18
HETATM   18  O1  UNK     1      19.559  -8.560  39.144  1.00  0.00    -0.347 OA
BRANCH  18  19
HETATM   19  C12 UNK     1      18.973  -8.880  37.882  1.00  0.00     0.216 C 
BRANCH  19  20
HETATM   20  C13 UNK     1      20.039  -9.410  36.968  1.00  0.00    -0.012 A 
HETATM   21  C18 UNK     1      20.396  -8.739  35.803  1.00  0.00     0.042 A 
HETATM   22 Cl1  UNK     1      19.633  -7.260  35.345  1.00  0.00    -0.084 Cl
HETATM   23  C20 UNK     1      21.391  -9.262  34.978  1.00  0.00     0.024 A 
HETATM   24  C22 UNK     1      22.026 -10.455  35.321  1.00  0.00     0.002 A 
HETATM   25  C21 UNK     1      21.666 -11.125  36.490  1.00  0.00     0.001 A 
HETATM   26  C19 UNK     1      20.670 -10.602  37.316  1.00  0.00     0.011 A 
ENDBRANCH  19  20
ENDBRANCH  18  19
ENDBRANCH   2  18
TORSDOF 4
ENDMDL
MODEL 9
REMARK VINA RESULT:      -8.2     16.581     18.501
REMARK  4 active torsions:
REMARK  status: ('A' for Active; 'I' for Inactive)
REMARK    1  A    between atoms: C12_16  and  O1_3 
REMARK    2  A    between atoms: C8_12  and  O1_3 
REMARK    3  A    between atoms: C5_9  and  C6_10 
REMARK    4  A    between atoms: C12_16  and  C13_17 
ROOT
HETATM    1  C5  UNK     1      27.792  -8.469  38.131  1.00  0.00    -0.035 A 
HETATM    2  C8  UNK     1      24.994  -8.259  38.000  1.00  0.00     0.069 A 
HETATM    3  C10 UNK     1      27.057  -9.232  37.208  1.00  0.00     0.014 A 
HETATM    4  C11 UNK     1      27.097  -7.598  38.987  1.00  0.00     0.014 A 
HETATM    5  C14 UNK     1      25.668  -9.128  37.143  1.00  0.00     0.037 A 
HETATM    6  C15 UNK     1      25.708  -7.494  38.922  1.00  0.00     0.037 A 
ENDROOT
BRANCH   1   7
HETATM    7  C6  UNK     1      29.220  -8.576  38.198  1.00  0.00     0.034 C 
HETATM    8  C2  UNK     1      30.073  -7.685  37.690  1.00  0.00     0.057 A 
HETATM    9  S1  UNK     1      29.618  -6.237  36.855  1.00  0.00    -0.086 SA
HETATM   10  C4  UNK     1      31.550  -7.843  37.787  1.00  0.00     0.200 A 
HETATM   11  C3  UNK     1      31.317  -5.789  36.605  1.00  0.00     0.020 A 
HETATM   12  C1  UNK     1      32.219  -6.707  37.139  1.00  0.00     0.032 A 
HETATM   13  C9  UNK     1      31.782  -4.654  35.956  1.00  0.00     0.020 A 
HETATM   14  C7  UNK     1      33.591  -6.529  37.045  1.00  0.00     0.017 A 
HETATM   15  C16 UNK     1      34.060  -5.389  36.392  1.00  0.00     0.001 A 
HETATM   16  C17 UNK     1      33.162  -4.458  35.851  1.00  0.00     0.001 A 
HETATM   17  O2  UNK     1      32.137  -8.766  38.319  1.00  0.00    -0.286 OA
ENDBRANCH   1   7
BRANCH   2  18
HETATM   18  O1  UNK     1      23.637  -8.157  37.936  1.00  0.00    -0.347 OA
BRANCH  18  19
HETATM   19  C12 UNK     1      22.976  -8.913  36.923  1.00  0.00     0.216 C 
BRANCH  19  20
HETATM   20  C13 UNK     1      21.692  -9.457  37.478  1.00  0.00    -0.012 A 
HETATM   21  C18 UNK     1      20.986 -10.461  36.822  1.00  0.00     0.042 A 
HETATM   22 Cl1  UNK     1      21.547 -11.136  35.336  1.00  0.00    -0.084 Cl
HETATM   23  C20 UNK     1      19.795 -10.941  37.369  1.00  0.00     0.024 A 
HETATM   24  C22 UNK     1      19.316 -10.416  38.568  1.00  0.00     0.002 A 
HETATM   25  C21 UNK     1      20.028  -9.410  39.222  1.00  0.00     0.001 A 
HETATM   26  C19 UNK     1      21.219  -8.929  38.676  1.00  0.00     0.011 A 
ENDBRANCH  19  20
ENDBRANCH  18  19
ENDBRANCH   2  18
TORSDOF 4
ENDMDL
MODEL 10
REMARK VINA RESULT:      -8.2     22.759     24.617
REMARK  4 active torsions:
REMARK  status: ('A' for Active; 'I' for Inactive)
REMARK    1  A    between atoms: C12_16  and  O1_3 
REMARK    2  A    between atoms: C8_12  and  O1_3 
REMARK    3  A    between atoms: C5_9  and  C6_10 
REMARK    4  A    between atoms: C12_16  and  C13_17 
ROOT
HETATM    1  C5  UNK     1      14.545   9.566   9.753  1.00  0.00    -0.035 A 
HETATM    2  C8  UNK     1      17.278  10.155   9.471  1.00  0.00     0.069 A 
HETATM    3  C10 UNK     1      14.968  10.666   8.988  1.00  0.00     0.014 A 
HETATM    4  C11 UNK     1      15.520   8.766  10.374  1.00  0.00     0.014 A 
HETATM    5  C14 UNK     1      16.325  10.959   8.848  1.00  0.00     0.037 A 
HETATM    6  C15 UNK     1      16.876   9.059  10.234  1.00  0.00     0.037 A 
ENDROOT
BRANCH   1   7
HETATM    7  C6  UNK     1      13.151   9.265   9.897  1.00  0.00     0.034 C 
HETATM    8  C2  UNK     1      12.438   8.539   9.034  1.00  0.00     0.057 A 
HETATM    9  S1  UNK     1      13.059   7.826   7.582  1.00  0.00    -0.086 SA
HETATM   10  C4  UNK     1      10.990   8.255   9.230  1.00  0.00     0.200 A 
HETATM   11  C3  UNK     1      11.473   7.139   7.182  1.00  0.00     0.020 A 
HETATM   12  C1  UNK     1      10.486   7.435   8.120  1.00  0.00     0.032 A 
HETATM   13  C9  UNK     1      11.166   6.372   6.068  1.00  0.00     0.020 A 
HETATM   14  C7  UNK     1       9.182   6.984   7.982  1.00  0.00     0.017 A 
HETATM   15  C16 UNK     1       8.872   6.212   6.862  1.00  0.00     0.001 A 
HETATM   16  C17 UNK     1       9.857   5.908   5.911  1.00  0.00     0.001 A 
HETATM   17  O2  UNK     1      10.307   8.634  10.162  1.00  0.00    -0.286 OA
ENDBRANCH   1   7
BRANCH   2  18
HETATM   18  O1  UNK     1      18.603  10.440   9.335  1.00  0.00    -0.347 OA
BRANCH  18  19
HETATM   19  C12 UNK     1      18.973  11.818   9.333  1.00  0.00     0.216 C 
BRANCH  19  20
HETATM   20  C13 UNK     1      19.623  12.152  10.644  1.00  0.00    -0.012 A 
HETATM   21  C18 UNK     1      18.914  12.773  11.667  1.00  0.00     0.042 A 
HETATM   22 Cl1  UNK     1      17.250  13.193  11.486  1.00  0.00    -0.084 Cl
HETATM   23  C20 UNK     1      19.552  13.069  12.872  1.00  0.00     0.024 A 
HETATM   24  C22 UNK     1      20.896  12.741  13.048  1.00  0.00     0.002 A 
HETATM   25  C21 UNK     1      21.602  12.118  12.020  1.00  0.00     0.001 A 
HETATM   26  C19 UNK     1      20.965  11.823  10.814  1.00  0.00     0.011 A 
ENDBRANCH  19  20
ENDBRANCH  18  19
ENDBRANCH   2  18
TORSDOF 4
ENDMDL
