MODEL 1
REMARK VINA RESULT:      -7.7      0.000      0.000
REMARK  7 active torsions:
REMARK  status: ('A' for Active; 'I' for Inactive)
REMARK    1  A    between atoms: C2_8  and  O1_4 
REMARK    2  A    between atoms: C3_9  and  O1_4 
REMARK    3  A    between atoms: C4_10  and  O2_5 
REMARK    4  A    between atoms: C8_14  and  O2_5 
REMARK    5  A    between atoms: C1_7  and  C5_11 
REMARK    6  A    between atoms: C3_9  and  C4_10 
REMARK    7  A    between atoms: C10_16  and  C9_15 
ROOT
HETATM    1  N1  UNK     1      30.146  -2.677  30.452  1.00  0.00    -0.191 NA
HETATM    2  C5  UNK     1      30.405  -4.994  32.994  1.00  0.00     0.038 C 
HETATM    3  C9  UNK     1      29.982  -4.948  31.705  1.00  0.00     0.057 C 
HETATM    4  C24 UNK     1      30.076  -3.688  31.019  1.00  0.00     0.100 C 
ENDROOT
BRANCH   3   5
HETATM    5  C10 UNK     1      29.450  -6.100  30.987  1.00  0.00     0.006 A 
HETATM    6  C18 UNK     1      30.261  -6.942  30.225  1.00  0.00     0.047 A 
HETATM    7 Cl2  UNK     1      31.963  -6.679  30.075  1.00  0.00    -0.083 Cl
HETATM    8  C21 UNK     1      29.703  -8.032  29.557  1.00  0.00     0.048 A 
HETATM    9  C23 UNK     1      28.333  -8.280  29.651  1.00  0.00     0.035 A 
HETATM   10  C22 UNK     1      27.522  -7.440  30.412  1.00  0.00     0.025 A 
HETATM   11 Cl3  UNK     1      27.644  -9.625  28.827  1.00  0.00    -0.084 Cl
HETATM   12  C19 UNK     1      28.081  -6.350  31.081  1.00  0.00     0.016 A 
ENDBRANCH   3   5
BRANCH   2  13
HETATM   13  C1  UNK     1      30.370  -6.174  33.868  1.00  0.00     0.000 A 
HETATM   14  C2  UNK     1      31.488  -6.988  34.000  1.00  0.00     0.079 A 
HETATM   15  C7  UNK     1      31.431  -8.102  34.836  1.00  0.00     0.039 A 
HETATM   16  C12 UNK     1      30.258  -8.394  35.534  1.00  0.00     0.026 A 
HETATM   17  C11 UNK     1      29.142  -7.570  35.393  1.00  0.00     0.035 A 
HETATM   18 Cl1  UNK     1      27.695  -7.931  36.252  1.00  0.00    -0.084 Cl
HETATM   19  C6  UNK     1      29.198  -6.455  34.557  1.00  0.00     0.038 A 
BRANCH  14  20
HETATM   20  O1  UNK     1      32.646  -6.728  33.331  1.00  0.00    -0.348 OA
BRANCH  20  21
HETATM   21  C3  UNK     1      33.820  -6.535  34.117  1.00  0.00     0.202 C 
BRANCH  21  22
HETATM   22  C4  UNK     1      33.834  -5.114  34.647  1.00  0.00     0.202 C 
BRANCH  22  23
HETATM   23  O2  UNK     1      33.951  -5.149  36.065  1.00  0.00    -0.349 OA
BRANCH  23  24
HETATM   24  C8  UNK     1      32.782  -5.214  36.777  1.00  0.00     0.068 A 
HETATM   25  C14 UNK     1      31.801  -4.248  36.581  1.00  0.00     0.037 A 
HETATM   26  C16 UNK     1      30.611  -4.316  37.306  1.00  0.00     0.009 A 
HETATM   27  C13 UNK     1      30.409  -5.348  38.221  1.00  0.00    -0.062 A 
HETATM   28  C17 UNK     1      31.397  -6.314  38.413  1.00  0.00     0.009 A 
HETATM   29  C20 UNK     1      29.137  -5.419  38.997  1.00  0.00     0.048 C 
HETATM   30  C15 UNK     1      32.588  -6.247  37.688  1.00  0.00     0.037 A 
ENDBRANCH  23  24
ENDBRANCH  22  23
ENDBRANCH  21  22
ENDBRANCH  20  21
ENDBRANCH  14  20
ENDBRANCH   2  13
TORSDOF 7
ENDMDL
MODEL 2
REMARK VINA RESULT:      -7.6      1.731      3.275
REMARK  7 active torsions:
REMARK  status: ('A' for Active; 'I' for Inactive)
REMARK    1  A    between atoms: C2_8  and  O1_4 
REMARK    2  A    between atoms: C3_9  and  O1_4 
REMARK    3  A    between atoms: C4_10  and  O2_5 
REMARK    4  A    between atoms: C8_14  and  O2_5 
REMARK    5  A    between atoms: C1_7  and  C5_11 
REMARK    6  A    between atoms: C3_9  and  C4_10 
REMARK    7  A    between atoms: C10_16  and  C9_15 
ROOT
HETATM    1  N1  UNK     1      30.025  -2.623  31.204  1.00  0.00    -0.191 NA
HETATM    2  C5  UNK     1      30.999  -5.248  33.219  1.00  0.00     0.038 C 
HETATM    3  C9  UNK     1      30.276  -5.055  32.086  1.00  0.00     0.057 C 
HETATM    4  C24 UNK     1      30.142  -3.707  31.604  1.00  0.00     0.100 C 
ENDROOT
BRANCH   3   5
HETATM    5  C10 UNK     1      29.642  -6.134  31.338  1.00  0.00     0.006 A 
HETATM    6  C18 UNK     1      28.374  -6.620  31.661  1.00  0.00     0.047 A 
HETATM    7 Cl2  UNK     1      27.459  -5.975  32.979  1.00  0.00    -0.083 Cl
HETATM    8  C21 UNK     1      27.812  -7.654  30.914  1.00  0.00     0.048 A 
HETATM    9  C23 UNK     1      28.517  -8.203  29.842  1.00  0.00     0.035 A 
HETATM   10  C22 UNK     1      29.783  -7.719  29.519  1.00  0.00     0.025 A 
HETATM   11 Cl3  UNK     1      27.823  -9.481  28.920  1.00  0.00    -0.084 Cl
HETATM   12  C19 UNK     1      30.346  -6.684  30.266  1.00  0.00     0.016 A 
ENDBRANCH   3   5
BRANCH   2  13
HETATM   13  C1  UNK     1      31.232  -6.539  33.880  1.00  0.00     0.000 A 
HETATM   14  C2  UNK     1      30.503  -6.898  35.006  1.00  0.00     0.079 A 
HETATM   15  C7  UNK     1      30.741  -8.129  35.616  1.00  0.00     0.039 A 
HETATM   16  C12 UNK     1      31.706  -8.992  35.094  1.00  0.00     0.026 A 
HETATM   17  C11 UNK     1      32.431  -8.622  33.962  1.00  0.00     0.035 A 
HETATM   18 Cl1  UNK     1      33.622  -9.686  33.319  1.00  0.00    -0.084 Cl
HETATM   19  C6  UNK     1      32.193  -7.391  33.352  1.00  0.00     0.038 A 
BRANCH  14  20
HETATM   20  O1  UNK     1      29.556  -6.074  35.539  1.00  0.00    -0.348 OA
BRANCH  20  21
HETATM   21  C3  UNK     1      29.583  -5.885  36.952  1.00  0.00     0.202 C 
BRANCH  21  22
HETATM   22  C4  UNK     1      30.294  -4.583  37.265  1.00  0.00     0.202 C 
BRANCH  22  23
HETATM   23  O2  UNK     1      31.464  -4.864  38.023  1.00  0.00    -0.349 OA
BRANCH  23  24
HETATM   24  C8  UNK     1      32.558  -5.306  37.326  1.00  0.00     0.068 A 
HETATM   25  C14 UNK     1      33.060  -4.543  36.277  1.00  0.00     0.037 A 
HETATM   26  C16 UNK     1      34.175  -4.993  35.569  1.00  0.00     0.009 A 
HETATM   27  C13 UNK     1      34.781  -6.200  35.915  1.00  0.00    -0.062 A 
HETATM   28  C17 UNK     1      34.272  -6.960  36.968  1.00  0.00     0.009 A 
HETATM   29  C20 UNK     1      35.972  -6.681  35.157  1.00  0.00     0.048 C 
HETATM   30  C15 UNK     1      33.157  -6.511  37.676  1.00  0.00     0.037 A 
ENDBRANCH  23  24
ENDBRANCH  22  23
ENDBRANCH  21  22
ENDBRANCH  20  21
ENDBRANCH  14  20
ENDBRANCH   2  13
TORSDOF 7
ENDMDL
MODEL 3
REMARK VINA RESULT:      -7.5      1.014      1.613
REMARK  7 active torsions:
REMARK  status: ('A' for Active; 'I' for Inactive)
REMARK    1  A    between atoms: C2_8  and  O1_4 
REMARK    2  A    between atoms: C3_9  and  O1_4 
REMARK    3  A    between atoms: C4_10  and  O2_5 
REMARK    4  A    between atoms: C8_14  and  O2_5 
REMARK    5  A    between atoms: C1_7  and  C5_11 
REMARK    6  A    between atoms: C3_9  and  C4_10 
REMARK    7  A    between atoms: C10_16  and  C9_15 
ROOT
HETATM    1  N1  UNK     1      30.122  -2.887  30.312  1.00  0.00    -0.191 NA
HETATM    2  C5  UNK     1      30.419  -5.175  32.876  1.00  0.00     0.038 C 
HETATM    3  C9  UNK     1      30.033  -5.157  31.574  1.00  0.00     0.057 C 
HETATM    4  C24 UNK     1      30.085  -3.897  30.883  1.00  0.00     0.100 C 
ENDROOT
BRANCH   3   5
HETATM    5  C10 UNK     1      29.580  -6.338  30.849  1.00  0.00     0.006 A 
HETATM    6  C18 UNK     1      28.287  -6.845  30.985  1.00  0.00     0.047 A 
HETATM    7 Cl2  UNK     1      27.123  -6.107  32.030  1.00  0.00    -0.083 Cl
HETATM    8  C21 UNK     1      27.903  -7.977  30.269  1.00  0.00     0.048 A 
HETATM    9  C23 UNK     1      28.811  -8.604  29.415  1.00  0.00     0.035 A 
HETATM   10  C22 UNK     1      30.103  -8.098  29.278  1.00  0.00     0.025 A 
HETATM   11 Cl3  UNK     1      28.337 -10.003  28.531  1.00  0.00    -0.084 Cl
HETATM   12  C19 UNK     1      30.488  -6.964  29.995  1.00  0.00     0.016 A 
ENDBRANCH   3   5
BRANCH   2  13
HETATM   13  C1  UNK     1      30.416  -6.351  33.756  1.00  0.00     0.000 A 
HETATM   14  C2  UNK     1      31.521  -7.189  33.817  1.00  0.00     0.079 A 
HETATM   15  C7  UNK     1      31.496  -8.299  34.661  1.00  0.00     0.039 A 
HETATM   16  C12 UNK     1      30.367  -8.561  35.437  1.00  0.00     0.026 A 
HETATM   17  C11 UNK     1      29.262  -7.712  35.368  1.00  0.00     0.035 A 
HETATM   18 Cl1  UNK     1      27.869  -8.036  36.325  1.00  0.00    -0.084 Cl
HETATM   19  C6  UNK     1      29.288  -6.602  34.525  1.00  0.00     0.038 A 
BRANCH  14  20
HETATM   20  O1  UNK     1      32.638  -6.959  33.069  1.00  0.00    -0.348 OA
BRANCH  20  21
HETATM   21  C3  UNK     1      33.868  -6.804  33.773  1.00  0.00     0.202 C 
BRANCH  21  22
HETATM   22  C4  UNK     1      33.907  -5.426  34.406  1.00  0.00     0.202 C 
BRANCH  22  23
HETATM   23  O2  UNK     1      34.070  -5.567  35.812  1.00  0.00    -0.349 OA
BRANCH  23  24
HETATM   24  C8  UNK     1      32.932  -5.499  36.573  1.00  0.00     0.068 A 
HETATM   25  C14 UNK     1      32.691  -6.470  37.539  1.00  0.00     0.037 A 
HETATM   26  C16 UNK     1      31.534  -6.400  38.314  1.00  0.00     0.009 A 
HETATM   27  C13 UNK     1      30.626  -5.360  38.120  1.00  0.00    -0.062 A 
HETATM   28  C17 UNK     1      30.874  -4.389  37.150  1.00  0.00     0.009 A 
HETATM   29  C20 UNK     1      29.388  -5.286  38.949  1.00  0.00     0.048 C 
HETATM   30  C15 UNK     1      32.031  -4.459  36.374  1.00  0.00     0.037 A 
ENDBRANCH  23  24
ENDBRANCH  22  23
ENDBRANCH  21  22
ENDBRANCH  20  21
ENDBRANCH  14  20
ENDBRANCH   2  13
TORSDOF 7
ENDMDL
MODEL 4
REMARK VINA RESULT:      -7.3      1.828      3.014
REMARK  7 active torsions:
REMARK  status: ('A' for Active; 'I' for Inactive)
REMARK    1  A    between atoms: C2_8  and  O1_4 
REMARK    2  A    between atoms: C3_9  and  O1_4 
REMARK    3  A    between atoms: C4_10  and  O2_5 
REMARK    4  A    between atoms: C8_14  and  O2_5 
REMARK    5  A    between atoms: C1_7  and  C5_11 
REMARK    6  A    between atoms: C3_9  and  C4_10 
REMARK    7  A    between atoms: C10_16  and  C9_15 
ROOT
HETATM    1  N1  UNK     1      29.979  -2.811  31.187  1.00  0.00    -0.191 NA
HETATM    2  C5  UNK     1      30.933  -5.472  33.163  1.00  0.00     0.038 C 
HETATM    3  C9  UNK     1      30.231  -5.259  32.020  1.00  0.00     0.057 C 
HETATM    4  C24 UNK     1      30.096  -3.902  31.566  1.00  0.00     0.100 C 
ENDROOT
BRANCH   3   5
HETATM    5  C10 UNK     1      29.620  -6.326  31.236  1.00  0.00     0.006 A 
HETATM    6  C18 UNK     1      30.277  -6.932  30.164  1.00  0.00     0.047 A 
HETATM    7 Cl2  UNK     1      31.869  -6.458  29.684  1.00  0.00    -0.083 Cl
HETATM    8  C21 UNK     1      29.648  -7.949  29.446  1.00  0.00     0.048 A 
HETATM    9  C23 UNK     1      28.363  -8.361  29.800  1.00  0.00     0.035 A 
HETATM   10  C22 UNK     1      27.706  -7.756  30.871  1.00  0.00     0.025 A 
HETATM   11 Cl3  UNK     1      27.587  -9.616  28.913  1.00  0.00    -0.084 Cl
HETATM   12  C19 UNK     1      28.335  -6.739  31.590  1.00  0.00     0.016 A 
ENDBRANCH   3   5
BRANCH   2  13
HETATM   13  C1  UNK     1      31.163  -6.776  33.799  1.00  0.00     0.000 A 
HETATM   14  C2  UNK     1      30.382  -7.185  34.872  1.00  0.00     0.079 A 
HETATM   15  C7  UNK     1      30.619  -8.427  35.460  1.00  0.00     0.039 A 
HETATM   16  C12 UNK     1      31.633  -9.250  34.970  1.00  0.00     0.026 A 
HETATM   17  C11 UNK     1      32.411  -8.829  33.892  1.00  0.00     0.035 A 
HETATM   18 Cl1  UNK     1      33.664  -9.843  33.288  1.00  0.00    -0.084 Cl
HETATM   19  C6  UNK     1      32.175  -7.587  33.304  1.00  0.00     0.038 A 
BRANCH  14  20
HETATM   20  O1  UNK     1      29.385  -6.401  35.373  1.00  0.00    -0.348 OA
BRANCH  20  21
HETATM   21  C3  UNK     1      29.333  -6.247  36.789  1.00  0.00     0.202 C 
BRANCH  21  22
HETATM   22  C4  UNK     1      30.047  -4.966  37.176  1.00  0.00     0.202 C 
BRANCH  22  23
HETATM   23  O2  UNK     1      31.180  -5.290  37.973  1.00  0.00    -0.349 OA
BRANCH  23  24
HETATM   24  C8  UNK     1      32.326  -5.633  37.304  1.00  0.00     0.068 A 
HETATM   25  C14 UNK     1      32.835  -4.783  36.328  1.00  0.00     0.037 A 
HETATM   26  C16 UNK     1      34.002  -5.132  35.649  1.00  0.00     0.009 A 
HETATM   27  C13 UNK     1      34.653  -6.327  35.950  1.00  0.00    -0.062 A 
HETATM   28  C17 UNK     1      34.138  -7.176  36.929  1.00  0.00     0.009 A 
HETATM   29  C20 UNK     1      35.901  -6.701  35.222  1.00  0.00     0.048 C 
HETATM   30  C15 UNK     1      32.970  -6.827  37.609  1.00  0.00     0.037 A 
ENDBRANCH  23  24
ENDBRANCH  22  23
ENDBRANCH  21  22
ENDBRANCH  20  21
ENDBRANCH  14  20
ENDBRANCH   2  13
TORSDOF 7
ENDMDL
MODEL 5
REMARK VINA RESULT:      -7.0      2.134      2.910
REMARK  7 active torsions:
REMARK  status: ('A' for Active; 'I' for Inactive)
REMARK    1  A    between atoms: C2_8  and  O1_4 
REMARK    2  A    between atoms: C3_9  and  O1_4 
REMARK    3  A    between atoms: C4_10  and  O2_5 
REMARK    4  A    between atoms: C8_14  and  O2_5 
REMARK    5  A    between atoms: C1_7  and  C5_11 
REMARK    6  A    between atoms: C3_9  and  C4_10 
REMARK    7  A    between atoms: C10_16  and  C9_15 
ROOT
HETATM    1  N1  UNK     1      32.480  -8.842  29.478  1.00  0.00    -0.191 NA
HETATM    2  C5  UNK     1      31.226  -8.158  32.618  1.00  0.00     0.038 C 
HETATM    3  C9  UNK     1      30.817  -8.083  31.325  1.00  0.00     0.057 C 
HETATM    4  C24 UNK     1      31.743  -8.505  30.309  1.00  0.00     0.100 C 
ENDROOT
BRANCH   3   5
HETATM    5  C10 UNK     1      29.499  -7.607  30.921  1.00  0.00     0.006 A 
HETATM    6  C18 UNK     1      29.267  -6.281  30.551  1.00  0.00     0.047 A 
HETATM    7 Cl2  UNK     1      30.531  -5.101  30.547  1.00  0.00    -0.083 Cl
HETATM    8  C21 UNK     1      27.988  -5.876  30.172  1.00  0.00     0.048 A 
HETATM    9  C23 UNK     1      26.939  -6.797  30.162  1.00  0.00     0.035 A 
HETATM   10  C22 UNK     1      27.170  -8.121  30.531  1.00  0.00     0.025 A 
HETATM   11 Cl3  UNK     1      25.360  -6.297  29.694  1.00  0.00    -0.084 Cl
HETATM   12  C19 UNK     1      28.451  -8.527  30.910  1.00  0.00     0.016 A 
ENDBRANCH   3   5
BRANCH   2  13
HETATM   13  C1  UNK     1      30.440  -7.756  33.792  1.00  0.00     0.000 A 
HETATM   14  C2  UNK     1      30.539  -6.467  34.300  1.00  0.00     0.079 A 
HETATM   15  C7  UNK     1      29.783  -6.108  35.415  1.00  0.00     0.039 A 
HETATM   16  C12 UNK     1      28.934  -7.040  36.013  1.00  0.00     0.026 A 
HETATM   17  C11 UNK     1      28.842  -8.331  35.494  1.00  0.00     0.035 A 
HETATM   18 Cl1  UNK     1      27.795  -9.481  36.233  1.00  0.00    -0.084 Cl
HETATM   19  C6  UNK     1      29.598  -8.690  34.379  1.00  0.00     0.038 A 
BRANCH  14  20
HETATM   20  O1  UNK     1      31.361  -5.537  33.737  1.00  0.00    -0.348 OA
BRANCH  20  21
HETATM   21  C3  UNK     1      32.169  -4.765  34.624  1.00  0.00     0.202 C 
BRANCH  21  22
HETATM   22  C4  UNK     1      33.545  -5.394  34.715  1.00  0.00     0.202 C 
BRANCH  22  23
HETATM   23  O2  UNK     1      33.832  -5.687  36.078  1.00  0.00    -0.349 OA
BRANCH  23  24
HETATM   24  C8  UNK     1      33.141  -6.728  36.642  1.00  0.00     0.068 A 
HETATM   25  C14 UNK     1      33.179  -7.984  36.045  1.00  0.00     0.037 A 
HETATM   26  C16 UNK     1      32.477  -9.043  36.621  1.00  0.00     0.009 A 
HETATM   27  C13 UNK     1      31.743  -8.840  37.789  1.00  0.00    -0.062 A 
HETATM   28  C17 UNK     1      31.710  -7.579  38.383  1.00  0.00     0.009 A 
HETATM   29  C20 UNK     1      30.992  -9.973  38.404  1.00  0.00     0.048 C 
HETATM   30  C15 UNK     1      32.411  -6.519  37.807  1.00  0.00     0.037 A 
ENDBRANCH  23  24
ENDBRANCH  22  23
ENDBRANCH  21  22
ENDBRANCH  20  21
ENDBRANCH  14  20
ENDBRANCH   2  13
TORSDOF 7
ENDMDL
MODEL 6
REMARK VINA RESULT:      -7.0      4.205      7.105
REMARK  7 active torsions:
REMARK  status: ('A' for Active; 'I' for Inactive)
REMARK    1  A    between atoms: C2_8  and  O1_4 
REMARK    2  A    between atoms: C3_9  and  O1_4 
REMARK    3  A    between atoms: C4_10  and  O2_5 
REMARK    4  A    between atoms: C8_14  and  O2_5 
REMARK    5  A    between atoms: C1_7  and  C5_11 
REMARK    6  A    between atoms: C3_9  and  C4_10 
REMARK    7  A    between atoms: C10_16  and  C9_15 
ROOT
HETATM    1  N1  UNK     1      35.788  -7.354  28.192  1.00  0.00    -0.191 NA
HETATM    2  C5  UNK     1      33.158  -8.182  30.266  1.00  0.00     0.038 C 
HETATM    3  C9  UNK     1      34.497  -8.397  30.193  1.00  0.00     0.057 C 
HETATM    4  C24 UNK     1      35.204  -7.817  29.083  1.00  0.00     0.100 C 
ENDROOT
BRANCH   3   5
HETATM    5  C10 UNK     1      35.246  -9.171  31.175  1.00  0.00     0.006 A 
HETATM    6  C18 UNK     1      35.900  -8.573  32.253  1.00  0.00     0.047 A 
HETATM    7 Cl2  UNK     1      35.870  -6.862  32.503  1.00  0.00    -0.083 Cl
HETATM    8  C21 UNK     1      36.603  -9.359  33.165  1.00  0.00     0.048 A 
HETATM    9  C23 UNK     1      36.653 -10.744  33.000  1.00  0.00     0.035 A 
HETATM   10  C22 UNK     1      35.999 -11.342  31.923  1.00  0.00     0.025 A 
HETATM   11 Cl3  UNK     1      37.521 -11.714  34.126  1.00  0.00    -0.084 Cl
HETATM   12  C19 UNK     1      35.296 -10.556  31.011  1.00  0.00     0.016 A 
ENDBRANCH   3   5
BRANCH   2  13
HETATM   13  C1  UNK     1      32.260  -8.704  31.303  1.00  0.00     0.000 A 
HETATM   14  C2  UNK     1      31.596  -9.911  31.121  1.00  0.00     0.079 A 
HETATM   15  C7  UNK     1      30.749 -10.387  32.120  1.00  0.00     0.039 A 
HETATM   16  C12 UNK     1      30.572  -9.655  33.294  1.00  0.00     0.026 A 
HETATM   17  C11 UNK     1      31.243  -8.444  33.467  1.00  0.00     0.035 A 
HETATM   18 Cl1  UNK     1      31.024  -7.540  34.915  1.00  0.00    -0.084 Cl
HETATM   19  C6  UNK     1      32.091  -7.968  32.468  1.00  0.00     0.038 A 
BRANCH  14  20
HETATM   20  O1  UNK     1      31.749 -10.647  29.984  1.00  0.00    -0.348 OA
BRANCH  20  21
HETATM   21  C3  UNK     1      30.559 -11.075  29.325  1.00  0.00     0.202 C 
BRANCH  21  22
HETATM   22  C4  UNK     1      30.230 -10.099  28.212  1.00  0.00     0.202 C 
BRANCH  22  23
HETATM   23  O2  UNK     1      28.932  -9.561  28.436  1.00  0.00    -0.349 OA
BRANCH  23  24
HETATM   24  C8  UNK     1      28.824  -8.595  29.402  1.00  0.00     0.068 A 
HETATM   25  C14 UNK     1      27.951  -8.782  30.468  1.00  0.00     0.037 A 
HETATM   26  C16 UNK     1      27.843  -7.799  31.452  1.00  0.00     0.009 A 
HETATM   27  C13 UNK     1      28.608  -6.636  31.364  1.00  0.00    -0.062 A 
HETATM   28  C17 UNK     1      29.481  -6.455  30.292  1.00  0.00     0.009 A 
HETATM   29  C20 UNK     1      28.491  -5.585  32.415  1.00  0.00     0.048 C 
HETATM   30  C15 UNK     1      29.590  -7.438  29.307  1.00  0.00     0.037 A 
ENDBRANCH  23  24
ENDBRANCH  22  23
ENDBRANCH  21  22
ENDBRANCH  20  21
ENDBRANCH  14  20
ENDBRANCH   2  13
TORSDOF 7
ENDMDL
MODEL 7
REMARK VINA RESULT:      -6.9      2.025      2.742
REMARK  7 active torsions:
REMARK  status: ('A' for Active; 'I' for Inactive)
REMARK    1  A    between atoms: C2_8  and  O1_4 
REMARK    2  A    between atoms: C3_9  and  O1_4 
REMARK    3  A    between atoms: C4_10  and  O2_5 
REMARK    4  A    between atoms: C8_14  and  O2_5 
REMARK    5  A    between atoms: C1_7  and  C5_11 
REMARK    6  A    between atoms: C3_9  and  C4_10 
REMARK    7  A    between atoms: C10_16  and  C9_15 
ROOT
HETATM    1  N1  UNK     1      32.210  -9.909  28.983  1.00  0.00    -0.191 NA
HETATM    2  C5  UNK     1      31.315  -9.152  32.227  1.00  0.00     0.038 C 
HETATM    3  C9  UNK     1      30.832  -8.962  30.973  1.00  0.00     0.057 C 
HETATM    4  C24 UNK     1      31.600  -9.488  29.877  1.00  0.00     0.100 C 
ENDROOT
BRANCH   3   5
HETATM    5  C10 UNK     1      29.585  -8.263  30.684  1.00  0.00     0.006 A 
HETATM    6  C18 UNK     1      29.532  -6.882  30.493  1.00  0.00     0.047 A 
HETATM    7 Cl2  UNK     1      30.948  -5.893  30.586  1.00  0.00    -0.083 Cl
HETATM    8  C21 UNK     1      28.314  -6.262  30.219  1.00  0.00     0.048 A 
HETATM    9  C23 UNK     1      27.147  -7.023  30.135  1.00  0.00     0.035 A 
HETATM   10  C22 UNK     1      27.199  -8.403  30.326  1.00  0.00     0.025 A 
HETATM   11 Cl3  UNK     1      25.642  -6.257  29.798  1.00  0.00    -0.084 Cl
HETATM   12  C19 UNK     1      28.418  -9.023  30.600  1.00  0.00     0.016 A 
ENDBRANCH   3   5
BRANCH   2  13
HETATM   13  C1  UNK     1      30.693  -8.674  33.469  1.00  0.00     0.000 A 
HETATM   14  C2  UNK     1      31.160  -7.526  34.096  1.00  0.00     0.079 A 
HETATM   15  C7  UNK     1      30.553  -7.091  35.273  1.00  0.00     0.039 A 
HETATM   16  C12 UNK     1      29.484  -7.806  35.814  1.00  0.00     0.026 A 
HETATM   17  C11 UNK     1      29.023  -8.958  35.176  1.00  0.00     0.035 A 
HETATM   18 Cl1  UNK     1      27.705  -9.841  35.844  1.00  0.00    -0.084 Cl
HETATM   19  C6  UNK     1      29.630  -9.393  33.998  1.00  0.00     0.038 A 
BRANCH  14  20
HETATM   20  O1  UNK     1      32.203  -6.808  33.591  1.00  0.00    -0.348 OA
BRANCH  20  21
HETATM   21  C3  UNK     1      33.422  -6.830  34.331  1.00  0.00     0.202 C 
BRANCH  21  22
HETATM   22  C4  UNK     1      33.907  -5.407  34.530  1.00  0.00     0.202 C 
BRANCH  22  23
HETATM   23  O2  UNK     1      34.139  -5.187  35.916  1.00  0.00    -0.349 OA
BRANCH  23  24
HETATM   24  C8  UNK     1      33.035  -4.979  36.701  1.00  0.00     0.068 A 
HETATM   25  C14 UNK     1      32.840  -5.758  37.836  1.00  0.00     0.037 A 
HETATM   26  C16 UNK     1      31.716  -5.544  38.635  1.00  0.00     0.009 A 
HETATM   27  C13 UNK     1      30.796  -4.554  38.294  1.00  0.00    -0.062 A 
HETATM   28  C17 UNK     1      30.998  -3.776  37.154  1.00  0.00     0.009 A 
HETATM   29  C20 UNK     1      29.594  -4.327  39.148  1.00  0.00     0.048 C 
HETATM   30  C15 UNK     1      32.121  -3.990  36.354  1.00  0.00     0.037 A 
ENDBRANCH  23  24
ENDBRANCH  22  23
ENDBRANCH  21  22
ENDBRANCH  20  21
ENDBRANCH  14  20
ENDBRANCH   2  13
TORSDOF 7
ENDMDL
MODEL 8
REMARK VINA RESULT:      -6.9      2.740      4.288
REMARK  7 active torsions:
REMARK  status: ('A' for Active; 'I' for Inactive)
REMARK    1  A    between atoms: C2_8  and  O1_4 
REMARK    2  A    between atoms: C3_9  and  O1_4 
REMARK    3  A    between atoms: C4_10  and  O2_5 
REMARK    4  A    between atoms: C8_14  and  O2_5 
REMARK    5  A    between atoms: C1_7  and  C5_11 
REMARK    6  A    between atoms: C3_9  and  C4_10 
REMARK    7  A    between atoms: C10_16  and  C9_15 
ROOT
HETATM    1  N1  UNK     1      32.891  -8.125  34.003  1.00  0.00    -0.191 NA
HETATM    2  C5  UNK     1      30.016  -8.540  35.864  1.00  0.00     0.038 C 
HETATM    3  C9  UNK     1      30.362  -8.192  34.598  1.00  0.00     0.057 C 
HETATM    4  C24 UNK     1      31.763  -8.157  34.277  1.00  0.00     0.100 C 
ENDROOT
BRANCH   3   5
HETATM    5  C10 UNK     1      29.394  -7.862  33.558  1.00  0.00     0.006 A 
HETATM    6  C18 UNK     1      28.910  -8.817  32.662  1.00  0.00     0.047 A 
HETATM    7 Cl2  UNK     1      29.424 -10.467  32.721  1.00  0.00    -0.083 Cl
HETATM    8  C21 UNK     1      27.985  -8.451  31.685  1.00  0.00     0.048 A 
HETATM    9  C23 UNK     1      27.544  -7.129  31.603  1.00  0.00     0.035 A 
HETATM   10  C22 UNK     1      28.028  -6.175  32.497  1.00  0.00     0.025 A 
HETATM   11 Cl3  UNK     1      26.402  -6.677  30.396  1.00  0.00    -0.084 Cl
HETATM   12  C19 UNK     1      28.953  -6.542  33.475  1.00  0.00     0.016 A 
ENDBRANCH   3   5
BRANCH   2  13
HETATM   13  C1  UNK     1      28.648  -8.611  36.392  1.00  0.00     0.000 A 
HETATM   14  C2  UNK     1      28.114  -7.555  37.118  1.00  0.00     0.079 A 
HETATM   15  C7  UNK     1      26.812  -7.645  37.609  1.00  0.00     0.039 A 
HETATM   16  C12 UNK     1      26.054  -8.792  37.369  1.00  0.00     0.026 A 
HETATM   17  C11 UNK     1      26.599  -9.847  36.638  1.00  0.00     0.035 A 
HETATM   18 Cl1  UNK     1      25.664 -11.262  36.344  1.00  0.00    -0.084 Cl
HETATM   19  C6  UNK     1      27.901  -9.756  36.147  1.00  0.00     0.038 A 
BRANCH  14  20
HETATM   20  O1  UNK     1      28.833  -6.423  37.369  1.00  0.00    -0.348 OA
BRANCH  20  21
HETATM   21  C3  UNK     1      28.937  -6.011  38.729  1.00  0.00     0.202 C 
BRANCH  21  22
HETATM   22  C4  UNK     1      29.528  -4.616  38.781  1.00  0.00     0.202 C 
BRANCH  22  23
HETATM   23  O2  UNK     1      30.919  -4.712  39.064  1.00  0.00    -0.349 OA
BRANCH  23  24
HETATM   24  C8  UNK     1      31.764  -4.770  37.987  1.00  0.00     0.068 A 
HETATM   25  C14 UNK     1      31.566  -3.913  36.910  1.00  0.00     0.037 A 
HETATM   26  C16 UNK     1      32.427  -3.972  35.814  1.00  0.00     0.009 A 
HETATM   27  C13 UNK     1      33.481  -4.885  35.803  1.00  0.00    -0.062 A 
HETATM   28  C17 UNK     1      33.674  -5.741  36.886  1.00  0.00     0.009 A 
HETATM   29  C20 UNK     1      34.401  -4.947  34.631  1.00  0.00     0.048 C 
HETATM   30  C15 UNK     1      32.812  -5.683  37.983  1.00  0.00     0.037 A 
ENDBRANCH  23  24
ENDBRANCH  22  23
ENDBRANCH  21  22
ENDBRANCH  20  21
ENDBRANCH  14  20
ENDBRANCH   2  13
TORSDOF 7
ENDMDL
MODEL 9
REMARK VINA RESULT:      -6.8     31.062     33.737
REMARK  7 active torsions:
REMARK  status: ('A' for Active; 'I' for Inactive)
REMARK    1  A    between atoms: C2_8  and  O1_4 
REMARK    2  A    between atoms: C3_9  and  O1_4 
REMARK    3  A    between atoms: C4_10  and  O2_5 
REMARK    4  A    between atoms: C8_14  and  O2_5 
REMARK    5  A    between atoms: C1_7  and  C5_11 
REMARK    6  A    between atoms: C3_9  and  C4_10 
REMARK    7  A    between atoms: C10_16  and  C9_15 
ROOT
HETATM    1  N1  UNK     1       9.760   8.846   9.822  1.00  0.00    -0.191 NA
HETATM    2  C5  UNK     1      13.150   9.072   9.225  1.00  0.00     0.038 C 
HETATM    3  C9  UNK     1      12.257   9.484  10.161  1.00  0.00     0.057 C 
HETATM    4  C24 UNK     1      10.878   9.128   9.966  1.00  0.00     0.100 C 
ENDROOT
BRANCH   3   5
HETATM    5  C10 UNK     1      12.623  10.257  11.342  1.00  0.00     0.006 A 
HETATM    6  C18 UNK     1      12.557  11.651  11.370  1.00  0.00     0.047 A 
HETATM    7 Cl2  UNK     1      12.036  12.567   9.999  1.00  0.00    -0.083 Cl
HETATM    8  C21 UNK     1      12.918  12.343  12.525  1.00  0.00     0.048 A 
HETATM    9  C23 UNK     1      13.345  11.642  13.654  1.00  0.00     0.035 A 
HETATM   10  C22 UNK     1      13.410  10.249  13.627  1.00  0.00     0.025 A 
HETATM   11 Cl3  UNK     1      13.791  12.496  15.080  1.00  0.00    -0.084 Cl
HETATM   12  C19 UNK     1      13.049   9.557  12.471  1.00  0.00     0.016 A 
ENDBRANCH   3   5
BRANCH   2  13
HETATM   13  C1  UNK     1      14.592   9.352   9.231  1.00  0.00     0.000 A 
HETATM   14  C2  UNK     1      15.477   8.487   9.861  1.00  0.00     0.079 A 
HETATM   15  C7  UNK     1      16.841   8.773   9.854  1.00  0.00     0.039 A 
HETATM   16  C12 UNK     1      17.310   9.922   9.215  1.00  0.00     0.026 A 
HETATM   17  C11 UNK     1      16.413  10.784   8.585  1.00  0.00     0.035 A 
HETATM   18 Cl1  UNK     1      16.991  12.202   7.799  1.00  0.00    -0.084 Cl
HETATM   19  C6  UNK     1      15.048  10.497   8.593  1.00  0.00     0.038 A 
BRANCH  14  20
HETATM   20  O1  UNK     1      15.047   7.358  10.494  1.00  0.00    -0.348 OA
BRANCH  20  21
HETATM   21  C3  UNK     1      15.739   6.147  10.198  1.00  0.00     0.202 C 
BRANCH  21  22
HETATM   22  C4  UNK     1      14.750   5.129   9.663  1.00  0.00     0.202 C 
BRANCH  22  23
HETATM   23  O2  UNK     1      14.462   5.434   8.303  1.00  0.00    -0.349 OA
BRANCH  23  24
HETATM   24  C8  UNK     1      13.152   5.695   7.995  1.00  0.00     0.068 A 
HETATM   25  C14 UNK     1      12.145   5.276   8.857  1.00  0.00     0.037 A 
HETATM   26  C16 UNK     1      10.813   5.543   8.543  1.00  0.00     0.009 A 
HETATM   27  C13 UNK     1      10.496   6.227   7.370  1.00  0.00    -0.062 A 
HETATM   28  C17 UNK     1      11.511   6.645   6.510  1.00  0.00     0.009 A 
HETATM   29  C20 UNK     1       9.071   6.511   7.034  1.00  0.00     0.048 C 
HETATM   30  C15 UNK     1      12.844   6.377   6.823  1.00  0.00     0.037 A 
ENDBRANCH  23  24
ENDBRANCH  22  23
ENDBRANCH  21  22
ENDBRANCH  20  21
ENDBRANCH  14  20
ENDBRANCH   2  13
TORSDOF 7
ENDMDL
MODEL 10
REMARK VINA RESULT:      -6.8      3.596      6.767
REMARK  7 active torsions:
REMARK  status: ('A' for Active; 'I' for Inactive)
REMARK    1  A    between atoms: C2_8  and  O1_4 
REMARK    2  A    between atoms: C3_9  and  O1_4 
REMARK    3  A    between atoms: C4_10  and  O2_5 
REMARK    4  A    between atoms: C8_14  and  O2_5 
REMARK    5  A    between atoms: C1_7  and  C5_11 
REMARK    6  A    between atoms: C3_9  and  C4_10 
REMARK    7  A    between atoms: C10_16  and  C9_15 
ROOT
HETATM    1  N1  UNK     1      35.519  -6.217  29.366  1.00  0.00    -0.191 NA
HETATM    2  C5  UNK     1      32.827  -7.652  30.977  1.00  0.00     0.038 C 
HETATM    3  C9  UNK     1      34.167  -7.846  30.874  1.00  0.00     0.057 C 
HETATM    4  C24 UNK     1      34.908  -6.941  30.038  1.00  0.00     0.100 C 
ENDROOT
BRANCH   3   5
HETATM    5  C10 UNK     1      34.885  -8.911  31.566  1.00  0.00     0.006 A 
HETATM    6  C18 UNK     1      35.351  -8.767  32.873  1.00  0.00     0.047 A 
HETATM    7 Cl2  UNK     1      35.110  -7.309  33.772  1.00  0.00    -0.083 Cl
HETATM    8  C21 UNK     1      36.032  -9.815  33.490  1.00  0.00     0.048 A 
HETATM    9  C23 UNK     1      36.247 -11.009  32.800  1.00  0.00     0.035 A 
HETATM   10  C22 UNK     1      35.782 -11.153  31.493  1.00  0.00     0.025 A 
HETATM   11 Cl3  UNK     1      37.089 -12.303  33.561  1.00  0.00    -0.084 Cl
HETATM   12  C19 UNK     1      35.100 -10.104  30.876  1.00  0.00     0.016 A 
ENDBRANCH   3   5
BRANCH   2  13
HETATM   13  C1  UNK     1      31.897  -8.477  31.759  1.00  0.00     0.000 A 
HETATM   14  C2  UNK     1      31.354  -8.000  32.945  1.00  0.00     0.079 A 
HETATM   15  C7  UNK     1      30.473  -8.801  33.669  1.00  0.00     0.039 A 
HETATM   16  C12 UNK     1      30.140 -10.073  33.202  1.00  0.00     0.026 A 
HETATM   17  C11 UNK     1      30.691 -10.542  32.009  1.00  0.00     0.035 A 
HETATM   18 Cl1  UNK     1      30.281 -12.112  31.434  1.00  0.00    -0.084 Cl
HETATM   19  C6  UNK     1      31.572  -9.741  31.285  1.00  0.00     0.038 A 
BRANCH  14  20
HETATM   20  O1  UNK     1      31.662  -6.762  33.426  1.00  0.00    -0.348 OA
BRANCH  20  21
HETATM   21  C3  UNK     1      30.575  -5.868  33.655  1.00  0.00     0.202 C 
BRANCH  21  22
HETATM   22  C4  UNK     1      30.246  -5.145  32.364  1.00  0.00     0.202 C 
BRANCH  22  23
HETATM   23  O2  UNK     1      28.911  -5.457  31.986  1.00  0.00    -0.349 OA
BRANCH  23  24
HETATM   24  C8  UNK     1      28.741  -6.538  31.161  1.00  0.00     0.068 A 
HETATM   25  C14 UNK     1      27.817  -7.521  31.496  1.00  0.00     0.037 A 
HETATM   26  C16 UNK     1      27.643  -8.620  30.655  1.00  0.00     0.009 A 
HETATM   27  C13 UNK     1      28.393  -8.729  29.485  1.00  0.00    -0.062 A 
HETATM   28  C17 UNK     1      29.318  -7.739  29.154  1.00  0.00     0.009 A 
HETATM   29  C20 UNK     1      28.208  -9.905  28.586  1.00  0.00     0.048 C 
HETATM   30  C15 UNK     1      29.493  -6.639  29.996  1.00  0.00     0.037 A 
ENDBRANCH  23  24
ENDBRANCH  22  23
ENDBRANCH  21  22
ENDBRANCH  20  21
ENDBRANCH  14  20
ENDBRANCH   2  13
TORSDOF 7
ENDMDL
