MODEL 1
REMARK VINA RESULT:      -9.4      0.000      0.000
REMARK  7 active torsions:
REMARK  status: ('A' for Active; 'I' for Inactive)
REMARK    1  A    between atoms: C18_25  and  O3_3 
REMARK    2  A    between atoms: C23_30  and  O3_3 
REMARK    3  A    between atoms: C5_12  and  N1_5 
REMARK    4  A    between atoms: C6_13  and  N2_6 
REMARK    5  A    between atoms: C5_12  and  C7_14 
REMARK    6  A    between atoms: C6_13  and  C8_15 
REMARK    7  A    between atoms: C14_21  and  C20_27 
ROOT
HETATM    1  N1  UNK     1      19.629  -3.107  36.605  1.00  0.00     0.096 N 
HETATM    2  N2  UNK     1      18.502  -0.862  35.174  1.00  0.00     0.097 N 
HETATM    3  C1  UNK     1      20.355  -2.464  35.503  1.00  0.00     0.303 C 
HETATM    4  C2  UNK     1      18.753  -2.139  37.275  1.00  0.00     0.303 C 
HETATM    5  C3  UNK     1      19.380  -1.830  34.505  1.00  0.00     0.303 C 
HETATM    6  C4  UNK     1      17.777  -1.504  36.277  1.00  0.00     0.303 C 
ENDROOT
BRANCH   1   7
HETATM    7  C5  UNK     1      20.560  -3.710  37.557  1.00  0.00     0.312 C 
BRANCH   7   8
HETATM    8  C7  UNK     1      20.522  -5.198  37.513  1.00  0.00    -0.011 A 
HETATM    9  C11 UNK     1      19.460  -5.849  37.016  1.00  0.00     0.092 A 
HETATM   10  C15 UNK     1      19.376  -7.319  36.954  1.00  0.00     0.288 A 
HETATM   11  O2  UNK     1      20.465  -8.026  37.440  1.00  0.00    -0.275 OA
HETATM   12  O4  UNK     1      18.388  -7.879  36.492  1.00  0.00    -0.260 OA
HETATM   13  C12 UNK     1      21.594  -7.369  37.969  1.00  0.00     0.090 A 
HETATM   14  C9  UNK     1      21.659  -5.977  38.022  1.00  0.00     0.009 A 
HETATM   15  C17 UNK     1      22.631  -8.183  38.431  1.00  0.00     0.041 A 
HETATM   16  C13 UNK     1      22.816  -5.400  38.564  1.00  0.00     0.051 A 
HETATM   17  C18 UNK     1      23.864  -6.202  39.032  1.00  0.00     0.069 A 
HETATM   18  C19 UNK     1      23.770  -7.592  38.964  1.00  0.00     0.039 A 
BRANCH  17  19
HETATM   19  O3  UNK     1      24.979  -5.623  39.555  1.00  0.00    -0.351 OA
BRANCH  19  20
HETATM   20  C23 UNK     1      26.050  -5.346  38.654  1.00  0.00     0.171 C 
HETATM   21  C27 UNK     1      27.133  -6.388  38.842  1.00  0.00     0.034 C 
ENDBRANCH  19  20
ENDBRANCH  17  19
ENDBRANCH   7   8
ENDBRANCH   1   7
BRANCH   2  22
HETATM   22  C6  UNK     1      17.571  -0.260  34.221  1.00  0.00     0.334 C 
BRANCH  22  23
HETATM   23  C8  UNK     1      17.893   1.192  34.068  1.00  0.00     0.095 A 
HETATM   24  C10 UNK     1      18.238   2.106  35.031  1.00  0.00     0.078 A 
HETATM   25  C16 UNK     1      18.421   2.061  36.485  1.00  0.00     0.079 C 
HETATM   26  O1  UNK     1      18.440   3.305  34.417  1.00  0.00    -0.294 OA
HETATM   27  C14 UNK     1      18.201   3.036  33.105  1.00  0.00     0.180 A 
HETATM   28  N3  UNK     1      17.871   1.793  32.836  1.00  0.00    -0.224 NA
BRANCH  27  29
HETATM   29  C20 UNK     1      18.347   4.153  32.214  1.00  0.00     0.017 A 
HETATM   30  C21 UNK     1      18.884   3.964  30.941  1.00  0.00     0.016 A 
HETATM   31  C24 UNK     1      19.027   5.049  30.076  1.00  0.00     0.001 A 
HETATM   32  C26 UNK     1      18.634   6.323  30.484  1.00  0.00     0.000 A 
HETATM   33  C25 UNK     1      18.097   6.513  31.757  1.00  0.00     0.001 A 
HETATM   34  C22 UNK     1      17.954   5.428  32.623  1.00  0.00     0.016 A 
ENDBRANCH  27  29
ENDBRANCH  22  23
ENDBRANCH   2  22
TORSDOF 7
ENDMDL
MODEL 2
REMARK VINA RESULT:      -9.1      5.525      8.850
REMARK  7 active torsions:
REMARK  status: ('A' for Active; 'I' for Inactive)
REMARK    1  A    between atoms: C18_25  and  O3_3 
REMARK    2  A    between atoms: C23_30  and  O3_3 
REMARK    3  A    between atoms: C5_12  and  N1_5 
REMARK    4  A    between atoms: C6_13  and  N2_6 
REMARK    5  A    between atoms: C5_12  and  C7_14 
REMARK    6  A    between atoms: C6_13  and  C8_15 
REMARK    7  A    between atoms: C14_21  and  C20_27 
ROOT
HETATM    1  N1  UNK     1      18.749   3.178  31.280  1.00  0.00     0.096 N 
HETATM    2  N2  UNK     1      18.780   5.884  32.299  1.00  0.00     0.097 N 
HETATM    3  C1  UNK     1      17.906   3.575  32.414  1.00  0.00     0.303 C 
HETATM    4  C2  UNK     1      18.987   4.323  30.393  1.00  0.00     0.303 C 
HETATM    5  C3  UNK     1      18.541   4.738  33.185  1.00  0.00     0.303 C 
HETATM    6  C4  UNK     1      19.622   5.487  31.163  1.00  0.00     0.303 C 
ENDROOT
BRANCH   1   7
HETATM    7  C5  UNK     1      18.142   2.070  30.545  1.00  0.00     0.312 C 
BRANCH   7   8
HETATM    8  C7  UNK     1      19.048   0.891  30.458  1.00  0.00    -0.011 A 
HETATM    9  C11 UNK     1      19.748   0.637  29.343  1.00  0.00     0.092 A 
HETATM   10  C15 UNK     1      20.655  -0.516  29.210  1.00  0.00     0.288 A 
HETATM   11  O2  UNK     1      20.764  -1.354  30.309  1.00  0.00    -0.275 OA
HETATM   12  O4  UNK     1      21.280  -0.717  28.174  1.00  0.00    -0.260 OA
HETATM   13  C12 UNK     1      20.040  -1.112  31.494  1.00  0.00     0.090 A 
HETATM   14  C9  UNK     1      19.184  -0.016  31.606  1.00  0.00     0.009 A 
HETATM   15  C17 UNK     1      20.226  -2.022  32.537  1.00  0.00     0.041 A 
HETATM   16  C13 UNK     1      18.499   0.153  32.817  1.00  0.00     0.051 A 
HETATM   17  C18 UNK     1      18.675  -0.750  33.871  1.00  0.00     0.069 A 
HETATM   18  C19 UNK     1      19.538  -1.836  33.731  1.00  0.00     0.039 A 
BRANCH  17  19
HETATM   19  O3  UNK     1      17.999  -0.568  35.039  1.00  0.00    -0.351 OA
BRANCH  19  20
HETATM   20  C23 UNK     1      17.119   0.552  35.113  1.00  0.00     0.171 C 
HETATM   21  C27 UNK     1      15.704   0.054  35.318  1.00  0.00     0.034 C 
ENDBRANCH  19  20
ENDBRANCH  17  19
ENDBRANCH   7   8
ENDBRANCH   1   7
BRANCH   2  22
HETATM   22  C6  UNK     1      19.388   6.991  33.035  1.00  0.00     0.334 C 
BRANCH  22  23
HETATM   23  C8  UNK     1      18.396   8.102  33.160  1.00  0.00     0.095 A 
HETATM   24  C10 UNK     1      17.130   8.193  32.638  1.00  0.00     0.078 A 
HETATM   25  C16 UNK     1      16.285   7.324  31.813  1.00  0.00     0.079 C 
HETATM   26  O1  UNK     1      16.605   9.390  33.019  1.00  0.00    -0.294 OA
HETATM   27  C14 UNK     1      17.600   9.956  33.755  1.00  0.00     0.180 A 
HETATM   28  N3  UNK     1      18.691   9.235  33.875  1.00  0.00    -0.224 NA
BRANCH  27  29
HETATM   29  C20 UNK     1      17.303  11.255  34.290  1.00  0.00     0.017 A 
HETATM   30  C21 UNK     1      18.280  12.250  34.287  1.00  0.00     0.016 A 
HETATM   31  C24 UNK     1      17.992  13.512  34.807  1.00  0.00     0.001 A 
HETATM   32  C26 UNK     1      16.727  13.779  35.331  1.00  0.00     0.000 A 
HETATM   33  C25 UNK     1      15.750  12.784  35.334  1.00  0.00     0.001 A 
HETATM   34  C22 UNK     1      16.037  11.522  34.815  1.00  0.00     0.016 A 
ENDBRANCH  27  29
ENDBRANCH  22  23
ENDBRANCH   2  22
TORSDOF 7
ENDMDL
MODEL 3
REMARK VINA RESULT:      -9.1      5.812      8.830
REMARK  7 active torsions:
REMARK  status: ('A' for Active; 'I' for Inactive)
REMARK    1  A    between atoms: C18_25  and  O3_3 
REMARK    2  A    between atoms: C23_30  and  O3_3 
REMARK    3  A    between atoms: C5_12  and  N1_5 
REMARK    4  A    between atoms: C6_13  and  N2_6 
REMARK    5  A    between atoms: C5_12  and  C7_14 
REMARK    6  A    between atoms: C6_13  and  C8_15 
REMARK    7  A    between atoms: C14_21  and  C20_27 
ROOT
HETATM    1  N1  UNK     1      18.865   3.655  31.438  1.00  0.00     0.096 N 
HETATM    2  N2  UNK     1      19.250   6.266  32.620  1.00  0.00     0.097 N 
HETATM    3  C1  UNK     1      18.091   4.083  32.610  1.00  0.00     0.303 C 
HETATM    4  C2  UNK     1      19.237   4.815  30.619  1.00  0.00     0.303 C 
HETATM    5  C3  UNK     1      18.877   5.106  33.438  1.00  0.00     0.303 C 
HETATM    6  C4  UNK     1      20.022   5.838  31.446  1.00  0.00     0.303 C 
ENDROOT
BRANCH   1   7
HETATM    7  C5  UNK     1      18.114   2.681  30.648  1.00  0.00     0.312 C 
BRANCH   7   8
HETATM    8  C7  UNK     1      18.818   1.372  30.556  1.00  0.00    -0.011 A 
HETATM    9  C11 UNK     1      19.406   0.980  29.417  1.00  0.00     0.092 A 
HETATM   10  C15 UNK     1      20.112  -0.305  29.278  1.00  0.00     0.288 A 
HETATM   11  O2  UNK     1      20.149  -1.120  30.399  1.00  0.00    -0.275 OA
HETATM   12  O4  UNK     1      20.638  -0.630  28.219  1.00  0.00    -0.260 OA
HETATM   13  C12 UNK     1      19.540  -0.735  31.610  1.00  0.00     0.090 A 
HETATM   14  C9  UNK     1      18.874   0.485  31.727  1.00  0.00     0.009 A 
HETATM   15  C17 UNK     1      19.640  -1.635  32.673  1.00  0.00     0.041 A 
HETATM   16  C13 UNK     1      18.293   0.793  32.965  1.00  0.00     0.051 A 
HETATM   17  C18 UNK     1      18.384  -0.099  34.039  1.00  0.00     0.069 A 
HETATM   18  C19 UNK     1      19.057  -1.311  33.893  1.00  0.00     0.039 A 
BRANCH  17  19
HETATM   19  O3  UNK     1      17.813   0.219  35.234  1.00  0.00    -0.351 OA
BRANCH  19  20
HETATM   20  C23 UNK     1      18.343   1.347  35.927  1.00  0.00     0.171 C 
HETATM   21  C27 UNK     1      17.737   1.401  37.314  1.00  0.00     0.034 C 
ENDBRANCH  19  20
ENDBRANCH  17  19
ENDBRANCH   7   8
ENDBRANCH   1   7
BRANCH   2  22
HETATM   22  C6  UNK     1      20.001   7.239  33.410  1.00  0.00     0.334 C 
BRANCH  22  23
HETATM   23  C8  UNK     1      19.119   8.403  33.726  1.00  0.00     0.095 A 
HETATM   24  C10 UNK     1      19.456   9.626  34.250  1.00  0.00     0.078 A 
HETATM   25  C16 UNK     1      20.706  10.258  34.685  1.00  0.00     0.079 C 
HETATM   26  O1  UNK     1      18.316  10.363  34.360  1.00  0.00    -0.294 OA
HETATM   27  C14 UNK     1      17.350   9.529  33.891  1.00  0.00     0.180 A 
HETATM   28  N3  UNK     1      17.768   8.347  33.498  1.00  0.00    -0.224 NA
BRANCH  27  29
HETATM   29  C20 UNK     1      16.019  10.070  33.896  1.00  0.00     0.017 A 
HETATM   30  C21 UNK     1      15.681  11.079  34.797  1.00  0.00     0.016 A 
HETATM   31  C24 UNK     1      14.388  11.604  34.803  1.00  0.00     0.001 A 
HETATM   32  C26 UNK     1      13.434  11.119  33.908  1.00  0.00     0.000 A 
HETATM   33  C25 UNK     1      13.772  10.110  33.007  1.00  0.00     0.001 A 
HETATM   34  C22 UNK     1      15.064   9.584  33.001  1.00  0.00     0.016 A 
ENDBRANCH  27  29
ENDBRANCH  22  23
ENDBRANCH   2  22
TORSDOF 7
ENDMDL
MODEL 4
REMARK VINA RESULT:      -9.0      2.518     11.178
REMARK  7 active torsions:
REMARK  status: ('A' for Active; 'I' for Inactive)
REMARK    1  A    between atoms: C18_25  and  O3_3 
REMARK    2  A    between atoms: C23_30  and  O3_3 
REMARK    3  A    between atoms: C5_12  and  N1_5 
REMARK    4  A    between atoms: C6_13  and  N2_6 
REMARK    5  A    between atoms: C5_12  and  C7_14 
REMARK    6  A    between atoms: C6_13  and  C8_15 
REMARK    7  A    between atoms: C14_21  and  C20_27 
ROOT
HETATM    1  N1  UNK     1      18.909  -0.953  35.209  1.00  0.00     0.096 N 
HETATM    2  N2  UNK     1      19.588  -3.405  36.582  1.00  0.00     0.097 N 
HETATM    3  C1  UNK     1      19.545  -2.071  34.502  1.00  0.00     0.303 C 
HETATM    4  C2  UNK     1      18.099  -1.448  36.328  1.00  0.00     0.303 C 
HETATM    5  C3  UNK     1      20.397  -2.909  35.462  1.00  0.00     0.303 C 
HETATM    6  C4  UNK     1      18.950  -2.287  37.288  1.00  0.00     0.303 C 
ENDROOT
BRANCH   1   7
HETATM    7  C5  UNK     1      18.096  -0.155  34.293  1.00  0.00     0.312 C 
BRANCH   7   8
HETATM    8  C7  UNK     1      18.654  -0.144  32.912  1.00  0.00    -0.011 A 
HETATM    9  C11 UNK     1      19.170  -1.254  32.365  1.00  0.00     0.092 A 
HETATM   10  C15 UNK     1      19.734  -1.291  31.004  1.00  0.00     0.288 A 
HETATM   11  O2  UNK     1      19.710  -0.105  30.288  1.00  0.00    -0.275 OA
HETATM   12  O4  UNK     1      20.198  -2.326  30.537  1.00  0.00    -0.260 OA
HETATM   13  C12 UNK     1      19.173   1.077  30.836  1.00  0.00     0.090 A 
HETATM   14  C9  UNK     1      18.644   1.098  32.126  1.00  0.00     0.009 A 
HETATM   15  C17 UNK     1      19.203   2.212  30.024  1.00  0.00     0.041 A 
HETATM   16  C13 UNK     1      18.131   2.314  32.599  1.00  0.00     0.051 A 
HETATM   17  C18 UNK     1      18.154   3.460  31.797  1.00  0.00     0.069 A 
HETATM   18  C19 UNK     1      18.689   3.409  30.511  1.00  0.00     0.039 A 
BRANCH  17  19
HETATM   19  O3  UNK     1      17.651   4.632  32.275  1.00  0.00    -0.351 OA
BRANCH  19  20
HETATM   20  C23 UNK     1      18.436   5.806  32.071  1.00  0.00     0.171 C 
HETATM   21  C27 UNK     1      19.399   5.962  33.230  1.00  0.00     0.034 C 
ENDBRANCH  19  20
ENDBRANCH  17  19
ENDBRANCH   7   8
ENDBRANCH   1   7
BRANCH   2  22
HETATM   22  C6  UNK     1      20.403  -4.202  37.498  1.00  0.00     0.334 C 
BRANCH  22  23
HETATM   23  C8  UNK     1      20.343  -5.638  37.087  1.00  0.00     0.095 A 
HETATM   24  C10 UNK     1      19.245  -6.406  36.789  1.00  0.00     0.078 A 
HETATM   25  C16 UNK     1      17.798  -6.174  36.749  1.00  0.00     0.079 C 
HETATM   26  O1  UNK     1      19.683  -7.655  36.467  1.00  0.00    -0.294 OA
HETATM   27  C14 UNK     1      21.035  -7.561  36.593  1.00  0.00     0.180 A 
HETATM   28  N3  UNK     1      21.486  -6.383  36.959  1.00  0.00    -0.224 NA
BRANCH  27  29
HETATM   29  C20 UNK     1      21.761  -8.766  36.304  1.00  0.00     0.017 A 
HETATM   30  C21 UNK     1      23.047  -8.944  36.815  1.00  0.00     0.016 A 
HETATM   31  C24 UNK     1      23.753 -10.114  36.533  1.00  0.00     0.001 A 
HETATM   32  C26 UNK     1      23.174 -11.106  35.742  1.00  0.00     0.000 A 
HETATM   33  C25 UNK     1      21.888 -10.928  35.232  1.00  0.00     0.001 A 
HETATM   34  C22 UNK     1      21.182  -9.758  35.512  1.00  0.00     0.016 A 
ENDBRANCH  27  29
ENDBRANCH  22  23
ENDBRANCH   2  22
TORSDOF 7
ENDMDL
MODEL 5
REMARK VINA RESULT:      -8.9      5.688     11.780
REMARK  7 active torsions:
REMARK  status: ('A' for Active; 'I' for Inactive)
REMARK    1  A    between atoms: C18_25  and  O3_3 
REMARK    2  A    between atoms: C23_30  and  O3_3 
REMARK    3  A    between atoms: C5_12  and  N1_5 
REMARK    4  A    between atoms: C6_13  and  N2_6 
REMARK    5  A    between atoms: C5_12  and  C7_14 
REMARK    6  A    between atoms: C6_13  and  C8_15 
REMARK    7  A    between atoms: C14_21  and  C20_27 
ROOT
HETATM    1  N1  UNK     1      23.754  -9.415  37.131  1.00  0.00     0.096 N 
HETATM    2  N2  UNK     1      26.201  -8.392  38.283  1.00  0.00     0.097 N 
HETATM    3  C1  UNK     1      23.778  -8.141  37.861  1.00  0.00     0.303 C 
HETATM    4  C2  UNK     1      25.056  -9.671  36.505  1.00  0.00     0.303 C 
HETATM    5  C3  UNK     1      24.897  -8.134  38.908  1.00  0.00     0.303 C 
HETATM    6  C4  UNK     1      26.176  -9.664  37.551  1.00  0.00     0.303 C 
ENDROOT
BRANCH   1   7
HETATM    7  C5  UNK     1      22.687  -9.420  36.132  1.00  0.00     0.312 C 
BRANCH   7   8
HETATM    8  C7  UNK     1      21.336  -9.497  36.753  1.00  0.00    -0.011 A 
HETATM    9  C11 UNK     1      20.924 -10.610  37.378  1.00  0.00     0.092 A 
HETATM   10  C15 UNK     1      19.598 -10.733  38.006  1.00  0.00     0.288 A 
HETATM   11  O2  UNK     1      18.766  -9.628  37.927  1.00  0.00    -0.275 OA
HETATM   12  O4  UNK     1      19.255 -11.768  38.569  1.00  0.00    -0.260 OA
HETATM   13  C12 UNK     1      19.171  -8.445  37.277  1.00  0.00     0.090 A 
HETATM   14  C9  UNK     1      20.431  -8.343  36.686  1.00  0.00     0.009 A 
HETATM   15  C17 UNK     1      18.250  -7.395  37.258  1.00  0.00     0.041 A 
HETATM   16  C13 UNK     1      20.757  -7.133  36.057  1.00  0.00     0.051 A 
HETATM   17  C18 UNK     1      19.845  -6.072  36.030  1.00  0.00     0.069 A 
HETATM   18  C19 UNK     1      18.594  -6.203  36.630  1.00  0.00     0.039 A 
BRANCH  17  19
HETATM   19  O3  UNK     1      20.181  -4.905  35.413  1.00  0.00    -0.351 OA
BRANCH  19  20
HETATM   20  C23 UNK     1      20.052  -3.707  36.177  1.00  0.00     0.171 C 
HETATM   21  C27 UNK     1      20.156  -2.517  35.246  1.00  0.00     0.034 C 
ENDBRANCH  19  20
ENDBRANCH  17  19
ENDBRANCH   7   8
ENDBRANCH   1   7
BRANCH   2  22
HETATM   22  C6  UNK     1      27.266  -8.387  39.283  1.00  0.00     0.334 C 
BRANCH  22  23
HETATM   23  C8  UNK     1      28.330  -7.425  38.865  1.00  0.00     0.095 A 
HETATM   24  C10 UNK     1      28.243  -6.067  38.681  1.00  0.00     0.078 A 
HETATM   25  C16 UNK     1      27.174  -5.072  38.801  1.00  0.00     0.079 C 
HETATM   26  O1  UNK     1      29.471  -5.617  38.300  1.00  0.00    -0.294 OA
HETATM   27  C14 UNK     1      30.232  -6.745  38.277  1.00  0.00     0.180 A 
HETATM   28  N3  UNK     1      29.607  -7.853  38.605  1.00  0.00    -0.224 NA
BRANCH  27  29
HETATM   29  C20 UNK     1      31.604  -6.550  37.899  1.00  0.00     0.017 A 
HETATM   30  C21 UNK     1      32.012  -5.327  37.365  1.00  0.00     0.016 A 
HETATM   31  C24 UNK     1      33.344  -5.138  36.997  1.00  0.00     0.001 A 
HETATM   32  C26 UNK     1      34.267  -6.170  37.161  1.00  0.00     0.000 A 
HETATM   33  C25 UNK     1      33.859  -7.393  37.694  1.00  0.00     0.001 A 
HETATM   34  C22 UNK     1      32.527  -7.583  38.062  1.00  0.00     0.016 A 
ENDBRANCH  27  29
ENDBRANCH  22  23
ENDBRANCH   2  22
TORSDOF 7
ENDMDL
MODEL 6
REMARK VINA RESULT:      -8.9      6.266     15.025
REMARK  7 active torsions:
REMARK  status: ('A' for Active; 'I' for Inactive)
REMARK    1  A    between atoms: C18_25  and  O3_3 
REMARK    2  A    between atoms: C23_30  and  O3_3 
REMARK    3  A    between atoms: C5_12  and  N1_5 
REMARK    4  A    between atoms: C6_13  and  N2_6 
REMARK    5  A    between atoms: C5_12  and  C7_14 
REMARK    6  A    between atoms: C6_13  and  C8_15 
REMARK    7  A    between atoms: C14_21  and  C20_27 
ROOT
HETATM    1  N1  UNK     1      16.364   8.860  33.559  1.00  0.00     0.096 N 
HETATM    2  N2  UNK     1      17.644   6.417  32.691  1.00  0.00     0.097 N 
HETATM    3  C1  UNK     1      15.599   7.620  33.384  1.00  0.00     0.303 C 
HETATM    4  C2  UNK     1      17.754   8.558  33.921  1.00  0.00     0.303 C 
HETATM    5  C3  UNK     1      16.254   6.719  32.330  1.00  0.00     0.303 C 
HETATM    6  C4  UNK     1      18.409   7.658  32.868  1.00  0.00     0.303 C 
ENDROOT
BRANCH   1   7
HETATM    7  C5  UNK     1      15.740   9.718  34.564  1.00  0.00     0.312 C 
BRANCH   7   8
HETATM    8  C7  UNK     1      14.886  10.772  33.951  1.00  0.00    -0.011 A 
HETATM    9  C11 UNK     1      13.616  10.519  33.602  1.00  0.00     0.092 A 
HETATM   10  C15 UNK     1      12.735  11.529  32.991  1.00  0.00     0.288 A 
HETATM   11  O2  UNK     1      13.278  12.787  32.785  1.00  0.00    -0.275 OA
HETATM   12  O4  UNK     1      11.578  11.261  32.685  1.00  0.00    -0.260 OA
HETATM   13  C12 UNK     1      14.609  13.083  33.142  1.00  0.00     0.090 A 
HETATM   14  C9  UNK     1      15.433  12.116  33.719  1.00  0.00     0.009 A 
HETATM   15  C17 UNK     1      15.051  14.383  32.887  1.00  0.00     0.041 A 
HETATM   16  C13 UNK     1      16.745  12.489  34.043  1.00  0.00     0.051 A 
HETATM   17  C18 UNK     1      17.202  13.788  33.794  1.00  0.00     0.069 A 
HETATM   18  C19 UNK     1      16.355  14.733  33.217  1.00  0.00     0.039 A 
BRANCH  17  19
HETATM   19  O3  UNK     1      18.480  14.130  34.116  1.00  0.00    -0.351 OA
BRANCH  19  20
HETATM   20  C23 UNK     1      19.170  14.988  33.208  1.00  0.00     0.171 C 
HETATM   21  C27 UNK     1      19.960  16.008  34.001  1.00  0.00     0.034 C 
ENDBRANCH  19  20
ENDBRANCH  17  19
ENDBRANCH   7   8
ENDBRANCH   1   7
BRANCH   2  22
HETATM   22  C6  UNK     1      18.268   5.561  31.684  1.00  0.00     0.334 C 
BRANCH  22  23
HETATM   23  C8  UNK     1      18.195   4.137  32.135  1.00  0.00     0.095 A 
HETATM   24  C10 UNK     1      18.194   2.991  31.380  1.00  0.00     0.078 A 
HETATM   25  C16 UNK     1      18.257   2.695  29.946  1.00  0.00     0.079 C 
HETATM   26  O1  UNK     1      18.115   1.930  32.231  1.00  0.00    -0.294 OA
HETATM   27  C14 UNK     1      18.072   2.510  33.461  1.00  0.00     0.180 A 
HETATM   28  N3  UNK     1      18.117   3.822  33.467  1.00  0.00    -0.224 NA
BRANCH  27  29
HETATM   29  C20 UNK     1      17.984   1.595  34.566  1.00  0.00     0.017 A 
HETATM   30  C21 UNK     1      18.121   2.066  35.872  1.00  0.00     0.016 A 
HETATM   31  C24 UNK     1      18.037   1.177  36.945  1.00  0.00     0.001 A 
HETATM   32  C26 UNK     1      17.817  -0.180  36.712  1.00  0.00     0.000 A 
HETATM   33  C25 UNK     1      17.681  -0.650  35.405  1.00  0.00     0.001 A 
HETATM   34  C22 UNK     1      17.765   0.237  34.332  1.00  0.00     0.016 A 
ENDBRANCH  27  29
ENDBRANCH  22  23
ENDBRANCH   2  22
TORSDOF 7
ENDMDL
MODEL 7
REMARK VINA RESULT:      -8.8      8.566     13.480
REMARK  7 active torsions:
REMARK  status: ('A' for Active; 'I' for Inactive)
REMARK    1  A    between atoms: C18_25  and  O3_3 
REMARK    2  A    between atoms: C23_30  and  O3_3 
REMARK    3  A    between atoms: C5_12  and  N1_5 
REMARK    4  A    between atoms: C6_13  and  N2_6 
REMARK    5  A    between atoms: C5_12  and  C7_14 
REMARK    6  A    between atoms: C6_13  and  C8_15 
REMARK    7  A    between atoms: C14_21  and  C20_27 
ROOT
HETATM    1  N1  UNK     1      26.926  -9.433  37.499  1.00  0.00     0.096 N 
HETATM    2  N2  UNK     1      29.774  -9.082  37.848  1.00  0.00     0.097 N 
HETATM    3  C1  UNK     1      27.524  -9.345  38.837  1.00  0.00     0.303 C 
HETATM    4  C2  UNK     1      27.724  -8.673  36.530  1.00  0.00     0.303 C 
HETATM    5  C3  UNK     1      28.975  -9.841  38.818  1.00  0.00     0.303 C 
HETATM    6  C4  UNK     1      29.175  -9.168  36.511  1.00  0.00     0.303 C 
ENDROOT
BRANCH   1   7
HETATM    7  C5  UNK     1      25.543  -8.959  37.518  1.00  0.00     0.312 C 
BRANCH   7   8
HETATM    8  C7  UNK     1      24.626  -9.873  36.783  1.00  0.00    -0.011 A 
HETATM    9  C11 UNK     1      25.060 -11.045  36.296  1.00  0.00     0.092 A 
HETATM   10  C15 UNK     1      24.191 -11.981  35.562  1.00  0.00     0.288 A 
HETATM   11  O2  UNK     1      22.871 -11.598  35.386  1.00  0.00    -0.275 OA
HETATM   12  O4  UNK     1      24.624 -13.044  35.131  1.00  0.00    -0.260 OA
HETATM   13  C12 UNK     1      22.386 -10.372  35.886  1.00  0.00     0.090 A 
HETATM   14  C9  UNK     1      23.221  -9.496  36.579  1.00  0.00     0.009 A 
HETATM   15  C17 UNK     1      21.039 -10.090  35.650  1.00  0.00     0.041 A 
HETATM   16  C13 UNK     1      22.662  -8.296  37.042  1.00  0.00     0.051 A 
HETATM   17  C18 UNK     1      21.314  -7.999  36.813  1.00  0.00     0.069 A 
HETATM   18  C19 UNK     1      20.504  -8.895  36.118  1.00  0.00     0.039 A 
BRANCH  17  19
HETATM   19  O3  UNK     1      20.791  -6.828  37.271  1.00  0.00    -0.351 OA
BRANCH  19  20
HETATM   20  C23 UNK     1      21.015  -6.510  38.643  1.00  0.00     0.171 C 
HETATM   21  C27 UNK     1      20.064  -7.322  39.498  1.00  0.00     0.034 C 
ENDBRANCH  19  20
ENDBRANCH  17  19
ENDBRANCH   7   8
ENDBRANCH   1   7
BRANCH   2  22
HETATM   22  C6  UNK     1      31.156  -9.557  37.830  1.00  0.00     0.334 C 
BRANCH  22  23
HETATM   23  C8  UNK     1      32.020  -8.535  37.165  1.00  0.00     0.095 A 
HETATM   24  C10 UNK     1      32.179  -7.207  37.472  1.00  0.00     0.078 A 
HETATM   25  C16 UNK     1      31.625  -6.304  38.485  1.00  0.00     0.079 C 
HETATM   26  O1  UNK     1      33.070  -6.677  36.589  1.00  0.00    -0.294 OA
HETATM   27  C14 UNK     1      33.397  -7.731  35.793  1.00  0.00     0.180 A 
HETATM   28  N3  UNK     1      32.803  -8.865  36.088  1.00  0.00    -0.224 NA
BRANCH  27  29
HETATM   29  C20 UNK     1      34.344  -7.442  34.752  1.00  0.00     0.017 A 
HETATM   30  C21 UNK     1      35.692  -7.272  35.065  1.00  0.00     0.016 A 
HETATM   31  C24 UNK     1      36.612  -6.990  34.053  1.00  0.00     0.001 A 
HETATM   32  C26 UNK     1      36.183  -6.879  32.731  1.00  0.00     0.000 A 
HETATM   33  C25 UNK     1      34.834  -7.049  32.419  1.00  0.00     0.001 A 
HETATM   34  C22 UNK     1      33.914  -7.330  33.429  1.00  0.00     0.016 A 
ENDBRANCH  27  29
ENDBRANCH  22  23
ENDBRANCH   2  22
TORSDOF 7
ENDMDL
MODEL 8
REMARK VINA RESULT:      -8.8     27.164     29.787
REMARK  7 active torsions:
REMARK  status: ('A' for Active; 'I' for Inactive)
REMARK    1  A    between atoms: C18_25  and  O3_3 
REMARK    2  A    between atoms: C23_30  and  O3_3 
REMARK    3  A    between atoms: C5_12  and  N1_5 
REMARK    4  A    between atoms: C6_13  and  N2_6 
REMARK    5  A    between atoms: C5_12  and  C7_14 
REMARK    6  A    between atoms: C6_13  and  C8_15 
REMARK    7  A    between atoms: C14_21  and  C20_27 
ROOT
HETATM    1  N1  UNK     1      11.882   6.311   7.364  1.00  0.00     0.096 N 
HETATM    2  N2  UNK     1       9.071   6.137   8.018  1.00  0.00     0.097 N 
HETATM    3  C1  UNK     1      10.856   6.865   6.471  1.00  0.00     0.303 C 
HETATM    4  C2  UNK     1      11.420   6.344   8.757  1.00  0.00     0.303 C 
HETATM    5  C3  UNK     1       9.533   6.106   6.625  1.00  0.00     0.303 C 
HETATM    6  C4  UNK     1      10.097   5.585   8.911  1.00  0.00     0.303 C 
ENDROOT
BRANCH   1   7
HETATM    7  C5  UNK     1      13.143   7.036   7.218  1.00  0.00     0.312 C 
BRANCH   7   8
HETATM    8  C7  UNK     1      14.099   6.727   8.316  1.00  0.00    -0.011 A 
HETATM    9  C11 UNK     1      14.508   5.471   8.546  1.00  0.00     0.092 A 
HETATM   10  C15 UNK     1      15.451   5.117   9.620  1.00  0.00     0.288 A 
HETATM   11  O2  UNK     1      15.916   6.157  10.409  1.00  0.00    -0.275 OA
HETATM   12  O4  UNK     1      15.802   3.955   9.800  1.00  0.00    -0.260 OA
HETATM   13  C12 UNK     1      15.505   7.487  10.192  1.00  0.00     0.090 A 
HETATM   14  C9  UNK     1      14.610   7.808   9.170  1.00  0.00     0.009 A 
HETATM   15  C17 UNK     1      16.037   8.454  11.048  1.00  0.00     0.041 A 
HETATM   16  C13 UNK     1      14.249   9.154   9.021  1.00  0.00     0.051 A 
HETATM   17  C18 UNK     1      14.773  10.134   9.871  1.00  0.00     0.069 A 
HETATM   18  C19 UNK     1      15.667   9.784  10.883  1.00  0.00     0.039 A 
BRANCH  17  19
HETATM   19  O3  UNK     1      14.410  11.436   9.710  1.00  0.00    -0.351 OA
BRANCH  19  20
HETATM   20  C23 UNK     1      15.427  12.348   9.299  1.00  0.00     0.171 C 
HETATM   21  C27 UNK     1      15.585  12.265   7.795  1.00  0.00     0.034 C 
ENDBRANCH  19  20
ENDBRANCH  17  19
ENDBRANCH   7   8
ENDBRANCH   1   7
BRANCH   2  22
HETATM   22  C6  UNK     1       7.811   5.411   8.163  1.00  0.00     0.334 C 
BRANCH  22  23
HETATM   23  C8  UNK     1       7.323   5.547   9.570  1.00  0.00     0.095 A 
HETATM   24  C10 UNK     1       7.271   6.667  10.361  1.00  0.00     0.078 A 
HETATM   25  C16 UNK     1       7.637   8.076  10.189  1.00  0.00     0.079 C 
HETATM   26  O1  UNK     1       6.750   6.304  11.566  1.00  0.00    -0.294 OA
HETATM   27  C14 UNK     1       6.517   4.970  11.425  1.00  0.00     0.180 A 
HETATM   28  N3  UNK     1       6.838   4.463  10.256  1.00  0.00    -0.224 NA
BRANCH  27  29
HETATM   29  C20 UNK     1       5.955   4.322  12.576  1.00  0.00     0.017 A 
HETATM   30  C21 UNK     1       5.925   4.984  13.804  1.00  0.00     0.016 A 
HETATM   31  C24 UNK     1       5.380   4.353  14.923  1.00  0.00     0.001 A 
HETATM   32  C26 UNK     1       4.864   3.062  14.814  1.00  0.00     0.000 A 
HETATM   33  C25 UNK     1       4.893   2.400  13.587  1.00  0.00     0.001 A 
HETATM   34  C22 UNK     1       5.439   3.030  12.468  1.00  0.00     0.016 A 
ENDBRANCH  27  29
ENDBRANCH  22  23
ENDBRANCH   2  22
TORSDOF 7
ENDMDL
MODEL 9
REMARK VINA RESULT:      -8.7     10.967     13.987
REMARK  7 active torsions:
REMARK  status: ('A' for Active; 'I' for Inactive)
REMARK    1  A    between atoms: C18_25  and  O3_3 
REMARK    2  A    between atoms: C23_30  and  O3_3 
REMARK    3  A    between atoms: C5_12  and  N1_5 
REMARK    4  A    between atoms: C6_13  and  N2_6 
REMARK    5  A    between atoms: C5_12  and  C7_14 
REMARK    6  A    between atoms: C6_13  and  C8_15 
REMARK    7  A    between atoms: C14_21  and  C20_27 
ROOT
HETATM    1  N1  UNK     1      32.542  -7.859  36.065  1.00  0.00     0.096 N 
HETATM    2  N2  UNK     1      33.246  -9.923  34.167  1.00  0.00     0.097 N 
HETATM    3  C1  UNK     1      32.129  -9.253  36.267  1.00  0.00     0.303 C 
HETATM    4  C2  UNK     1      33.798  -7.801  35.308  1.00  0.00     0.303 C 
HETATM    5  C3  UNK     1      31.990  -9.981  34.926  1.00  0.00     0.303 C 
HETATM    6  C4  UNK     1      33.660  -8.529  33.966  1.00  0.00     0.303 C 
ENDROOT
BRANCH   1   7
HETATM    7  C5  UNK     1      32.674  -7.166  37.346  1.00  0.00     0.312 C 
BRANCH   7   8
HETATM    8  C7  UNK     1      31.899  -5.895  37.380  1.00  0.00    -0.011 A 
HETATM    9  C11 UNK     1      32.412  -4.758  36.890  1.00  0.00     0.092 A 
HETATM   10  C15 UNK     1      31.684  -3.477  36.903  1.00  0.00     0.288 A 
HETATM   11  O2  UNK     1      30.412  -3.490  37.454  1.00  0.00    -0.275 OA
HETATM   12  O4  UNK     1      32.186  -2.456  36.446  1.00  0.00    -0.260 OA
HETATM   13  C12 UNK     1      29.846  -4.670  37.976  1.00  0.00     0.090 A 
HETATM   14  C9  UNK     1      30.548  -5.875  37.957  1.00  0.00     0.009 A 
HETATM   15  C17 UNK     1      28.559  -4.565  38.506  1.00  0.00     0.041 A 
HETATM   16  C13 UNK     1      29.916  -7.004  38.498  1.00  0.00     0.051 A 
HETATM   17  C18 UNK     1      28.627  -6.914  39.034  1.00  0.00     0.069 A 
HETATM   18  C19 UNK     1      27.949  -5.695  39.037  1.00  0.00     0.039 A 
BRANCH  17  19
HETATM   19  O3  UNK     1      28.030  -8.022  39.554  1.00  0.00    -0.351 OA
BRANCH  19  20
HETATM   20  C23 UNK     1      28.077  -9.213  38.771  1.00  0.00     0.171 C 
HETATM   21  C27 UNK     1      27.410 -10.334  39.540  1.00  0.00     0.034 C 
ENDBRANCH  19  20
ENDBRANCH  17  19
ENDBRANCH   7   8
ENDBRANCH   1   7
BRANCH   2  22
HETATM   22  C6  UNK     1      33.111 -10.615  32.886  1.00  0.00     0.334 C 
BRANCH  22  23
HETATM   23  C8  UNK     1      31.757 -10.339  32.317  1.00  0.00     0.095 A 
HETATM   24  C10 UNK     1      30.751 -11.222  32.014  1.00  0.00     0.078 A 
HETATM   25  C16 UNK     1      30.585 -12.675  32.107  1.00  0.00     0.079 C 
HETATM   26  O1  UNK     1      29.702 -10.507  31.519  1.00  0.00    -0.294 OA
HETATM   27  C14 UNK     1      30.147  -9.221  31.555  1.00  0.00     0.180 A 
HETATM   28  N3  UNK     1      31.364  -9.059  32.021  1.00  0.00    -0.224 NA
BRANCH  27  29
HETATM   29  C20 UNK     1      29.215  -8.238  31.077  1.00  0.00     0.017 A 
HETATM   30  C21 UNK     1      29.641  -6.932  30.839  1.00  0.00     0.016 A 
HETATM   31  C24 UNK     1      28.736  -5.976  30.376  1.00  0.00     0.001 A 
HETATM   32  C26 UNK     1      27.405  -6.327  30.151  1.00  0.00     0.000 A 
HETATM   33  C25 UNK     1      26.978  -7.634  30.389  1.00  0.00     0.001 A 
HETATM   34  C22 UNK     1      27.883  -8.589  30.853  1.00  0.00     0.016 A 
ENDBRANCH  27  29
ENDBRANCH  22  23
ENDBRANCH   2  22
TORSDOF 7
ENDMDL
MODEL 10
REMARK VINA RESULT:      -8.7     27.699     31.245
REMARK  7 active torsions:
REMARK  status: ('A' for Active; 'I' for Inactive)
REMARK    1  A    between atoms: C18_25  and  O3_3 
REMARK    2  A    between atoms: C23_30  and  O3_3 
REMARK    3  A    between atoms: C5_12  and  N1_5 
REMARK    4  A    between atoms: C6_13  and  N2_6 
REMARK    5  A    between atoms: C5_12  and  C7_14 
REMARK    6  A    between atoms: C6_13  and  C8_15 
REMARK    7  A    between atoms: C14_21  and  C20_27 
ROOT
HETATM    1  N1  UNK     1      17.240  11.069  10.035  1.00  0.00     0.096 N 
HETATM    2  N2  UNK     1      15.326   8.931  10.387  1.00  0.00     0.097 N 
HETATM    3  C1  UNK     1      17.212   9.915   9.128  1.00  0.00     0.303 C 
HETATM    4  C2  UNK     1      15.901  11.327  10.577  1.00  0.00     0.303 C 
HETATM    5  C3  UNK     1      16.666   8.674   9.843  1.00  0.00     0.303 C 
HETATM    6  C4  UNK     1      15.353  10.086  11.292  1.00  0.00     0.303 C 
ENDROOT
BRANCH   1   7
HETATM    7  C5  UNK     1      17.761  12.252   9.352  1.00  0.00     0.312 C 
BRANCH   7   8
HETATM    8  C7  UNK     1      19.244  12.342   9.437  1.00  0.00    -0.011 A 
HETATM    9  C11 UNK     1      19.901  11.945  10.536  1.00  0.00     0.092 A 
HETATM   10  C15 UNK     1      21.366  12.015  10.666  1.00  0.00     0.288 A 
HETATM   11  O2  UNK     1      22.064  12.520   9.581  1.00  0.00    -0.275 OA
HETATM   12  O4  UNK     1      21.932  11.643  11.689  1.00  0.00    -0.260 OA
HETATM   13  C12 UNK     1      21.402  12.945   8.411  1.00  0.00     0.090 A 
HETATM   14  C9  UNK     1      20.013  12.873   8.303  1.00  0.00     0.009 A 
HETATM   15  C17 UNK     1      22.206  13.437   7.381  1.00  0.00     0.041 A 
HETATM   16  C13 UNK     1      19.431  13.317   7.107  1.00  0.00     0.051 A 
HETATM   17  C18 UNK     1      20.223  13.813   6.066  1.00  0.00     0.069 A 
HETATM   18  C19 UNK     1      21.609  13.872   6.203  1.00  0.00     0.039 A 
BRANCH  17  19
HETATM   19  O3  UNK     1      19.638  14.240   4.913  1.00  0.00    -0.351 OA
BRANCH  19  20
HETATM   20  C23 UNK     1      19.745  15.629   4.607  1.00  0.00     0.171 C 
HETATM   21  C27 UNK     1      18.485  16.333   5.065  1.00  0.00     0.034 C 
ENDBRANCH  19  20
ENDBRANCH  17  19
ENDBRANCH   7   8
ENDBRANCH   1   7
BRANCH   2  22
HETATM   22  C6  UNK     1      14.807   7.747  11.070  1.00  0.00     0.334 C 
BRANCH  22  23
HETATM   23  C8  UNK     1      14.010   6.931  10.104  1.00  0.00     0.095 A 
HETATM   24  C10 UNK     1      14.255   5.665   9.635  1.00  0.00     0.078 A 
HETATM   25  C16 UNK     1      15.302   4.662   9.856  1.00  0.00     0.079 C 
HETATM   26  O1  UNK     1      13.253   5.336   8.774  1.00  0.00    -0.294 OA
HETATM   27  C14 UNK     1      12.455   6.439   8.776  1.00  0.00     0.180 A 
HETATM   28  N3  UNK     1      12.856   7.422   9.550  1.00  0.00    -0.224 NA
BRANCH  27  29
HETATM   29  C20 UNK     1      11.296   6.358   7.931  1.00  0.00     0.017 A 
HETATM   30  C21 UNK     1      11.445   6.346   6.544  1.00  0.00     0.016 A 
HETATM   31  C24 UNK     1      10.319   6.268   5.724  1.00  0.00     0.001 A 
HETATM   32  C26 UNK     1       9.046   6.203   6.289  1.00  0.00     0.000 A 
HETATM   33  C25 UNK     1       8.898   6.216   7.676  1.00  0.00     0.001 A 
HETATM   34  C22 UNK     1      10.023   6.294   8.497  1.00  0.00     0.016 A 
ENDBRANCH  27  29
ENDBRANCH  22  23
ENDBRANCH   2  22
TORSDOF 7
ENDMDL
