MODEL 1
REMARK VINA RESULT:     -10.2      0.000      0.000
REMARK  6 active torsions:
REMARK  status: ('A' for Active; 'I' for Inactive)
REMARK    1  A    between atoms: C3_14  and  O2_2 
REMARK       I    between atoms: C14_25  and  N1_9 
REMARK    2  A    between atoms: C5_16  and  N1_9 
REMARK    3  A    between atoms: C16_27  and  N2_10 
REMARK    4  A    between atoms: C21_32  and  N3_11 
REMARK    5  A    between atoms: C1_12  and  C2_13 
REMARK    6  A    between atoms: C12_23  and  C14_25 
ROOT
HETATM    1  C1  UNK     1      18.685  -0.523  35.400  1.00  0.00     0.014 A 
HETATM    2  C3  UNK     1      17.675  -1.084  36.185  1.00  0.00     0.081 A 
HETATM    3  C5  UNK     1      18.925  -3.148  36.320  1.00  0.00     0.037 A 
HETATM    4  C7  UNK     1      19.813  -1.277  35.076  1.00  0.00     0.017 A 
HETATM    5  C8  UNK     1      17.796  -2.396  36.644  1.00  0.00     0.067 A 
HETATM    6  C10 UNK     1      19.934  -2.588  35.536  1.00  0.00     0.030 A 
ENDROOT
BRANCH   3   7
HETATM    7  N1  UNK     1      19.044  -4.460  36.778  1.00  0.00    -0.323 N 
HETATM    8  C14 UNK     1      20.202  -5.121  37.210  1.00  0.00     0.258 C 
HETATM    9  O4  UNK     1      21.336  -4.658  37.264  1.00  0.00    -0.267 OA
HETATM   10  H5  UNK     1      18.180  -4.997  36.793  1.00  0.00     0.169 HD
BRANCH   8  11
HETATM   11  C12 UNK     1      20.012  -6.539  37.616  1.00  0.00     0.065 A 
HETATM   12  C16 UNK     1      19.897  -7.532  36.664  1.00  0.00     0.120 A 
HETATM   13  C20 UNK     1      19.719  -8.850  37.083  1.00  0.00     0.073 A 
HETATM   14  C21 UNK     1      19.660  -9.148  38.444  1.00  0.00     0.105 A 
HETATM   15  C22 UNK     1      19.778  -8.128  39.388  1.00  0.00     0.037 A 
HETATM   16  C18 UNK     1      19.956  -6.809  38.969  1.00  0.00     0.022 A 
BRANCH  12  17
HETATM   17  N2  UNK     1      19.954  -7.254  35.270  1.00  0.00    -0.115 N 
HETATM   18  O5  UNK     1      18.893  -6.975  34.664  1.00  0.00    -0.532 OA
HETATM   19  O6  UNK     1      21.065  -7.296  34.691  1.00  0.00    -0.532 OA
ENDBRANCH  12  17
BRANCH  14  20
HETATM   20  N3  UNK     1      19.479 -10.491  38.870  1.00  0.00    -0.116 N 
HETATM   21  O7  UNK     1      19.409 -11.398  38.007  1.00  0.00    -0.532 OA
HETATM   22  O8  UNK     1      19.394 -10.733  40.099  1.00  0.00    -0.532 OA
ENDBRANCH  14  20
ENDBRANCH   8  11
ENDBRANCH   3   7
BRANCH   2  23
HETATM   23  O2  UNK     1      16.562  -0.370  36.515  1.00  0.00    -0.355 OA
HETATM   24  C23 UNK     1      15.576  -0.204  35.499  1.00  0.00     0.210 C 
ENDBRANCH   2  23
BRANCH   1  25
HETATM   25  C2  UNK     1      18.581   0.860  34.902  1.00  0.00     0.053 A 
HETATM   26  C11 UNK     1      18.669   2.009  35.846  1.00  0.00     0.299 A 
HETATM   27  O1  UNK     1      18.593   3.286  35.296  1.00  0.00    -0.274 OA
HETATM   28  O3  UNK     1      18.796   1.849  37.056  1.00  0.00    -0.259 OA
HETATM   29  C9  UNK     1      18.422   3.495  33.915  1.00  0.00     0.089 A 
HETATM   30  C15 UNK     1      18.346   4.811  33.462  1.00  0.00     0.038 A 
HETATM   31  C4  UNK     1      18.333   2.415  33.044  1.00  0.00    -0.001 A 
HETATM   32  C19 UNK     1      18.176   5.047  32.100  1.00  0.00     0.003 A 
HETATM   33  C17 UNK     1      18.085   3.975  31.211  1.00  0.00     0.001 A 
HETATM   34  C13 UNK     1      18.164   2.660  31.680  1.00  0.00     0.014 A 
HETATM   35  C6  UNK     1      18.425   1.069  33.586  1.00  0.00     0.032 A 
ENDBRANCH   1  25
TORSDOF 6
ENDMDL
MODEL 2
REMARK VINA RESULT:     -10.1     28.277     30.693
REMARK  6 active torsions:
REMARK  status: ('A' for Active; 'I' for Inactive)
REMARK    1  A    between atoms: C3_14  and  O2_2 
REMARK       I    between atoms: C14_25  and  N1_9 
REMARK    2  A    between atoms: C5_16  and  N1_9 
REMARK    3  A    between atoms: C16_27  and  N2_10 
REMARK    4  A    between atoms: C21_32  and  N3_11 
REMARK    5  A    between atoms: C1_12  and  C2_13 
REMARK    6  A    between atoms: C12_23  and  C14_25 
ROOT
HETATM    1  C1  UNK     1      14.490   8.762   9.094  1.00  0.00     0.014 A 
HETATM    2  C3  UNK     1      15.394   8.051   9.885  1.00  0.00     0.081 A 
HETATM    3  C5  UNK     1      17.040   9.793   9.575  1.00  0.00     0.037 A 
HETATM    4  C7  UNK     1      14.863   9.989   8.545  1.00  0.00     0.017 A 
HETATM    5  C8  UNK     1      16.668   8.566  10.125  1.00  0.00     0.067 A 
HETATM    6  C10 UNK     1      16.137  10.505   8.785  1.00  0.00     0.030 A 
ENDROOT
BRANCH   3   7
HETATM    7  N1  UNK     1      18.315  10.307   9.813  1.00  0.00    -0.323 N 
HETATM    8  C14 UNK     1      18.665  11.619  10.158  1.00  0.00     0.258 C 
HETATM    9  O4  UNK     1      17.903  12.566  10.316  1.00  0.00    -0.267 OA
HETATM   10  H5  UNK     1      19.078   9.640   9.718  1.00  0.00     0.169 HD
BRANCH   8  11
HETATM   11  C12 UNK     1      20.122  11.867  10.320  1.00  0.00     0.065 A 
HETATM   12  C16 UNK     1      20.928  12.060   9.216  1.00  0.00     0.120 A 
HETATM   13  C20 UNK     1      22.290  12.290   9.407  1.00  0.00     0.073 A 
HETATM   14  C21 UNK     1      22.818  12.322  10.698  1.00  0.00     0.105 A 
HETATM   15  C22 UNK     1      21.984  12.124  11.798  1.00  0.00     0.037 A 
HETATM   16  C18 UNK     1      20.622  11.895  11.607  1.00  0.00     0.022 A 
BRANCH  12  17
HETATM   17  N2  UNK     1      20.413  12.032   7.890  1.00  0.00    -0.115 N 
HETATM   18  O5  UNK     1      20.423  13.088   7.215  1.00  0.00    -0.532 OA
HETATM   19  O6  UNK     1      19.967  10.952   7.437  1.00  0.00    -0.532 OA
ENDBRANCH  12  17
BRANCH  14  20
HETATM   20  N3  UNK     1      24.205  12.557  10.892  1.00  0.00    -0.116 N 
HETATM   21  O7  UNK     1      24.569  13.604  11.479  1.00  0.00    -0.532 OA
HETATM   22  O8  UNK     1      25.031  11.709  10.472  1.00  0.00    -0.532 OA
ENDBRANCH  14  20
ENDBRANCH   8  11
ENDBRANCH   3   7
BRANCH   2  23
HETATM   23  O2  UNK     1      15.056   6.849  10.434  1.00  0.00    -0.355 OA
HETATM   24  C23 UNK     1      15.636   5.686   9.849  1.00  0.00     0.210 C 
ENDBRANCH   2  23
BRANCH   1  25
HETATM   25  C2  UNK     1      13.138   8.240   8.826  1.00  0.00     0.053 A 
HETATM   26  C11 UNK     1      12.062   8.377   9.847  1.00  0.00     0.299 A 
HETATM   27  O1  UNK     1      10.804   7.885   9.508  1.00  0.00    -0.274 OA
HETATM   28  O3  UNK     1      12.264   8.892  10.942  1.00  0.00    -0.259 OA
HETATM   29  C9  UNK     1      10.553   7.268   8.268  1.00  0.00     0.089 A 
HETATM   30  C15 UNK     1       9.263   6.798   8.027  1.00  0.00     0.038 A 
HETATM   31  C4  UNK     1      11.568   7.138   7.327  1.00  0.00    -0.001 A 
HETATM   32  C19 UNK     1       8.987   6.181   6.808  1.00  0.00     0.003 A 
HETATM   33  C17 UNK     1       9.992   6.043   5.851  1.00  0.00     0.001 A 
HETATM   34  C13 UNK     1      11.282   6.520   6.108  1.00  0.00     0.014 A 
HETATM   35  C6  UNK     1      12.888   7.655   7.645  1.00  0.00     0.032 A 
ENDBRANCH   1  25
TORSDOF 6
ENDMDL
MODEL 3
REMARK VINA RESULT:      -9.8      0.984      1.580
REMARK  6 active torsions:
REMARK  status: ('A' for Active; 'I' for Inactive)
REMARK    1  A    between atoms: C3_14  and  O2_2 
REMARK       I    between atoms: C14_25  and  N1_9 
REMARK    2  A    between atoms: C5_16  and  N1_9 
REMARK    3  A    between atoms: C16_27  and  N2_10 
REMARK    4  A    between atoms: C21_32  and  N3_11 
REMARK    5  A    between atoms: C1_12  and  C2_13 
REMARK    6  A    between atoms: C12_23  and  C14_25 
ROOT
HETATM    1  C1  UNK     1      18.706  -0.741  35.350  1.00  0.00     0.014 A 
HETATM    2  C3  UNK     1      19.490  -1.668  34.662  1.00  0.00     0.081 A 
HETATM    3  C5  UNK     1      18.931  -3.357  36.297  1.00  0.00     0.037 A 
HETATM    4  C7  UNK     1      18.034  -1.123  36.511  1.00  0.00     0.017 A 
HETATM    5  C8  UNK     1      19.602  -2.975  35.136  1.00  0.00     0.067 A 
HETATM    6  C10 UNK     1      18.147  -2.431  36.985  1.00  0.00     0.030 A 
ENDROOT
BRANCH   3   7
HETATM    7  N1  UNK     1      19.045  -4.663  36.772  1.00  0.00    -0.323 N 
HETATM    8  C14 UNK     1      20.203  -5.330  37.195  1.00  0.00     0.258 C 
HETATM    9  O4  UNK     1      21.343  -4.877  37.223  1.00  0.00    -0.267 OA
HETATM   10  H5  UNK     1      18.176  -5.190  36.811  1.00  0.00     0.169 HD
BRANCH   8  11
HETATM   11  C12 UNK     1      20.006  -6.739  37.625  1.00  0.00     0.065 A 
HETATM   12  C16 UNK     1      19.870  -7.745  36.691  1.00  0.00     0.120 A 
HETATM   13  C20 UNK     1      19.686  -9.056  37.132  1.00  0.00     0.073 A 
HETATM   14  C21 UNK     1      19.642  -9.332  38.499  1.00  0.00     0.105 A 
HETATM   15  C22 UNK     1      19.782  -8.298  39.424  1.00  0.00     0.037 A 
HETATM   16  C18 UNK     1      19.966  -6.988  38.983  1.00  0.00     0.022 A 
BRANCH  12  17
HETATM   17  N2  UNK     1      19.911  -7.489  35.292  1.00  0.00    -0.115 N 
HETATM   18  O5  UNK     1      18.858  -7.140  34.709  1.00  0.00    -0.532 OA
HETATM   19  O6  UNK     1      21.000  -7.621  34.685  1.00  0.00    -0.532 OA
ENDBRANCH  12  17
BRANCH  14  20
HETATM   20  N3  UNK     1      19.455 -10.666  38.948  1.00  0.00    -0.116 N 
HETATM   21  O7  UNK     1      19.423 -11.593  38.104  1.00  0.00    -0.532 OA
HETATM   22  O8  UNK     1      19.327 -10.882  40.178  1.00  0.00    -0.532 OA
ENDBRANCH  14  20
ENDBRANCH   8  11
ENDBRANCH   3   7
BRANCH   2  23
HETATM   23  O2  UNK     1      20.157  -1.320  33.524  1.00  0.00    -0.355 OA
HETATM   24  C23 UNK     1      20.664  -2.384  32.722  1.00  0.00     0.210 C 
ENDBRANCH   2  23
BRANCH   1  25
HETATM   25  C2  UNK     1      18.571   0.647  34.870  1.00  0.00     0.053 A 
HETATM   26  C11 UNK     1      18.575   1.781  35.835  1.00  0.00     0.299 A 
HETATM   27  O1  UNK     1      18.473   3.064  35.302  1.00  0.00    -0.274 OA
HETATM   28  O3  UNK     1      18.657   1.606  37.046  1.00  0.00    -0.259 OA
HETATM   29  C9  UNK     1      18.353   3.290  33.918  1.00  0.00     0.089 A 
HETATM   30  C15 UNK     1      18.245   4.610  33.483  1.00  0.00     0.038 A 
HETATM   31  C4  UNK     1      18.342   2.223  33.028  1.00  0.00    -0.001 A 
HETATM   32  C19 UNK     1      18.124   4.863  32.119  1.00  0.00     0.003 A 
HETATM   33  C17 UNK     1      18.111   3.804  31.210  1.00  0.00     0.001 A 
HETATM   34  C13 UNK     1      18.220   2.485  31.662  1.00  0.00     0.014 A 
HETATM   35  C6  UNK     1      18.462   0.872  33.551  1.00  0.00     0.032 A 
ENDBRANCH   1  25
TORSDOF 6
ENDMDL
MODEL 4
REMARK VINA RESULT:      -9.5      6.194      9.668
REMARK  6 active torsions:
REMARK  status: ('A' for Active; 'I' for Inactive)
REMARK    1  A    between atoms: C3_14  and  O2_2 
REMARK       I    between atoms: C14_25  and  N1_9 
REMARK    2  A    between atoms: C5_16  and  N1_9 
REMARK    3  A    between atoms: C16_27  and  N2_10 
REMARK    4  A    between atoms: C21_32  and  N3_11 
REMARK    5  A    between atoms: C1_12  and  C2_13 
REMARK    6  A    between atoms: C12_23  and  C14_25 
ROOT
HETATM    1  C1  UNK     1      17.554   7.779  33.604  1.00  0.00     0.014 A 
HETATM    2  C3  UNK     1      16.922   7.134  32.540  1.00  0.00     0.081 A 
HETATM    3  C5  UNK     1      18.307   5.186  32.896  1.00  0.00     0.037 A 
HETATM    4  C7  UNK     1      18.563   7.126  34.313  1.00  0.00     0.017 A 
HETATM    5  C8  UNK     1      17.299   5.838  32.186  1.00  0.00     0.067 A 
HETATM    6  C10 UNK     1      18.940   5.830  33.959  1.00  0.00     0.030 A 
ENDROOT
BRANCH   3   7
HETATM    7  N1  UNK     1      18.686   3.891  32.541  1.00  0.00    -0.323 N 
HETATM    8  C14 UNK     1      18.071   3.035  31.616  1.00  0.00     0.258 C 
HETATM    9  O4  UNK     1      17.075   3.274  30.943  1.00  0.00    -0.267 OA
HETATM   10  H5  UNK     1      19.508   3.531  33.019  1.00  0.00     0.169 HD
BRANCH   8  11
HETATM   11  C12 UNK     1      18.698   1.695  31.475  1.00  0.00     0.065 A 
HETATM   12  C16 UNK     1      18.685   0.800  32.525  1.00  0.00     0.120 A 
HETATM   13  C20 UNK     1      19.283  -0.449  32.356  1.00  0.00     0.073 A 
HETATM   14  C21 UNK     1      19.883  -0.776  31.139  1.00  0.00     0.105 A 
HETATM   15  C22 UNK     1      19.884   0.146  30.092  1.00  0.00     0.037 A 
HETATM   16  C18 UNK     1      19.285   1.394  30.261  1.00  0.00     0.022 A 
BRANCH  12  17
HETATM   17  N2  UNK     1      18.080   1.109  33.775  1.00  0.00    -0.115 N 
HETATM   18  O5  UNK     1      18.790   1.590  34.689  1.00  0.00    -0.532 OA
HETATM   19  O6  UNK     1      16.854   0.892  33.924  1.00  0.00    -0.532 OA
ENDBRANCH  12  17
BRANCH  14  20
HETATM   20  N3  UNK     1      20.492  -2.047  30.967  1.00  0.00    -0.116 N 
HETATM   21  O7  UNK     1      20.585  -2.524  29.811  1.00  0.00    -0.532 OA
HETATM   22  O8  UNK     1      20.922  -2.658  31.975  1.00  0.00    -0.532 OA
ENDBRANCH  14  20
ENDBRANCH   8  11
ENDBRANCH   3   7
BRANCH   2  23
HETATM   23  O2  UNK     1      15.933   7.749  31.830  1.00  0.00    -0.355 OA
HETATM   24  C23 UNK     1      14.625   7.192  31.929  1.00  0.00     0.210 C 
ENDBRANCH   2  23
BRANCH   1  25
HETATM   25  C2  UNK     1      17.175   9.148  33.997  1.00  0.00     0.053 A 
HETATM   26  C11 UNK     1      15.911   9.393  34.747  1.00  0.00     0.299 A 
HETATM   27  O1  UNK     1      15.637  10.709  35.110  1.00  0.00    -0.274 OA
HETATM   28  O3  UNK     1      15.137   8.485  35.033  1.00  0.00    -0.259 OA
HETATM   29  C9  UNK     1      16.497  11.771  34.772  1.00  0.00     0.089 A 
HETATM   30  C15 UNK     1      16.129  13.055  35.169  1.00  0.00     0.038 A 
HETATM   31  C4  UNK     1      17.668  11.531  34.064  1.00  0.00    -0.001 A 
HETATM   32  C19 UNK     1      16.960  14.126  34.847  1.00  0.00     0.003 A 
HETATM   33  C17 UNK     1      18.141  13.904  34.138  1.00  0.00     0.001 A 
HETATM   34  C13 UNK     1      18.497  12.610  33.746  1.00  0.00     0.014 A 
HETATM   35  C6  UNK     1      17.991  10.166  33.684  1.00  0.00     0.032 A 
ENDBRANCH   1  25
TORSDOF 6
ENDMDL
MODEL 5
REMARK VINA RESULT:      -9.3      4.189     11.371
REMARK  6 active torsions:
REMARK  status: ('A' for Active; 'I' for Inactive)
REMARK    1  A    between atoms: C3_14  and  O2_2 
REMARK       I    between atoms: C14_25  and  N1_9 
REMARK    2  A    between atoms: C5_16  and  N1_9 
REMARK    3  A    between atoms: C16_27  and  N2_10 
REMARK    4  A    between atoms: C21_32  and  N3_11 
REMARK    5  A    between atoms: C1_12  and  C2_13 
REMARK    6  A    between atoms: C12_23  and  C14_25 
ROOT
HETATM    1  C1  UNK     1      19.059  -1.159  35.359  1.00  0.00     0.014 A 
HETATM    2  C3  UNK     1      19.018  -0.900  33.988  1.00  0.00     0.081 A 
HETATM    3  C5  UNK     1      18.286   1.358  34.434  1.00  0.00     0.037 A 
HETATM    4  C7  UNK     1      18.714  -0.157  36.266  1.00  0.00     0.017 A 
HETATM    5  C8  UNK     1      18.631   0.358  33.526  1.00  0.00     0.067 A 
HETATM    6  C10 UNK     1      18.327   1.101  35.804  1.00  0.00     0.030 A 
ENDROOT
BRANCH   3   7
HETATM    7  N1  UNK     1      17.896   2.616  33.972  1.00  0.00    -0.323 N 
HETATM    8  C14 UNK     1      18.557   3.840  34.143  1.00  0.00     0.258 C 
HETATM    9  O4  UNK     1      19.612   4.030  34.739  1.00  0.00    -0.267 OA
HETATM   10  H5  UNK     1      17.023   2.638  33.451  1.00  0.00     0.169 HD
BRANCH   8  11
HETATM   11  C12 UNK     1      17.873   5.020  33.552  1.00  0.00     0.065 A 
HETATM   12  C16 UNK     1      17.715   5.129  32.186  1.00  0.00     0.120 A 
HETATM   13  C20 UNK     1      17.068   6.251  31.668  1.00  0.00     0.073 A 
HETATM   14  C21 UNK     1      16.593   7.242  32.528  1.00  0.00     0.105 A 
HETATM   15  C22 UNK     1      16.765   7.110  33.906  1.00  0.00     0.037 A 
HETATM   16  C18 UNK     1      17.411   5.988  34.424  1.00  0.00     0.022 A 
BRANCH  12  17
HETATM   17  N2  UNK     1      18.190   4.133  31.288  1.00  0.00    -0.115 N 
HETATM   18  O5  UNK     1      17.528   3.077  31.150  1.00  0.00    -0.532 OA
HETATM   19  O6  UNK     1      19.255   4.341  30.661  1.00  0.00    -0.532 OA
ENDBRANCH  12  17
BRANCH  14  20
HETATM   20  N3  UNK     1      15.935   8.384  32.001  1.00  0.00    -0.116 N 
HETATM   21  O7  UNK     1      15.313   9.142  32.783  1.00  0.00    -0.532 OA
HETATM   22  O8  UNK     1      15.992   8.605  30.766  1.00  0.00    -0.532 OA
ENDBRANCH  14  20
ENDBRANCH   8  11
ENDBRANCH   3   7
BRANCH   2  23
HETATM   23  O2  UNK     1      19.351  -1.861  33.079  1.00  0.00    -0.355 OA
HETATM   24  C23 UNK     1      19.611  -1.428  31.746  1.00  0.00     0.210 C 
ENDBRANCH   2  23
BRANCH   1  25
HETATM   25  C2  UNK     1      19.465  -2.480  35.872  1.00  0.00     0.053 A 
HETATM   26  C11 UNK     1      20.903  -2.788  36.107  1.00  0.00     0.299 A 
HETATM   27  O1  UNK     1      21.204  -4.046  36.621  1.00  0.00    -0.274 OA
HETATM   28  O3  UNK     1      21.791  -1.979  35.856  1.00  0.00    -0.259 OA
HETATM   29  C9  UNK     1      20.205  -4.999  36.893  1.00  0.00     0.089 A 
HETATM   30  C15 UNK     1      20.608  -6.236  37.396  1.00  0.00     0.038 A 
HETATM   31  C4  UNK     1      18.867  -4.704  36.662  1.00  0.00    -0.001 A 
HETATM   32  C19 UNK     1      19.640  -7.199  37.673  1.00  0.00     0.003 A 
HETATM   33  C17 UNK     1      18.292  -6.920  37.448  1.00  0.00     0.001 A 
HETATM   34  C13 UNK     1      17.904  -5.675  36.944  1.00  0.00     0.014 A 
HETATM   35  C6  UNK     1      18.519  -3.393  36.140  1.00  0.00     0.032 A 
ENDBRANCH   1  25
TORSDOF 6
ENDMDL
MODEL 6
REMARK VINA RESULT:      -9.2      3.621     10.724
REMARK  6 active torsions:
REMARK  status: ('A' for Active; 'I' for Inactive)
REMARK    1  A    between atoms: C3_14  and  O2_2 
REMARK       I    between atoms: C14_25  and  N1_9 
REMARK    2  A    between atoms: C5_16  and  N1_9 
REMARK    3  A    between atoms: C16_27  and  N2_10 
REMARK    4  A    between atoms: C21_32  and  N3_11 
REMARK    5  A    between atoms: C1_12  and  C2_13 
REMARK    6  A    between atoms: C12_23  and  C14_25 
ROOT
HETATM    1  C1  UNK     1      19.687  -3.151  36.125  1.00  0.00     0.014 A 
HETATM    2  C3  UNK     1      19.131  -2.028  36.740  1.00  0.00     0.081 A 
HETATM    3  C5  UNK     1      19.398  -0.773  34.693  1.00  0.00     0.037 A 
HETATM    4  C7  UNK     1      20.098  -3.083  34.794  1.00  0.00     0.017 A 
HETATM    5  C8  UNK     1      18.987  -0.840  36.024  1.00  0.00     0.067 A 
HETATM    6  C10 UNK     1      19.954  -1.895  34.077  1.00  0.00     0.030 A 
ENDROOT
BRANCH   3   7
HETATM    7  N1  UNK     1      19.257   0.416  33.977  1.00  0.00    -0.323 N 
HETATM    8  C14 UNK     1      18.072   1.086  33.643  1.00  0.00     0.258 C 
HETATM    9  O4  UNK     1      16.928   0.742  33.923  1.00  0.00    -0.267 OA
HETATM   10  H5  UNK     1      20.126   0.841  33.661  1.00  0.00     0.169 HD
BRANCH   8  11
HETATM   11  C12 UNK     1      18.246   2.327  32.844  1.00  0.00     0.065 A 
HETATM   12  C16 UNK     1      18.668   2.263  31.531  1.00  0.00     0.120 A 
HETATM   13  C20 UNK     1      18.820   3.449  30.812  1.00  0.00     0.073 A 
HETATM   14  C21 UNK     1      18.547   4.674  31.421  1.00  0.00     0.105 A 
HETATM   15  C22 UNK     1      18.122   4.714  32.749  1.00  0.00     0.037 A 
HETATM   16  C18 UNK     1      17.969   3.528  33.468  1.00  0.00     0.022 A 
BRANCH  12  17
HETATM   17  N2  UNK     1      18.953   1.027  30.888  1.00  0.00    -0.115 N 
HETATM   18  O5  UNK     1      19.988   0.399  31.213  1.00  0.00    -0.532 OA
HETATM   19  O6  UNK     1      18.159   0.602  30.015  1.00  0.00    -0.532 OA
ENDBRANCH  12  17
BRANCH  14  20
HETATM   20  N3  UNK     1      18.702   5.881  30.690  1.00  0.00    -0.116 N 
HETATM   21  O7  UNK     1      19.643   5.976  29.866  1.00  0.00    -0.532 OA
HETATM   22  O8  UNK     1      17.893   6.820  30.887  1.00  0.00    -0.532 OA
ENDBRANCH  14  20
ENDBRANCH   8  11
ENDBRANCH   3   7
BRANCH   2  23
HETATM   23  O2  UNK     1      18.722  -2.067  38.040  1.00  0.00    -0.355 OA
HETATM   24  C23 UNK     1      17.966  -0.955  38.513  1.00  0.00     0.210 C 
ENDBRANCH   2  23
BRANCH   1  25
HETATM   25  C2  UNK     1      19.850  -4.419  36.860  1.00  0.00     0.053 A 
HETATM   26  C11 UNK     1      18.747  -5.420  36.889  1.00  0.00     0.299 A 
HETATM   27  O1  UNK     1      18.988  -6.605  37.578  1.00  0.00    -0.274 OA
HETATM   28  O3  UNK     1      17.669  -5.217  36.339  1.00  0.00    -0.259 OA
HETATM   29  C9  UNK     1      20.207  -6.850  38.238  1.00  0.00     0.089 A 
HETATM   30  C15 UNK     1      20.347  -8.063  38.911  1.00  0.00     0.038 A 
HETATM   31  C4  UNK     1      21.225  -5.905  38.211  1.00  0.00    -0.001 A 
HETATM   32  C19 UNK     1      21.543  -8.332  39.574  1.00  0.00     0.003 A 
HETATM   33  C17 UNK     1      22.577  -7.395  39.558  1.00  0.00     0.001 A 
HETATM   34  C13 UNK     1      22.421  -6.183  38.878  1.00  0.00     0.014 A 
HETATM   35  C6  UNK     1      21.011  -4.664  37.487  1.00  0.00     0.032 A 
ENDBRANCH   1  25
TORSDOF 6
ENDMDL
MODEL 7
REMARK VINA RESULT:      -9.1      8.291     12.385
REMARK  6 active torsions:
REMARK  status: ('A' for Active; 'I' for Inactive)
REMARK    1  A    between atoms: C3_14  and  O2_2 
REMARK       I    between atoms: C14_25  and  N1_9 
REMARK    2  A    between atoms: C5_16  and  N1_9 
REMARK    3  A    between atoms: C16_27  and  N2_10 
REMARK    4  A    between atoms: C21_32  and  N3_11 
REMARK    5  A    between atoms: C1_12  and  C2_13 
REMARK    6  A    between atoms: C12_23  and  C14_25 
ROOT
HETATM    1  C1  UNK     1      15.053   9.538  34.097  1.00  0.00     0.014 A 
HETATM    2  C3  UNK     1      16.394   9.548  33.710  1.00  0.00     0.081 A 
HETATM    3  C5  UNK     1      16.181   7.280  32.905  1.00  0.00     0.037 A 
HETATM    4  C7  UNK     1      14.277   8.398  33.886  1.00  0.00     0.017 A 
HETATM    5  C8  UNK     1      16.957   8.419  33.115  1.00  0.00     0.067 A 
HETATM    6  C10 UNK     1      14.840   7.269  33.290  1.00  0.00     0.030 A 
ENDROOT
BRANCH   3   7
HETATM    7  N1  UNK     1      16.744   6.150  32.311  1.00  0.00    -0.323 N 
HETATM    8  C14 UNK     1      17.933   5.495  32.659  1.00  0.00     0.258 C 
HETATM    9  O4  UNK     1      18.704   5.801  33.562  1.00  0.00    -0.267 OA
HETATM   10  H5  UNK     1      16.223   5.764  31.528  1.00  0.00     0.169 HD
BRANCH   8  11
HETATM   11  C12 UNK     1      18.286   4.325  31.814  1.00  0.00     0.065 A 
HETATM   12  C16 UNK     1      18.808   4.504  30.549  1.00  0.00     0.120 A 
HETATM   13  C20 UNK     1      19.127   3.382  29.784  1.00  0.00     0.073 A 
HETATM   14  C21 UNK     1      18.917   2.103  30.301  1.00  0.00     0.105 A 
HETATM   15  C22 UNK     1      18.388   1.946  31.582  1.00  0.00     0.037 A 
HETATM   16  C18 UNK     1      18.070   3.069  32.347  1.00  0.00     0.022 A 
BRANCH  12  17
HETATM   17  N2  UNK     1      19.032   5.798  29.999  1.00  0.00    -0.115 N 
HETATM   18  O5  UNK     1      20.210   6.170  29.788  1.00  0.00    -0.532 OA
HETATM   19  O6  UNK     1      18.044   6.525  29.743  1.00  0.00    -0.532 OA
ENDBRANCH  12  17
BRANCH  14  20
HETATM   20  N3  UNK     1      19.242   0.960  29.523  1.00  0.00    -0.116 N 
HETATM   21  O7  UNK     1      19.996   0.086  30.012  1.00  0.00    -0.532 OA
HETATM   22  O8  UNK     1      18.765   0.856  28.366  1.00  0.00    -0.532 OA
ENDBRANCH  14  20
ENDBRANCH   8  11
ENDBRANCH   3   7
BRANCH   2  23
HETATM   23  O2  UNK     1      17.175  10.649  33.905  1.00  0.00    -0.355 OA
HETATM   24  C23 UNK     1      18.587  10.454  33.868  1.00  0.00     0.210 C 
ENDBRANCH   2  23
BRANCH   1  25
HETATM   25  C2  UNK     1      14.434  10.718  34.729  1.00  0.00     0.053 A 
HETATM   26  C11 UNK     1      13.851  11.801  33.890  1.00  0.00     0.299 A 
HETATM   27  O1  UNK     1      13.257  12.868  34.560  1.00  0.00    -0.274 OA
HETATM   28  O3  UNK     1      13.891  11.769  32.664  1.00  0.00    -0.259 OA
HETATM   29  C9  UNK     1      13.221  12.940  35.965  1.00  0.00     0.089 A 
HETATM   30  C15 UNK     1      12.615  14.055  36.542  1.00  0.00     0.038 A 
HETATM   31  C4  UNK     1      13.776  11.926  36.737  1.00  0.00    -0.001 A 
HETATM   32  C19 UNK     1      12.565  14.152  37.931  1.00  0.00     0.003 A 
HETATM   33  C17 UNK     1      13.117  13.144  38.723  1.00  0.00     0.001 A 
HETATM   34  C13 UNK     1      13.722  12.032  38.128  1.00  0.00     0.014 A 
HETATM   35  C6  UNK     1      14.389  10.791  36.068  1.00  0.00     0.032 A 
ENDBRANCH   1  25
TORSDOF 6
ENDMDL
MODEL 8
REMARK VINA RESULT:      -9.0     28.876     30.503
REMARK  6 active torsions:
REMARK  status: ('A' for Active; 'I' for Inactive)
REMARK    1  A    between atoms: C3_14  and  O2_2 
REMARK       I    between atoms: C14_25  and  N1_9 
REMARK    2  A    between atoms: C5_16  and  N1_9 
REMARK    3  A    between atoms: C16_27  and  N2_10 
REMARK    4  A    between atoms: C21_32  and  N3_11 
REMARK    5  A    between atoms: C1_12  and  C2_13 
REMARK    6  A    between atoms: C12_23  and  C14_25 
ROOT
HETATM    1  C1  UNK     1      17.399  10.933   9.478  1.00  0.00     0.014 A 
HETATM    2  C3  UNK     1      16.354  11.659   8.905  1.00  0.00     0.081 A 
HETATM    3  C5  UNK     1      14.947   9.696   8.982  1.00  0.00     0.037 A 
HETATM    4  C7  UNK     1      17.217   9.589   9.804  1.00  0.00     0.017 A 
HETATM    5  C8  UNK     1      15.128  11.040   8.657  1.00  0.00     0.067 A 
HETATM    6  C10 UNK     1      15.991   8.970   9.556  1.00  0.00     0.030 A 
ENDROOT
BRANCH   3   7
HETATM    7  N1  UNK     1      13.722   9.076   8.732  1.00  0.00    -0.323 N 
HETATM    8  C14 UNK     1      12.928   8.344   9.625  1.00  0.00     0.258 C 
HETATM    9  O4  UNK     1      13.170   8.112  10.805  1.00  0.00    -0.267 OA
HETATM   10  H5  UNK     1      13.372   9.171   7.782  1.00  0.00     0.169 HD
BRANCH   8  11
HETATM   11  C12 UNK     1      11.679   7.779   9.050  1.00  0.00     0.065 A 
HETATM   12  C16 UNK     1      11.733   6.785   8.094  1.00  0.00     0.120 A 
HETATM   13  C20 UNK     1      10.540   6.280   7.577  1.00  0.00     0.073 A 
HETATM   14  C21 UNK     1       9.317   6.780   8.027  1.00  0.00     0.105 A 
HETATM   15  C22 UNK     1       9.288   7.785   8.993  1.00  0.00     0.037 A 
HETATM   16  C18 UNK     1      10.481   8.290   9.511  1.00  0.00     0.022 A 
BRANCH  12  17
HETATM   17  N2  UNK     1      12.967   6.259   7.620  1.00  0.00    -0.115 N 
HETATM   18  O5  UNK     1      13.538   6.826   6.659  1.00  0.00    -0.532 OA
HETATM   19  O6  UNK     1      13.445   5.243   8.178  1.00  0.00    -0.532 OA
ENDBRANCH  12  17
BRANCH  14  20
HETATM   20  N3  UNK     1       8.103   6.265   7.500  1.00  0.00    -0.116 N 
HETATM   21  O7  UNK     1       7.410   6.992   6.749  1.00  0.00    -0.532 OA
HETATM   22  O8  UNK     1       7.756   5.097   7.800  1.00  0.00    -0.532 OA
ENDBRANCH  14  20
ENDBRANCH   8  11
ENDBRANCH   3   7
BRANCH   2  23
HETATM   23  O2  UNK     1      16.506  12.974   8.576  1.00  0.00    -0.355 OA
HETATM   24  C23 UNK     1      16.546  13.292   7.187  1.00  0.00     0.210 C 
ENDBRANCH   2  23
BRANCH   1  25
HETATM   25  C2  UNK     1      18.704  11.564   9.750  1.00  0.00     0.053 A 
HETATM   26  C11 UNK     1      19.743  11.633   8.685  1.00  0.00     0.299 A 
HETATM   27  O1  UNK     1      20.938  12.272   9.009  1.00  0.00    -0.274 OA
HETATM   28  O3  UNK     1      19.568  11.149   7.571  1.00  0.00    -0.259 OA
HETATM   29  C9  UNK     1      21.171  12.813  10.287  1.00  0.00     0.089 A 
HETATM   30  C15 UNK     1      22.404  13.422  10.518  1.00  0.00     0.038 A 
HETATM   31  C4  UNK     1      20.197  12.735  11.275  1.00  0.00    -0.001 A 
HETATM   32  C19 UNK     1      22.663  13.966  11.774  1.00  0.00     0.003 A 
HETATM   33  C17 UNK     1      21.697  13.897  12.778  1.00  0.00     0.001 A 
HETATM   34  C13 UNK     1      20.465  13.283  12.531  1.00  0.00     0.014 A 
HETATM   35  C6  UNK     1      18.933  12.089  10.963  1.00  0.00     0.032 A 
ENDBRANCH   1  25
TORSDOF 6
ENDMDL
MODEL 9
REMARK VINA RESULT:      -8.9     15.553     18.842
REMARK  6 active torsions:
REMARK  status: ('A' for Active; 'I' for Inactive)
REMARK    1  A    between atoms: C3_14  and  O2_2 
REMARK       I    between atoms: C14_25  and  N1_9 
REMARK    2  A    between atoms: C5_16  and  N1_9 
REMARK    3  A    between atoms: C16_27  and  N2_10 
REMARK    4  A    between atoms: C21_32  and  N3_11 
REMARK    5  A    between atoms: C1_12  and  C2_13 
REMARK    6  A    between atoms: C12_23  and  C14_25 
ROOT
HETATM    1  C1  UNK     1      36.054  -9.058  32.659  1.00  0.00     0.014 A 
HETATM    2  C3  UNK     1      34.977  -9.740  33.228  1.00  0.00     0.081 A 
HETATM    3  C5  UNK     1      34.291  -7.717  34.357  1.00  0.00     0.037 A 
HETATM    4  C7  UNK     1      36.247  -7.706  32.939  1.00  0.00     0.017 A 
HETATM    5  C8  UNK     1      34.096  -9.070  34.077  1.00  0.00     0.067 A 
HETATM    6  C10 UNK     1      35.366  -7.035  33.788  1.00  0.00     0.030 A 
ENDROOT
BRANCH   3   7
HETATM    7  N1  UNK     1      33.411  -7.047  35.208  1.00  0.00    -0.323 N 
HETATM    8  C14 UNK     1      33.686  -6.478  36.459  1.00  0.00     0.258 C 
HETATM    9  O4  UNK     1      34.766  -6.467  37.041  1.00  0.00    -0.267 OA
HETATM   10  H5  UNK     1      32.454  -6.970  34.872  1.00  0.00     0.169 HD
BRANCH   8  11
HETATM   11  C12 UNK     1      32.524  -5.852  37.142  1.00  0.00     0.065 A 
HETATM   12  C16 UNK     1      32.024  -4.641  36.709  1.00  0.00     0.120 A 
HETATM   13  C20 UNK     1      30.933  -4.083  37.375  1.00  0.00     0.073 A 
HETATM   14  C21 UNK     1      30.365  -4.748  38.462  1.00  0.00     0.105 A 
HETATM   15  C22 UNK     1      30.888  -5.971  38.883  1.00  0.00     0.037 A 
HETATM   16  C18 UNK     1      31.979  -6.529  38.216  1.00  0.00     0.022 A 
BRANCH  12  17
HETATM   17  N2  UNK     1      32.585  -3.944  35.602  1.00  0.00    -0.115 N 
HETATM   18  O5  UNK     1      32.181  -4.216  34.447  1.00  0.00    -0.532 OA
HETATM   19  O6  UNK     1      33.465  -3.078  35.817  1.00  0.00    -0.532 OA
ENDBRANCH  12  17
BRANCH  14  20
HETATM   20  N3  UNK     1      29.254  -4.180  39.140  1.00  0.00    -0.116 N 
HETATM   21  O7  UNK     1      29.458  -3.480  40.161  1.00  0.00    -0.532 OA
HETATM   22  O8  UNK     1      28.098  -4.394  38.701  1.00  0.00    -0.532 OA
ENDBRANCH  14  20
ENDBRANCH   8  11
ENDBRANCH   3   7
BRANCH   2  23
HETATM   23  O2  UNK     1      34.765 -11.062  32.971  1.00  0.00    -0.355 OA
HETATM   24  C23 UNK     1      33.595 -11.397  32.228  1.00  0.00     0.210 C 
ENDBRANCH   2  23
BRANCH   1  25
HETATM   25  C2  UNK     1      36.998  -9.744  31.758  1.00  0.00     0.053 A 
HETATM   26  C11 UNK     1      36.735  -9.801  30.293  1.00  0.00     0.299 A 
HETATM   27  O1  UNK     1      37.689 -10.440  29.505  1.00  0.00    -0.274 OA
HETATM   28  O3  UNK     1      35.725  -9.317  29.793  1.00  0.00    -0.259 OA
HETATM   29  C9  UNK     1      38.844 -11.025  30.058  1.00  0.00     0.089 A 
HETATM   30  C15 UNK     1      39.734 -11.652  29.187  1.00  0.00     0.038 A 
HETATM   31  C4  UNK     1      39.074 -10.973  31.428  1.00  0.00    -0.001 A 
HETATM   32  C19 UNK     1      40.884 -12.241  29.707  1.00  0.00     0.003 A 
HETATM   33  C17 UNK     1      41.133 -12.198  31.080  1.00  0.00     0.001 A 
HETATM   34  C13 UNK     1      40.230 -11.565  31.940  1.00  0.00     0.014 A 
HETATM   35  C6  UNK     1      38.105 -10.299  32.276  1.00  0.00     0.032 A 
ENDBRANCH   1  25
TORSDOF 6
ENDMDL
MODEL 10
REMARK VINA RESULT:      -8.8     28.808     30.739
REMARK  6 active torsions:
REMARK  status: ('A' for Active; 'I' for Inactive)
REMARK    1  A    between atoms: C3_14  and  O2_2 
REMARK       I    between atoms: C14_25  and  N1_9 
REMARK    2  A    between atoms: C5_16  and  N1_9 
REMARK    3  A    between atoms: C16_27  and  N2_10 
REMARK    4  A    between atoms: C21_32  and  N3_11 
REMARK    5  A    between atoms: C1_12  and  C2_13 
REMARK    6  A    between atoms: C12_23  and  C14_25 
ROOT
HETATM    1  C1  UNK     1      15.225   9.288   9.259  1.00  0.00     0.014 A 
HETATM    2  C3  UNK     1      15.717  10.425   8.615  1.00  0.00     0.081 A 
HETATM    3  C5  UNK     1      17.783  10.235   9.852  1.00  0.00     0.037 A 
HETATM    4  C7  UNK     1      16.015   8.626  10.199  1.00  0.00     0.017 A 
HETATM    5  C8  UNK     1      16.995  10.897   8.911  1.00  0.00     0.067 A 
HETATM    6  C10 UNK     1      17.293   9.099  10.496  1.00  0.00     0.030 A 
ENDROOT
BRANCH   3   7
HETATM    7  N1  UNK     1      19.061  10.709  10.151  1.00  0.00    -0.323 N 
HETATM    8  C14 UNK     1      19.427  11.993  10.578  1.00  0.00     0.258 C 
HETATM    9  O4  UNK     1      18.678  12.945  10.770  1.00  0.00    -0.267 OA
HETATM   10  H5  UNK     1      19.814  10.034  10.038  1.00  0.00     0.169 HD
BRANCH   8  11
HETATM   11  C12 UNK     1      20.883  12.202  10.790  1.00  0.00     0.065 A 
HETATM   12  C16 UNK     1      21.743  12.294   9.715  1.00  0.00     0.120 A 
HETATM   13  C20 UNK     1      23.103  12.490   9.953  1.00  0.00     0.073 A 
HETATM   14  C21 UNK     1      23.575  12.590  11.262  1.00  0.00     0.105 A 
HETATM   15  C22 UNK     1      22.687  12.495  12.333  1.00  0.00     0.037 A 
HETATM   16  C18 UNK     1      21.327  12.299  12.095  1.00  0.00     0.022 A 
BRANCH  12  17
HETATM   17  N2  UNK     1      21.287  12.195   8.371  1.00  0.00    -0.115 N 
HETATM   18  O5  UNK     1      21.079  11.058   7.884  1.00  0.00    -0.532 OA
HETATM   19  O6  UNK     1      21.106  13.247   7.715  1.00  0.00    -0.532 OA
ENDBRANCH  12  17
BRANCH  14  20
HETATM   20  N3  UNK     1      24.960  12.790  11.504  1.00  0.00    -0.116 N 
HETATM   21  O7  UNK     1      25.740  12.889  10.527  1.00  0.00    -0.532 OA
HETATM   22  O8  UNK     1      25.366  12.864  12.690  1.00  0.00    -0.532 OA
ENDBRANCH  14  20
ENDBRANCH   8  11
ENDBRANCH   3   7
BRANCH   2  23
HETATM   23  O2  UNK     1      14.966  11.091   7.692  1.00  0.00    -0.355 OA
HETATM   24  C23 UNK     1      15.423  12.382   7.298  1.00  0.00     0.210 C 
ENDBRANCH   2  23
BRANCH   1  25
HETATM   25  C2  UNK     1      13.878   8.768   8.963  1.00  0.00     0.053 A 
HETATM   26  C11 UNK     1      12.698   9.254   9.732  1.00  0.00     0.299 A 
HETATM   27  O1  UNK     1      11.455   8.739   9.373  1.00  0.00    -0.274 OA
HETATM   28  O3  UNK     1      12.805  10.067  10.645  1.00  0.00    -0.259 OA
HETATM   29  C9  UNK     1      11.310   7.787   8.347  1.00  0.00     0.089 A 
HETATM   30  C15 UNK     1      10.025   7.322   8.070  1.00  0.00     0.038 A 
HETATM   31  C4  UNK     1      12.419   7.335   7.642  1.00  0.00    -0.001 A 
HETATM   32  C19 UNK     1       9.852   6.380   7.059  1.00  0.00     0.003 A 
HETATM   33  C17 UNK     1      10.954   5.914   6.341  1.00  0.00     0.001 A 
HETATM   34  C13 UNK     1      12.237   6.390   6.630  1.00  0.00     0.014 A 
HETATM   35  C6  UNK     1      13.729   7.866   7.982  1.00  0.00     0.032 A 
ENDBRANCH   1  25
TORSDOF 6
ENDMDL
