MODEL 1
REMARK VINA RESULT:      -7.0      0.000      0.000
REMARK  4 active torsions:
REMARK  status: ('A' for Active; 'I' for Inactive)
REMARK    1  A    between atoms: C1_7  and  S1_1 
REMARK    2  A    between atoms: N1_6  and  S1_1 
REMARK    3  A    between atoms: C2_8  and  N1_6 
REMARK    4  A    between atoms: C3_9  and  N1_6 
ROOT
HETATM    1  O3  UNK     1      16.899   8.169   9.979  1.00  0.00    -0.275 OA
HETATM    2  O4  UNK     1      18.139  10.087   9.825  1.00  0.00    -0.260 OA
HETATM    3  C1  UNK     1      13.330   6.116   9.266  1.00  0.00     0.080 A 
HETATM    4  C4  UNK     1      13.445   7.451   8.865  1.00  0.00     0.039 A 
HETATM    5  C5  UNK     1      14.631   8.150   9.096  1.00  0.00    -0.001 A 
HETATM    6  C6  UNK     1      14.399   5.476   9.898  1.00  0.00     0.028 A 
HETATM    7  C9  UNK     1      15.686   7.496   9.727  1.00  0.00     0.089 A 
HETATM    8  C10 UNK     1      15.586   6.166  10.133  1.00  0.00     0.040 A 
HETATM    9  C11 UNK     1      14.804   9.537   8.699  1.00  0.00     0.020 A 
HETATM   10  C12 UNK     1      15.956  10.167   8.941  1.00  0.00     0.083 A 
HETATM   11  C13 UNK     1      17.087   9.495   9.609  1.00  0.00     0.288 A 
ENDROOT
BRANCH   3  12
HETATM   12  S1  UNK     1      11.845   5.245   8.976  1.00  0.00     0.260 S 
HETATM   13  O1  UNK     1      12.195   4.044   8.213  1.00  0.00    -0.200 OA
HETATM   14  O2  UNK     1      11.190   5.072  10.276  1.00  0.00    -0.200 OA
BRANCH  12  15
HETATM   15  N1  UNK     1      10.818   6.238   7.982  1.00  0.00    -0.307 N 
BRANCH  15  16
HETATM   16  C2  UNK     1      10.950   6.070   6.512  1.00  0.00     0.131 C 
HETATM   17  C7  UNK     1       9.600   6.102   5.826  1.00  0.00     0.027 C 
ENDBRANCH  15  16
BRANCH  15  18
HETATM   18  C3  UNK     1       9.399   6.360   8.402  1.00  0.00     0.131 C 
HETATM   19  C8  UNK     1       9.133   7.686   9.084  1.00  0.00     0.027 C 
ENDBRANCH  15  18
ENDBRANCH  12  15
ENDBRANCH   3  12
TORSDOF 4
ENDMDL
MODEL 2
REMARK VINA RESULT:      -6.9      0.979      1.818
REMARK  4 active torsions:
REMARK  status: ('A' for Active; 'I' for Inactive)
REMARK    1  A    between atoms: C1_7  and  S1_1 
REMARK    2  A    between atoms: N1_6  and  S1_1 
REMARK    3  A    between atoms: C2_8  and  N1_6 
REMARK    4  A    between atoms: C3_9  and  N1_6 
ROOT
HETATM    1  O3  UNK     1      15.857   9.392   9.382  1.00  0.00    -0.275 OA
HETATM    2  O4  UNK     1      18.037   9.867   9.895  1.00  0.00    -0.260 OA
HETATM    3  C1  UNK     1      12.755   6.612   9.056  1.00  0.00     0.080 A 
HETATM    4  C4  UNK     1      14.014   6.185   9.488  1.00  0.00     0.039 A 
HETATM    5  C5  UNK     1      15.060   7.102   9.603  1.00  0.00    -0.001 A 
HETATM    6  C6  UNK     1      12.537   7.955   8.736  1.00  0.00     0.028 A 
HETATM    7  C9  UNK     1      14.825   8.437   9.280  1.00  0.00     0.089 A 
HETATM    8  C10 UNK     1      13.575   8.876   8.848  1.00  0.00     0.040 A 
HETATM    9  C11 UNK     1      16.388   6.713  10.048  1.00  0.00     0.020 A 
HETATM   10  C12 UNK     1      17.360   7.624  10.141  1.00  0.00     0.083 A 
HETATM   11  C13 UNK     1      17.135   9.042   9.804  1.00  0.00     0.288 A 
ENDROOT
BRANCH   3  12
HETATM   12  S1  UNK     1      11.448   5.462   8.913  1.00  0.00     0.260 S 
HETATM   13  O1  UNK     1      11.887   4.430   7.970  1.00  0.00    -0.200 OA
HETATM   14  O2  UNK     1      11.092   5.048  10.273  1.00  0.00    -0.200 OA
BRANCH  12  15
HETATM   15  N1  UNK     1      10.078   6.281   8.220  1.00  0.00    -0.307 N 
BRANCH  15  16
HETATM   16  C2  UNK     1       9.796   6.011   6.787  1.00  0.00     0.131 C 
HETATM   17  C7  UNK     1      10.661   6.864   5.881  1.00  0.00     0.027 C 
ENDBRANCH  15  16
BRANCH  15  18
HETATM   18  C3  UNK     1       8.836   6.310   9.034  1.00  0.00     0.131 C 
HETATM   19  C8  UNK     1       7.845   7.323   8.500  1.00  0.00     0.027 C 
ENDBRANCH  15  18
ENDBRANCH  12  15
ENDBRANCH   3  12
TORSDOF 4
ENDMDL
MODEL 3
REMARK VINA RESULT:      -6.7     23.707     25.310
REMARK  4 active torsions:
REMARK  status: ('A' for Active; 'I' for Inactive)
REMARK    1  A    between atoms: C1_7  and  S1_1 
REMARK    2  A    between atoms: N1_6  and  S1_1 
REMARK    3  A    between atoms: C2_8  and  N1_6 
REMARK    4  A    between atoms: C3_9  and  N1_6 
ROOT
HETATM    1  O3  UNK     1      18.293   0.686  33.103  1.00  0.00    -0.275 OA
HETATM    2  O4  UNK     1      18.282  -1.038  34.609  1.00  0.00    -0.260 OA
HETATM    3  C1  UNK     1      18.322   4.791  32.323  1.00  0.00     0.080 A 
HETATM    4  C4  UNK     1      18.321   4.346  33.648  1.00  0.00     0.039 A 
HETATM    5  C5  UNK     1      18.312   2.977  33.925  1.00  0.00    -0.001 A 
HETATM    6  C6  UNK     1      18.314   3.872  31.271  1.00  0.00     0.028 A 
HETATM    7  C9  UNK     1      18.304   2.076  32.863  1.00  0.00     0.089 A 
HETATM    8  C10 UNK     1      18.305   2.505  31.538  1.00  0.00     0.040 A 
HETATM    9  C11 UNK     1      18.311   2.461  35.283  1.00  0.00     0.020 A 
HETATM   10  C12 UNK     1      18.301   1.143  35.501  1.00  0.00     0.083 A 
HETATM   11  C13 UNK     1      18.291   0.169  34.393  1.00  0.00     0.288 A 
ENDROOT
BRANCH   3  12
HETATM   12  S1  UNK     1      18.333   6.503  31.981  1.00  0.00     0.260 S 
HETATM   13  O1  UNK     1      19.492   7.072  32.675  1.00  0.00    -0.200 OA
HETATM   14  O2  UNK     1      18.261   6.649  30.524  1.00  0.00    -0.200 OA
BRANCH  12  15
HETATM   15  N1  UNK     1      16.895   7.203  32.666  1.00  0.00    -0.307 N 
BRANCH  15  16
HETATM   16  C2  UNK     1      17.091   8.210  33.741  1.00  0.00     0.131 C 
HETATM   17  C7  UNK     1      16.879   7.605  35.113  1.00  0.00     0.027 C 
ENDBRANCH  15  16
BRANCH  15  18
HETATM   18  C3  UNK     1      15.831   7.608  31.713  1.00  0.00     0.131 C 
HETATM   19  C8  UNK     1      14.462   7.166  32.188  1.00  0.00     0.027 C 
ENDBRANCH  15  18
ENDBRANCH  12  15
ENDBRANCH   3  12
TORSDOF 4
ENDMDL
MODEL 4
REMARK VINA RESULT:      -6.7     22.933     24.710
REMARK  4 active torsions:
REMARK  status: ('A' for Active; 'I' for Inactive)
REMARK    1  A    between atoms: C1_7  and  S1_1 
REMARK    2  A    between atoms: N1_6  and  S1_1 
REMARK    3  A    between atoms: C2_8  and  N1_6 
REMARK    4  A    between atoms: C3_9  and  N1_6 
ROOT
HETATM    1  O3  UNK     1      18.778   0.496  32.636  1.00  0.00    -0.275 OA
HETATM    2  O4  UNK     1      19.324  -1.585  31.853  1.00  0.00    -0.260 OA
HETATM    3  C1  UNK     1      18.245   4.582  31.943  1.00  0.00     0.080 A 
HETATM    4  C4  UNK     1      18.641   3.755  30.888  1.00  0.00     0.039 A 
HETATM    5  C5  UNK     1      18.822   2.387  31.104  1.00  0.00    -0.001 A 
HETATM    6  C6  UNK     1      18.029   4.047  33.216  1.00  0.00     0.028 A 
HETATM    7  C9  UNK     1      18.603   1.871  32.379  1.00  0.00     0.089 A 
HETATM    8  C10 UNK     1      18.208   2.684  33.440  1.00  0.00     0.040 A 
HETATM    9  C11 UNK     1      19.232   1.482  30.043  1.00  0.00     0.020 A 
HETATM   10  C12 UNK     1      19.396   0.181  30.295  1.00  0.00     0.083 A 
HETATM   11  C13 UNK     1      19.170  -0.388  31.637  1.00  0.00     0.288 A 
ENDROOT
BRANCH   3  12
HETATM   12  S1  UNK     1      18.019   6.292  31.670  1.00  0.00     0.260 S 
HETATM   13  O1  UNK     1      18.280   6.537  30.250  1.00  0.00    -0.200 OA
HETATM   14  O2  UNK     1      16.698   6.639  32.200  1.00  0.00    -0.200 OA
BRANCH  12  15
HETATM   15  N1  UNK     1      19.216   7.152  32.596  1.00  0.00    -0.307 N 
BRANCH  15  16
HETATM   16  C2  UNK     1      18.711   8.140  33.583  1.00  0.00     0.131 C 
HETATM   17  C7  UNK     1      19.038   7.723  35.002  1.00  0.00     0.027 C 
ENDBRANCH  15  16
BRANCH  15  18
HETATM   18  C3  UNK     1      20.342   6.350  33.139  1.00  0.00     0.131 C 
HETATM   19  C8  UNK     1      21.474   6.234  32.140  1.00  0.00     0.027 C 
ENDBRANCH  15  18
ENDBRANCH  12  15
ENDBRANCH   3  12
TORSDOF 4
ENDMDL
MODEL 5
REMARK VINA RESULT:      -6.6     22.703     24.180
REMARK  4 active torsions:
REMARK  status: ('A' for Active; 'I' for Inactive)
REMARK    1  A    between atoms: C1_7  and  S1_1 
REMARK    2  A    between atoms: N1_6  and  S1_1 
REMARK    3  A    between atoms: C2_8  and  N1_6 
REMARK    4  A    between atoms: C3_9  and  N1_6 
ROOT
HETATM    1  O3  UNK     1      18.979   3.614  29.807  1.00  0.00    -0.275 OA
HETATM    2  O4  UNK     1      19.260   1.394  29.326  1.00  0.00    -0.260 OA
HETATM    3  C1  UNK     1      17.898   6.607  32.515  1.00  0.00     0.080 A 
HETATM    4  C4  UNK     1      17.834   5.269  32.912  1.00  0.00     0.039 A 
HETATM    5  C5  UNK     1      18.193   4.257  32.019  1.00  0.00    -0.001 A 
HETATM    6  C6  UNK     1      18.319   6.940  31.224  1.00  0.00     0.028 A 
HETATM    7  C9  UNK     1      18.610   4.607  30.737  1.00  0.00     0.089 A 
HETATM    8  C10 UNK     1      18.678   5.938  30.327  1.00  0.00     0.040 A 
HETATM    9  C11 UNK     1      18.146   2.851  32.381  1.00  0.00     0.020 A 
HETATM   10  C12 UNK     1      18.497   1.916  31.493  1.00  0.00     0.083 A 
HETATM   11  C13 UNK     1      18.941   2.263  30.130  1.00  0.00     0.288 A 
ENDROOT
BRANCH   3  12
HETATM   12  S1  UNK     1      17.448   7.870  33.634  1.00  0.00     0.260 S 
HETATM   13  O1  UNK     1      17.334   7.249  34.956  1.00  0.00    -0.200 OA
HETATM   14  O2  UNK     1      18.415   8.957  33.463  1.00  0.00    -0.200 OA
BRANCH  12  15
HETATM   15  N1  UNK     1      15.878   8.466  33.178  1.00  0.00    -0.307 N 
BRANCH  15  16
HETATM   16  C2  UNK     1      14.728   7.552  33.403  1.00  0.00     0.131 C 
HETATM   17  C7  UNK     1      14.144   7.064  32.093  1.00  0.00     0.027 C 
ENDBRANCH  15  16
BRANCH  15  18
HETATM   18  C3  UNK     1      15.559   9.865  33.561  1.00  0.00     0.131 C 
HETATM   19  C8  UNK     1      14.523   9.916  34.664  1.00  0.00     0.027 C 
ENDBRANCH  15  18
ENDBRANCH  12  15
ENDBRANCH   3  12
TORSDOF 4
ENDMDL
MODEL 6
REMARK VINA RESULT:      -6.6     23.128     24.583
REMARK  4 active torsions:
REMARK  status: ('A' for Active; 'I' for Inactive)
REMARK    1  A    between atoms: C1_7  and  S1_1 
REMARK    2  A    between atoms: N1_6  and  S1_1 
REMARK    3  A    between atoms: C2_8  and  N1_6 
REMARK    4  A    between atoms: C3_9  and  N1_6 
ROOT
HETATM    1  O3  UNK     1      16.777   9.185  35.068  1.00  0.00    -0.275 OA
HETATM    2  O4  UNK     1      14.950  10.421  35.680  1.00  0.00    -0.260 OA
HETATM    3  C1  UNK     1      18.759   6.840  32.234  1.00  0.00     0.080 A 
HETATM    4  C4  UNK     1      17.497   7.360  31.931  1.00  0.00     0.039 A 
HETATM    5  C5  UNK     1      16.822   8.146  32.868  1.00  0.00    -0.001 A 
HETATM    6  C6  UNK     1      19.351   7.103  33.472  1.00  0.00     0.028 A 
HETATM    7  C9  UNK     1      17.428   8.397  34.097  1.00  0.00     0.089 A 
HETATM    8  C10 UNK     1      18.685   7.886  34.412  1.00  0.00     0.040 A 
HETATM    9  C11 UNK     1      15.510   8.711  32.605  1.00  0.00     0.020 A 
HETATM   10  C12 UNK     1      14.900   9.456  33.531  1.00  0.00     0.083 A 
HETATM   11  C13 UNK     1      15.522   9.735  34.839  1.00  0.00     0.288 A 
ENDROOT
BRANCH   3  12
HETATM   12  S1  UNK     1      19.599   5.857  31.060  1.00  0.00     0.260 S 
HETATM   13  O1  UNK     1      19.259   6.386  29.737  1.00  0.00    -0.200 OA
HETATM   14  O2  UNK     1      21.011   5.835  31.453  1.00  0.00    -0.200 OA
BRANCH  12  15
HETATM   15  N1  UNK     1      18.981   4.234  31.170  1.00  0.00    -0.307 N 
BRANCH  15  16
HETATM   16  C2  UNK     1      17.851   4.013  32.107  1.00  0.00     0.131 C 
HETATM   17  C7  UNK     1      18.339   3.549  33.464  1.00  0.00     0.027 C 
ENDBRANCH  15  16
BRANCH  15  18
HETATM   18  C3  UNK     1      18.792   3.505  29.890  1.00  0.00     0.131 C 
HETATM   19  C8  UNK     1      18.605   2.019  30.119  1.00  0.00     0.027 C 
ENDBRANCH  15  18
ENDBRANCH  12  15
ENDBRANCH   3  12
TORSDOF 4
ENDMDL
MODEL 7
REMARK VINA RESULT:      -6.6     22.938     24.502
REMARK  4 active torsions:
REMARK  status: ('A' for Active; 'I' for Inactive)
REMARK    1  A    between atoms: C1_7  and  S1_1 
REMARK    2  A    between atoms: N1_6  and  S1_1 
REMARK    3  A    between atoms: C2_8  and  N1_6 
REMARK    4  A    between atoms: C3_9  and  N1_6 
ROOT
HETATM    1  O3  UNK     1      18.800   0.758  32.666  1.00  0.00    -0.275 OA
HETATM    2  O4  UNK     1      19.298  -1.243  31.670  1.00  0.00    -0.260 OA
HETATM    3  C1  UNK     1      18.113   4.867  32.353  1.00  0.00     0.080 A 
HETATM    4  C4  UNK     1      18.406   4.133  31.201  1.00  0.00     0.039 A 
HETATM    5  C5  UNK     1      18.638   2.758  31.289  1.00  0.00    -0.001 A 
HETATM    6  C6  UNK     1      18.050   4.233  33.597  1.00  0.00     0.028 A 
HETATM    7  C9  UNK     1      18.571   2.143  32.537  1.00  0.00     0.089 A 
HETATM    8  C10 UNK     1      18.280   2.863  33.694  1.00  0.00     0.040 A 
HETATM    9  C11 UNK     1      18.946   1.947  30.123  1.00  0.00     0.020 A 
HETATM   10  C12 UNK     1      19.162   0.636  30.255  1.00  0.00     0.083 A 
HETATM   11  C13 UNK     1      19.097  -0.038  31.565  1.00  0.00     0.288 A 
ENDROOT
BRANCH   3  12
HETATM   12  S1  UNK     1      17.824   6.586  32.239  1.00  0.00     0.260 S 
HETATM   13  O1  UNK     1      18.875   7.249  33.017  1.00  0.00    -0.200 OA
HETATM   14  O2  UNK     1      17.713   6.908  30.814  1.00  0.00    -0.200 OA
BRANCH  12  15
HETATM   15  N1  UNK     1      16.294   6.930  32.993  1.00  0.00    -0.307 N 
BRANCH  15  16
HETATM   16  C2  UNK     1      16.331   7.332  34.423  1.00  0.00     0.131 C 
HETATM   17  C7  UNK     1      16.228   8.835  34.579  1.00  0.00     0.027 C 
ENDBRANCH  15  16
BRANCH  15  18
HETATM   18  C3  UNK     1      15.335   7.751  32.211  1.00  0.00     0.131 C 
HETATM   19  C8  UNK     1      13.942   7.157  32.241  1.00  0.00     0.027 C 
ENDBRANCH  15  18
ENDBRANCH  12  15
ENDBRANCH   3  12
TORSDOF 4
ENDMDL
MODEL 8
REMARK VINA RESULT:      -6.5      2.967      4.489
REMARK  4 active torsions:
REMARK  status: ('A' for Active; 'I' for Inactive)
REMARK    1  A    between atoms: C1_7  and  S1_1 
REMARK    2  A    between atoms: N1_6  and  S1_1 
REMARK    3  A    between atoms: C2_8  and  N1_6 
REMARK    4  A    between atoms: C3_9  and  N1_6 
ROOT
HETATM    1  O3  UNK     1      14.015   6.019   7.641  1.00  0.00    -0.275 OA
HETATM    2  O4  UNK     1      16.036   5.685   8.665  1.00  0.00    -0.260 OA
HETATM    3  C1  UNK     1       9.841   6.024   7.820  1.00  0.00     0.080 A 
HETATM    4  C4  UNK     1      10.574   5.675   8.958  1.00  0.00     0.039 A 
HETATM    5  C5  UNK     1      11.970   5.669   8.914  1.00  0.00    -0.001 A 
HETATM    6  C6  UNK     1      10.498   6.368   6.636  1.00  0.00     0.028 A 
HETATM    7  C9  UNK     1      12.608   6.015   7.725  1.00  0.00     0.089 A 
HETATM    8  C10 UNK     1      11.890   6.365   6.583  1.00  0.00     0.040 A 
HETATM    9  C11 UNK     1      12.781   5.315  10.067  1.00  0.00     0.020 A 
HETATM   10  C12 UNK     1      14.114   5.322   9.979  1.00  0.00     0.083 A 
HETATM   11  C13 UNK     1      14.811   5.683   8.731  1.00  0.00     0.288 A 
ENDROOT
BRANCH   3  12
HETATM   12  S1  UNK     1       8.096   6.030   7.878  1.00  0.00     0.260 S 
HETATM   13  O1  UNK     1       7.639   7.040   6.921  1.00  0.00    -0.200 OA
HETATM   14  O2  UNK     1       7.657   4.645   7.683  1.00  0.00    -0.200 OA
BRANCH  12  15
HETATM   15  N1  UNK     1       7.607   6.533   9.471  1.00  0.00    -0.307 N 
BRANCH  15  16
HETATM   16  C2  UNK     1       7.319   7.979   9.653  1.00  0.00     0.131 C 
HETATM   17  C7  UNK     1       8.556   8.740  10.084  1.00  0.00     0.027 C 
ENDBRANCH  15  16
BRANCH  15  18
HETATM   18  C3  UNK     1       6.612   5.677  10.165  1.00  0.00     0.131 C 
HETATM   19  C8  UNK     1       7.125   5.208  11.511  1.00  0.00     0.027 C 
ENDBRANCH  15  18
ENDBRANCH  12  15
ENDBRANCH   3  12
TORSDOF 4
ENDMDL
MODEL 9
REMARK VINA RESULT:      -6.5     24.184     25.867
REMARK  4 active torsions:
REMARK  status: ('A' for Active; 'I' for Inactive)
REMARK    1  A    between atoms: C1_7  and  S1_1 
REMARK    2  A    between atoms: N1_6  and  S1_1 
REMARK    3  A    between atoms: C2_8  and  N1_6 
REMARK    4  A    between atoms: C3_9  and  N1_6 
ROOT
HETATM    1  O3  UNK     1      18.309   0.524  33.293  1.00  0.00    -0.275 OA
HETATM    2  O4  UNK     1      18.330  -1.193  34.807  1.00  0.00    -0.260 OA
HETATM    3  C1  UNK     1      18.299   4.625  32.493  1.00  0.00     0.080 A 
HETATM    4  C4  UNK     1      18.318   4.186  33.820  1.00  0.00     0.039 A 
HETATM    5  C5  UNK     1      18.323   2.819  34.104  1.00  0.00    -0.001 A 
HETATM    6  C6  UNK     1      18.283   3.701  31.445  1.00  0.00     0.028 A 
HETATM    7  C9  UNK     1      18.307   1.912  33.047  1.00  0.00     0.089 A 
HETATM    8  C10 UNK     1      18.287   2.335  31.719  1.00  0.00     0.040 A 
HETATM    9  C11 UNK     1      18.343   2.309  35.464  1.00  0.00     0.020 A 
HETATM   10  C12 UNK     1      18.345   0.992  35.689  1.00  0.00     0.083 A 
HETATM   11  C13 UNK     1      18.328   0.013  34.586  1.00  0.00     0.288 A 
ENDROOT
BRANCH   3  12
HETATM   12  S1  UNK     1      18.293   6.336  32.142  1.00  0.00     0.260 S 
HETATM   13  O1  UNK     1      19.362   6.577  31.169  1.00  0.00    -0.200 OA
HETATM   14  O2  UNK     1      16.922   6.690  31.765  1.00  0.00    -0.200 OA
BRANCH  12  15
HETATM   15  N1  UNK     1      18.690   7.191  33.605  1.00  0.00    -0.307 N 
BRANCH  15  16
HETATM   16  C2  UNK     1      20.059   7.761  33.692  1.00  0.00     0.131 C 
HETATM   17  C7  UNK     1      20.073   9.052  34.485  1.00  0.00     0.027 C 
ENDBRANCH  15  16
BRANCH  15  18
HETATM   18  C3  UNK     1      17.664   8.128  34.130  1.00  0.00     0.131 C 
HETATM   19  C8  UNK     1      16.721   7.436  35.093  1.00  0.00     0.027 C 
ENDBRANCH  15  18
ENDBRANCH  12  15
ENDBRANCH   3  12
TORSDOF 4
ENDMDL
MODEL 10
REMARK VINA RESULT:      -6.5     22.955     24.418
REMARK  4 active torsions:
REMARK  status: ('A' for Active; 'I' for Inactive)
REMARK    1  A    between atoms: C1_7  and  S1_1 
REMARK    2  A    between atoms: N1_6  and  S1_1 
REMARK    3  A    between atoms: C2_8  and  N1_6 
REMARK    4  A    between atoms: C3_9  and  N1_6 
ROOT
HETATM    1  O3  UNK     1      18.733   3.905  30.334  1.00  0.00    -0.275 OA
HETATM    2  O4  UNK     1      19.084   1.671  29.975  1.00  0.00    -0.260 OA
HETATM    3  C1  UNK     1      17.676   7.019  32.911  1.00  0.00     0.080 A 
HETATM    4  C4  UNK     1      17.693   5.707  33.394  1.00  0.00     0.039 A 
HETATM    5  C5  UNK     1      18.045   4.656  32.545  1.00  0.00    -0.001 A 
HETATM    6  C6  UNK     1      18.009   7.285  31.580  1.00  0.00     0.028 A 
HETATM    7  C9  UNK     1      18.374   4.940  31.221  1.00  0.00     0.089 A 
HETATM    8  C10 UNK     1      18.361   6.242  30.727  1.00  0.00     0.040 A 
HETATM    9  C11 UNK     1      18.081   3.274  32.994  1.00  0.00     0.020 A 
HETATM   10  C12 UNK     1      18.421   2.300  32.147  1.00  0.00     0.083 A 
HETATM   11  C13 UNK     1      18.773   2.576  30.741  1.00  0.00     0.288 A 
ENDROOT
BRANCH   3  12
HETATM   12  S1  UNK     1      17.235   8.331  33.975  1.00  0.00     0.260 S 
HETATM   13  O1  UNK     1      17.455   7.863  35.346  1.00  0.00    -0.200 OA
HETATM   14  O2  UNK     1      17.971   9.515  33.523  1.00  0.00    -0.200 OA
BRANCH  12  15
HETATM   15  N1  UNK     1      15.534   8.643  33.777  1.00  0.00    -0.307 N 
BRANCH  15  16
HETATM   16  C2  UNK     1      15.156   9.640  32.743  1.00  0.00     0.131 C 
HETATM   17  C7  UNK     1      14.389  10.799  33.345  1.00  0.00     0.027 C 
ENDBRANCH  15  16
BRANCH  15  18
HETATM   18  C3  UNK     1      14.636   7.460  33.763  1.00  0.00     0.131 C 
HETATM   19  C8  UNK     1      14.041   7.231  32.389  1.00  0.00     0.027 C 
ENDBRANCH  15  18
ENDBRANCH  12  15
ENDBRANCH   3  12
TORSDOF 4
ENDMDL
