MODEL 1
REMARK VINA RESULT:      -8.5      0.000      0.000
REMARK  3 active torsions:
REMARK  status: ('A' for Active; 'I' for Inactive)
REMARK    1  A    between atoms: C11_15  and  O2_2 
REMARK    2  A    between atoms: C2_6  and  C6_10 
REMARK    3  A    between atoms: C5_9  and  C6_10 
ROOT
HETATM    1  O1  UNK     1      12.517   6.545   6.418  1.00  0.00    -0.321 OA
HETATM    2  O3  UNK     1      12.081   5.487  10.337  1.00  0.00    -0.286 OA
HETATM    3  C1  UNK     1      11.052   5.925   8.257  1.00  0.00     0.051 A 
HETATM    4  C2  UNK     1      13.533   6.082   8.564  1.00  0.00     0.088 A 
HETATM    5  C3  UNK     1      11.266   6.291   6.927  1.00  0.00     0.089 A 
HETATM    6  C4  UNK     1      12.209   5.802   9.163  1.00  0.00     0.201 A 
HETATM    7  C8  UNK     1       9.757   5.679   8.720  1.00  0.00     0.055 A 
HETATM    8  C9  UNK     1      13.588   6.424   7.272  1.00  0.00     0.162 A 
HETATM    9  C10 UNK     1      10.185   6.414   6.054  1.00  0.00     0.041 A 
HETATM   10  C11 UNK     1       8.678   5.803   7.844  1.00  0.00     0.069 A 
HETATM   11  C13 UNK     1       8.891   6.169   6.514  1.00  0.00     0.039 A 
ENDROOT
BRANCH   4  12
HETATM   12  C6  UNK     1      14.790   6.008   9.307  1.00  0.00     0.198 C 
HETATM   13  O4  UNK     1      15.374   4.932   9.448  1.00  0.00    -0.286 OA
BRANCH  12  14
HETATM   14  C5  UNK     1      15.374   7.252   9.876  1.00  0.00     0.021 A 
HETATM   15  C12 UNK     1      14.514   8.143  10.488  1.00  0.00     0.016 A 
HETATM   16  C16 UNK     1      15.035   9.318  11.030  1.00  0.00     0.001 A 
HETATM   17  C17 UNK     1      16.404   9.576  10.948  1.00  0.00     0.001 A 
HETATM   18  C14 UNK     1      17.251   8.660  10.325  1.00  0.00     0.007 A 
HETATM   19  C7  UNK     1      16.729   7.485   9.783  1.00  0.00    -0.048 A 
HETATM   20  C15 UNK     1      17.659   6.520   9.121  1.00  0.00     0.049 C 
ENDBRANCH  12  14
ENDBRANCH   4  12
BRANCH  10  21
HETATM   21  O2  UNK     1       7.412   5.565   8.286  1.00  0.00    -0.356 OA
HETATM   22  C18 UNK     1       7.273   4.745   9.446  1.00  0.00     0.210 C 
ENDBRANCH  10  21
TORSDOF 3
ENDMDL
MODEL 2
REMARK VINA RESULT:      -8.4      0.874      1.732
REMARK  3 active torsions:
REMARK  status: ('A' for Active; 'I' for Inactive)
REMARK    1  A    between atoms: C11_15  and  O2_2 
REMARK    2  A    between atoms: C2_6  and  C6_10 
REMARK    3  A    between atoms: C5_9  and  C6_10 
ROOT
HETATM    1  O1  UNK     1      12.953   7.034   6.724  1.00  0.00    -0.321 OA
HETATM    2  O3  UNK     1      11.995   5.882  10.522  1.00  0.00    -0.286 OA
HETATM    3  C1  UNK     1      11.295   6.186   8.287  1.00  0.00     0.051 A 
HETATM    4  C2  UNK     1      13.633   6.704   9.022  1.00  0.00     0.088 A 
HETATM    5  C3  UNK     1      11.684   6.593   7.010  1.00  0.00     0.089 A 
HETATM    6  C4  UNK     1      12.280   6.225   9.384  1.00  0.00     0.201 A 
HETATM    7  C8  UNK     1       9.989   5.747   8.520  1.00  0.00     0.055 A 
HETATM    8  C9  UNK     1      13.863   7.063   7.754  1.00  0.00     0.162 A 
HETATM    9  C10 UNK     1      10.767   6.565   5.959  1.00  0.00     0.041 A 
HETATM   10  C11 UNK     1       9.074   5.719   7.466  1.00  0.00     0.069 A 
HETATM   11  C13 UNK     1       9.462   6.128   6.188  1.00  0.00     0.039 A 
ENDROOT
BRANCH   4  12
HETATM   12  C6  UNK     1      14.737   6.807   9.975  1.00  0.00     0.198 C 
HETATM   13  O4  UNK     1      15.123   5.818  10.600  1.00  0.00    -0.286 OA
BRANCH  12  14
HETATM   14  C5  UNK     1      15.409   8.119  10.170  1.00  0.00     0.021 A 
HETATM   15  C12 UNK     1      16.672   8.279   9.634  1.00  0.00     0.016 A 
HETATM   16  C16 UNK     1      17.326   9.500   9.803  1.00  0.00     0.001 A 
HETATM   17  C17 UNK     1      16.703  10.533  10.503  1.00  0.00     0.001 A 
HETATM   18  C14 UNK     1      15.427  10.346  11.035  1.00  0.00     0.007 A 
HETATM   19  C7  UNK     1      14.774   9.125  10.866  1.00  0.00    -0.048 A 
HETATM   20  C15 UNK     1      13.407   8.952  11.446  1.00  0.00     0.049 C 
ENDBRANCH  12  14
ENDBRANCH   4  12
BRANCH  10  21
HETATM   21  O2  UNK     1       7.800   5.293   7.684  1.00  0.00    -0.356 OA
HETATM   22  C18 UNK     1       7.490   4.812   8.990  1.00  0.00     0.210 C 
ENDBRANCH  10  21
TORSDOF 3
ENDMDL
MODEL 3
REMARK VINA RESULT:      -8.4     22.481     24.827
REMARK  3 active torsions:
REMARK  status: ('A' for Active; 'I' for Inactive)
REMARK    1  A    between atoms: C11_15  and  O2_2 
REMARK    2  A    between atoms: C2_6  and  C6_10 
REMARK    3  A    between atoms: C5_9  and  C6_10 
ROOT
HETATM    1  O1  UNK     1      16.001   8.427  31.327  1.00  0.00    -0.321 OA
HETATM    2  O3  UNK     1      18.236   7.528  34.624  1.00  0.00    -0.286 OA
HETATM    3  C1  UNK     1      16.378   8.669  33.717  1.00  0.00     0.051 A 
HETATM    4  C2  UNK     1      17.891   7.269  32.296  1.00  0.00     0.088 A 
HETATM    5  C3  UNK     1      15.655   8.939  32.554  1.00  0.00     0.089 A 
HETATM    6  C4  UNK     1      17.564   7.797  33.638  1.00  0.00     0.201 A 
HETATM    7  C8  UNK     1      15.979   9.218  34.938  1.00  0.00     0.055 A 
HETATM    8  C9  UNK     1      17.108   7.612  31.268  1.00  0.00     0.162 A 
HETATM    9  C10 UNK     1      14.530   9.762  32.607  1.00  0.00     0.041 A 
HETATM   10  C11 UNK     1      14.852  10.041  34.987  1.00  0.00     0.069 A 
HETATM   11  C13 UNK     1      14.130  10.313  33.824  1.00  0.00     0.039 A 
ENDROOT
BRANCH   4  12
HETATM   12  C6  UNK     1      19.028   6.388  32.027  1.00  0.00     0.198 C 
HETATM   13  O4  UNK     1      20.174   6.736  32.316  1.00  0.00    -0.286 OA
BRANCH  12  14
HETATM   14  C5  UNK     1      18.787   5.053  31.419  1.00  0.00     0.021 A 
HETATM   15  C12 UNK     1      18.980   4.923  30.058  1.00  0.00     0.016 A 
HETATM   16  C16 UNK     1      18.760   3.681  29.461  1.00  0.00     0.001 A 
HETATM   17  C17 UNK     1      18.352   2.597  30.239  1.00  0.00     0.001 A 
HETATM   18  C14 UNK     1      18.163   2.755  31.612  1.00  0.00     0.007 A 
HETATM   19  C7  UNK     1      18.383   3.997  32.208  1.00  0.00    -0.048 A 
HETATM   20  C15 UNK     1      18.174   4.138  33.681  1.00  0.00     0.049 C 
ENDBRANCH  12  14
ENDBRANCH   4  12
BRANCH  10  21
HETATM   21  O2  UNK     1      14.456  10.581  36.173  1.00  0.00    -0.356 OA
HETATM   22  C18 UNK     1      13.933  11.908  36.139  1.00  0.00     0.210 C 
ENDBRANCH  10  21
TORSDOF 3
ENDMDL
MODEL 4
REMARK VINA RESULT:      -8.3      1.666      6.967
REMARK  3 active torsions:
REMARK  status: ('A' for Active; 'I' for Inactive)
REMARK    1  A    between atoms: C11_15  and  O2_2 
REMARK    2  A    between atoms: C2_6  and  C6_10 
REMARK    3  A    between atoms: C5_9  and  C6_10 
ROOT
HETATM    1  O1  UNK     1      15.089   5.329   9.418  1.00  0.00    -0.321 OA
HETATM    2  O3  UNK     1      12.143   8.074  10.096  1.00  0.00    -0.286 OA
HETATM    3  C1  UNK     1      14.454   7.593  10.037  1.00  0.00     0.051 A 
HETATM    4  C2  UNK     1      12.731   5.863   9.484  1.00  0.00     0.088 A 
HETATM    5  C3  UNK     1      15.415   6.610   9.791  1.00  0.00     0.089 A 
HETATM    6  C4  UNK     1      13.027   7.254   9.891  1.00  0.00     0.201 A 
HETATM    7  C8  UNK     1      14.844   8.880  10.415  1.00  0.00     0.055 A 
HETATM    8  C9  UNK     1      13.754   5.026   9.282  1.00  0.00     0.162 A 
HETATM    9  C10 UNK     1      16.771   6.911   9.924  1.00  0.00     0.041 A 
HETATM   10  C11 UNK     1      16.202   9.178  10.547  1.00  0.00     0.069 A 
HETATM   11  C13 UNK     1      17.163   8.195  10.302  1.00  0.00     0.039 A 
ENDROOT
BRANCH   4  12
HETATM   12  C6  UNK     1      11.376   5.348   9.288  1.00  0.00     0.198 C 
HETATM   13  O4  UNK     1      10.865   4.593  10.116  1.00  0.00    -0.286 OA
BRANCH  12  14
HETATM   14  C5  UNK     1      10.606   5.762   8.085  1.00  0.00     0.021 A 
HETATM   15  C12 UNK     1      11.272   5.790   6.875  1.00  0.00     0.016 A 
HETATM   16  C16 UNK     1      10.574   6.176   5.731  1.00  0.00     0.001 A 
HETATM   17  C17 UNK     1       9.227   6.524   5.820  1.00  0.00     0.001 A 
HETATM   18  C14 UNK     1       8.577   6.487   7.054  1.00  0.00     0.007 A 
HETATM   19  C7  UNK     1       9.275   6.102   8.199  1.00  0.00    -0.048 A 
HETATM   20  C15 UNK     1       8.555   6.071   9.508  1.00  0.00     0.049 C 
ENDBRANCH  12  14
ENDBRANCH   4  12
BRANCH  10  21
HETATM   21  O2  UNK     1      16.591  10.429  10.915  1.00  0.00    -0.356 OA
HETATM   22  C18 UNK     1      17.570  11.071  10.099  1.00  0.00     0.210 C 
ENDBRANCH  10  21
TORSDOF 3
ENDMDL
MODEL 5
REMARK VINA RESULT:      -8.2     22.616     24.980
REMARK  3 active torsions:
REMARK  status: ('A' for Active; 'I' for Inactive)
REMARK    1  A    between atoms: C11_15  and  O2_2 
REMARK    2  A    between atoms: C2_6  and  C6_10 
REMARK    3  A    between atoms: C5_9  and  C6_10 
ROOT
HETATM    1  O1  UNK     1      15.709   8.850  31.553  1.00  0.00    -0.321 OA
HETATM    2  O3  UNK     1      16.957   6.875  34.901  1.00  0.00    -0.286 OA
HETATM    3  C1  UNK     1      15.775   8.699  33.979  1.00  0.00     0.051 A 
HETATM    4  C2  UNK     1      16.904   6.992  32.537  1.00  0.00     0.088 A 
HETATM    5  C3  UNK     1      15.379   9.329  32.798  1.00  0.00     0.089 A 
HETATM    6  C4  UNK     1      16.581   7.467  33.900  1.00  0.00     0.201 A 
HETATM    7  C8  UNK     1      15.411   9.233  35.218  1.00  0.00     0.055 A 
HETATM    8  C9  UNK     1      16.457   7.698  31.493  1.00  0.00     0.162 A 
HETATM    9  C10 UNK     1      14.617  10.497  32.851  1.00  0.00     0.041 A 
HETATM   10  C11 UNK     1      14.649  10.401  35.268  1.00  0.00     0.069 A 
HETATM   11  C13 UNK     1      14.253  11.032  34.086  1.00  0.00     0.039 A 
ENDROOT
BRANCH   4  12
HETATM   12  C6  UNK     1      17.690   5.788  32.264  1.00  0.00     0.198 C 
HETATM   13  O4  UNK     1      17.146   4.685  32.198  1.00  0.00    -0.286 OA
BRANCH  12  14
HETATM   14  C5  UNK     1      19.155   5.910  32.044  1.00  0.00     0.021 A 
HETATM   15  C12 UNK     1      19.947   6.196  33.138  1.00  0.00     0.016 A 
HETATM   16  C16 UNK     1      21.326   6.316  32.959  1.00  0.00     0.001 A 
HETATM   17  C17 UNK     1      21.881   6.148  31.691  1.00  0.00     0.001 A 
HETATM   18  C14 UNK     1      21.059   5.860  30.602  1.00  0.00     0.007 A 
HETATM   19  C7  UNK     1      19.681   5.740  30.780  1.00  0.00    -0.048 A 
HETATM   20  C15 UNK     1      18.823   5.431  29.596  1.00  0.00     0.049 C 
ENDBRANCH  12  14
ENDBRANCH   4  12
BRANCH  10  21
HETATM   21  O2  UNK     1      14.289  10.928  36.471  1.00  0.00    -0.356 OA
HETATM   22  C18 UNK     1      14.000  12.324  36.507  1.00  0.00     0.210 C 
ENDBRANCH  10  21
TORSDOF 3
ENDMDL
MODEL 6
REMARK VINA RESULT:      -8.2     22.145     24.212
REMARK  3 active torsions:
REMARK  status: ('A' for Active; 'I' for Inactive)
REMARK    1  A    between atoms: C11_15  and  O2_2 
REMARK    2  A    between atoms: C2_6  and  C6_10 
REMARK    3  A    between atoms: C5_9  and  C6_10 
ROOT
HETATM    1  O1  UNK     1      19.129   1.547  28.736  1.00  0.00    -0.321 OA
HETATM    2  O3  UNK     1      18.775   1.524  32.803  1.00  0.00    -0.286 OA
HETATM    3  C1  UNK     1      19.436   0.380  30.846  1.00  0.00     0.051 A 
HETATM    4  C2  UNK     1      18.470   2.689  30.764  1.00  0.00     0.088 A 
HETATM    5  C3  UNK     1      19.531   0.448  29.455  1.00  0.00     0.089 A 
HETATM    6  C4  UNK     1      18.884   1.530  31.586  1.00  0.00     0.201 A 
HETATM    7  C8  UNK     1      19.860  -0.765  31.526  1.00  0.00     0.055 A 
HETATM    8  C9  UNK     1      18.619   2.615  29.437  1.00  0.00     0.162 A 
HETATM    9  C10 UNK     1      20.050  -0.629  28.737  1.00  0.00     0.041 A 
HETATM   10  C11 UNK     1      20.379  -1.842  30.804  1.00  0.00     0.069 A 
HETATM   11  C13 UNK     1      20.473  -1.774  29.412  1.00  0.00     0.039 A 
ENDROOT
BRANCH   4  12
HETATM   12  C6  UNK     1      17.904   3.916  31.323  1.00  0.00     0.198 C 
HETATM   13  O4  UNK     1      16.712   4.186  31.168  1.00  0.00    -0.286 OA
BRANCH  12  14
HETATM   14  C5  UNK     1      18.779   4.831  32.104  1.00  0.00     0.021 A 
HETATM   15  C12 UNK     1      18.695   4.779  33.481  1.00  0.00     0.016 A 
HETATM   16  C16 UNK     1      19.504   5.628  34.237  1.00  0.00     0.001 A 
HETATM   17  C17 UNK     1      20.378   6.508  33.601  1.00  0.00     0.001 A 
HETATM   18  C14 UNK     1      20.444   6.541  32.208  1.00  0.00     0.007 A 
HETATM   19  C7  UNK     1      19.635   5.693  31.451  1.00  0.00    -0.048 A 
HETATM   20  C15 UNK     1      19.725   5.748  29.961  1.00  0.00     0.049 C 
ENDBRANCH  12  14
ENDBRANCH   4  12
BRANCH  10  21
HETATM   21  O2  UNK     1      20.795  -2.961  31.458  1.00  0.00    -0.356 OA
HETATM   22  C18 UNK     1      20.971  -2.861  32.870  1.00  0.00     0.210 C 
ENDBRANCH  10  21
TORSDOF 3
ENDMDL
MODEL 7
REMARK VINA RESULT:      -8.2     22.632     24.405
REMARK  3 active torsions:
REMARK  status: ('A' for Active; 'I' for Inactive)
REMARK    1  A    between atoms: C11_15  and  O2_2 
REMARK    2  A    between atoms: C2_6  and  C6_10 
REMARK    3  A    between atoms: C5_9  and  C6_10 
ROOT
HETATM    1  O1  UNK     1      18.174   2.852  33.458  1.00  0.00    -0.321 OA
HETATM    2  O3  UNK     1      18.675   5.108  30.093  1.00  0.00    -0.286 OA
HETATM    3  C1  UNK     1      18.717   2.969  31.091  1.00  0.00     0.051 A 
HETATM    4  C2  UNK     1      18.136   5.025  32.397  1.00  0.00     0.088 A 
HETATM    5  C3  UNK     1      18.531   2.252  32.275  1.00  0.00     0.089 A 
HETATM    6  C4  UNK     1      18.524   4.431  31.099  1.00  0.00     0.201 A 
HETATM    7  C8  UNK     1      19.081   2.306  29.916  1.00  0.00     0.055 A 
HETATM    8  C9  UNK     1      17.994   4.215  33.452  1.00  0.00     0.162 A 
HETATM    9  C10 UNK     1      18.710   0.869  32.289  1.00  0.00     0.041 A 
HETATM   10  C11 UNK     1      19.259   0.922  29.934  1.00  0.00     0.069 A 
HETATM   11  C13 UNK     1      19.074   0.205  31.118  1.00  0.00     0.039 A 
ENDROOT
BRANCH   4  12
HETATM   12  C6  UNK     1      17.900   6.455  32.594  1.00  0.00     0.198 C 
HETATM   13  O4  UNK     1      18.834   7.258  32.558  1.00  0.00    -0.286 OA
BRANCH  12  14
HETATM   14  C5  UNK     1      16.511   6.939  32.817  1.00  0.00     0.021 A 
HETATM   15  C12 UNK     1      15.606   6.791  31.785  1.00  0.00     0.016 A 
HETATM   16  C16 UNK     1      14.297   7.237  31.968  1.00  0.00     0.001 A 
HETATM   17  C17 UNK     1      13.922   7.821  33.177  1.00  0.00     0.001 A 
HETATM   18  C14 UNK     1      14.855   7.959  34.205  1.00  0.00     0.007 A 
HETATM   19  C7  UNK     1      16.165   7.513  34.022  1.00  0.00    -0.048 A 
HETATM   20  C15 UNK     1      17.145   7.673  35.139  1.00  0.00     0.049 C 
ENDBRANCH  12  14
ENDBRANCH   4  12
BRANCH  10  21
HETATM   21  O2  UNK     1      19.613   0.267  28.794  1.00  0.00    -0.356 OA
HETATM   22  C18 UNK     1      20.604  -0.752  28.912  1.00  0.00     0.210 C 
ENDBRANCH  10  21
TORSDOF 3
ENDMDL
MODEL 8
REMARK VINA RESULT:      -8.2     22.716     24.869
REMARK  3 active torsions:
REMARK  status: ('A' for Active; 'I' for Inactive)
REMARK    1  A    between atoms: C11_15  and  O2_2 
REMARK    2  A    between atoms: C2_6  and  C6_10 
REMARK    3  A    between atoms: C5_9  and  C6_10 
ROOT
HETATM    1  O1  UNK     1      17.056   8.356  35.398  1.00  0.00    -0.321 OA
HETATM    2  O3  UNK     1      17.020   7.978  31.333  1.00  0.00    -0.286 OA
HETATM    3  C1  UNK     1      16.015   8.888  33.267  1.00  0.00     0.051 A 
HETATM    4  C2  UNK     1      18.060   7.448  33.394  1.00  0.00     0.088 A 
HETATM    5  C3  UNK     1      16.081   8.979  34.658  1.00  0.00     0.089 A 
HETATM    6  C4  UNK     1      17.030   8.094  32.550  1.00  0.00     0.201 A 
HETATM    7  C8  UNK     1      14.999   9.543  32.565  1.00  0.00     0.055 A 
HETATM    8  C9  UNK     1      17.999   7.621  34.718  1.00  0.00     0.162 A 
HETATM    9  C10 UNK     1      15.130   9.725  35.355  1.00  0.00     0.041 A 
HETATM   10  C11 UNK     1      14.049  10.288  33.266  1.00  0.00     0.069 A 
HETATM   11  C13 UNK     1      14.114  10.379  34.657  1.00  0.00     0.039 A 
ENDROOT
BRANCH   4  12
HETATM   12  C6  UNK     1      19.145   6.625  32.859  1.00  0.00     0.198 C 
HETATM   13  O4  UNK     1      20.311   7.019  32.902  1.00  0.00    -0.286 OA
BRANCH  12  14
HETATM   14  C5  UNK     1      18.830   5.292  32.280  1.00  0.00     0.021 A 
HETATM   15  C12 UNK     1      18.282   4.342  33.119  1.00  0.00     0.016 A 
HETATM   16  C16 UNK     1      17.978   3.082  32.601  1.00  0.00     0.001 A 
HETATM   17  C17 UNK     1      18.228   2.801  31.258  1.00  0.00     0.001 A 
HETATM   18  C14 UNK     1      18.783   3.779  30.432  1.00  0.00     0.007 A 
HETATM   19  C7  UNK     1      19.087   5.038  30.950  1.00  0.00    -0.048 A 
HETATM   20  C15 UNK     1      19.680   6.067  30.043  1.00  0.00     0.049 C 
ENDBRANCH  12  14
ENDBRANCH   4  12
BRANCH  10  21
HETATM   21  O2  UNK     1      13.056  10.930  32.590  1.00  0.00    -0.356 OA
HETATM   22  C18 UNK     1      13.230  12.325  32.352  1.00  0.00     0.210 C 
ENDBRANCH  10  21
TORSDOF 3
ENDMDL
MODEL 9
REMARK VINA RESULT:      -8.1     28.440     30.092
REMARK  3 active torsions:
REMARK  status: ('A' for Active; 'I' for Inactive)
REMARK    1  A    between atoms: C11_15  and  O2_2 
REMARK    2  A    between atoms: C2_6  and  C6_10 
REMARK    3  A    between atoms: C5_9  and  C6_10 
ROOT
HETATM    1  O1  UNK     1      18.605  -1.694  37.546  1.00  0.00    -0.321 OA
HETATM    2  O3  UNK     1      20.532  -3.377  34.363  1.00  0.00    -0.286 OA
HETATM    3  C1  UNK     1      19.205  -1.607  35.191  1.00  0.00     0.051 A 
HETATM    4  C2  UNK     1      19.968  -3.486  36.661  1.00  0.00     0.088 A 
HETATM    5  C3  UNK     1      18.567  -1.082  36.317  1.00  0.00     0.089 A 
HETATM    6  C4  UNK     1      19.956  -2.870  35.316  1.00  0.00     0.201 A 
HETATM    7  C8  UNK     1      19.133  -0.941  33.965  1.00  0.00     0.055 A 
HETATM    8  C9  UNK     1      19.310  -2.870  37.649  1.00  0.00     0.162 A 
HETATM    9  C10 UNK     1      17.852   0.111  36.220  1.00  0.00     0.041 A 
HETATM   10  C11 UNK     1      18.416   0.253  33.872  1.00  0.00     0.069 A 
HETATM   11  C13 UNK     1      17.776   0.778  34.997  1.00  0.00     0.039 A 
ENDROOT
BRANCH   4  12
HETATM   12  C6  UNK     1      20.661  -4.736  36.973  1.00  0.00     0.198 C 
HETATM   13  O4  UNK     1      21.833  -4.726  37.353  1.00  0.00    -0.286 OA
BRANCH  12  14
HETATM   14  C5  UNK     1      19.929  -6.024  36.849  1.00  0.00     0.021 A 
HETATM   15  C12 UNK     1      19.502  -6.401  35.591  1.00  0.00     0.016 A 
HETATM   16  C16 UNK     1      18.813  -7.605  35.447  1.00  0.00     0.001 A 
HETATM   17  C17 UNK     1      18.566  -8.405  36.563  1.00  0.00     0.001 A 
HETATM   18  C14 UNK     1      19.008  -8.002  37.822  1.00  0.00     0.007 A 
HETATM   19  C7  UNK     1      19.697  -6.798  37.967  1.00  0.00    -0.048 A 
HETATM   20  C15 UNK     1      20.160  -6.389  39.328  1.00  0.00     0.049 C 
ENDBRANCH  12  14
ENDBRANCH   4  12
BRANCH  10  21
HETATM   21  O2  UNK     1      18.340   0.909  32.681  1.00  0.00    -0.356 OA
HETATM   22  C18 UNK     1      19.128   0.400  31.608  1.00  0.00     0.210 C 
ENDBRANCH  10  21
TORSDOF 3
ENDMDL
MODEL 10
REMARK VINA RESULT:      -8.1      1.560      1.946
REMARK  3 active torsions:
REMARK  status: ('A' for Active; 'I' for Inactive)
REMARK    1  A    between atoms: C11_15  and  O2_2 
REMARK    2  A    between atoms: C2_6  and  C6_10 
REMARK    3  A    between atoms: C5_9  and  C6_10 
ROOT
HETATM    1  O1  UNK     1      12.464   6.446   6.385  1.00  0.00    -0.321 OA
HETATM    2  O3  UNK     1      11.989   7.842  10.193  1.00  0.00    -0.286 OA
HETATM    3  C1  UNK     1      10.977   7.054   8.210  1.00  0.00     0.051 A 
HETATM    4  C2  UNK     1      13.463   7.252   8.435  1.00  0.00     0.088 A 
HETATM    5  C3  UNK     1      11.204   6.583   6.916  1.00  0.00     0.089 A 
HETATM    6  C4  UNK     1      12.129   7.422   9.053  1.00  0.00     0.201 A 
HETATM    7  C8  UNK     1       9.673   7.173   8.698  1.00  0.00     0.055 A 
HETATM    8  C9  UNK     1      13.531   6.790   7.182  1.00  0.00     0.162 A 
HETATM    9  C10 UNK     1      10.128   6.229   6.102  1.00  0.00     0.041 A 
HETATM   10  C11 UNK     1       8.598   6.819   7.881  1.00  0.00     0.069 A 
HETATM   11  C13 UNK     1       8.825   6.348   6.586  1.00  0.00     0.039 A 
ENDROOT
BRANCH   4  12
HETATM   12  C6  UNK     1      14.718   7.564   9.120  1.00  0.00     0.198 C 
HETATM   13  O4  UNK     1      15.499   6.666   9.439  1.00  0.00    -0.286 OA
BRANCH  12  14
HETATM   14  C5  UNK     1      15.056   8.982   9.409  1.00  0.00     0.021 A 
HETATM   15  C12 UNK     1      15.079   9.866   8.348  1.00  0.00     0.016 A 
HETATM   16  C16 UNK     1      15.394  11.203   8.592  1.00  0.00     0.001 A 
HETATM   17  C17 UNK     1      15.680  11.626   9.890  1.00  0.00     0.001 A 
HETATM   18  C14 UNK     1      15.650  10.714  10.944  1.00  0.00     0.007 A 
HETATM   19  C7  UNK     1      15.335   9.377  10.701  1.00  0.00    -0.048 A 
HETATM   20  C15 UNK     1      15.310   8.420  11.848  1.00  0.00     0.049 C 
ENDBRANCH  12  14
ENDBRANCH   4  12
BRANCH  10  21
HETATM   21  O2  UNK     1       7.323   6.931   8.347  1.00  0.00    -0.356 OA
HETATM   22  C18 UNK     1       7.144   6.892   9.762  1.00  0.00     0.210 C 
ENDBRANCH  10  21
TORSDOF 3
ENDMDL
