MODEL 1
REMARK VINA RESULT:      -9.3      0.000      0.000
REMARK  3 active torsions:
REMARK  status: ('A' for Active; 'I' for Inactive)
REMARK    1  A    between atoms: C11_15  and  O2_3 
REMARK    2  A    between atoms: C13_17  and  O2_3 
REMARK    3  A    between atoms: C13_17  and  C14_18 
ROOT
HETATM    1  O1  UNK     1      18.742   0.250  33.082  1.00  0.00    -0.274 OA
HETATM    2  O3  UNK     1      19.371  -1.915  33.520  1.00  0.00    -0.259 OA
HETATM    3  C1  UNK     1      20.348  -0.407  29.179  1.00  0.00     0.040 C 
HETATM    4  C2  UNK     1      19.756  -0.051  30.499  1.00  0.00    -0.033 A 
HETATM    5  C3  UNK     1      20.481  -1.932  29.283  1.00  0.00     0.009 C 
HETATM    6  C4  UNK     1      20.462  -2.272  30.776  1.00  0.00     0.046 C 
HETATM    7  C5  UNK     1      19.818  -1.065  31.364  1.00  0.00     0.025 A 
HETATM    8  C6  UNK     1      19.178   1.222  30.878  1.00  0.00     0.005 A 
HETATM    9  C7  UNK     1      18.677   1.338  32.178  1.00  0.00     0.092 A 
HETATM   10  C8  UNK     1      19.307  -0.977  32.734  1.00  0.00     0.295 A 
HETATM   11  C9  UNK     1      19.094   2.326  30.028  1.00  0.00     0.017 A 
HETATM   12  C10 UNK     1      18.099   2.520  32.640  1.00  0.00     0.075 A 
HETATM   13  C11 UNK     1      18.021   3.613  31.782  1.00  0.00     0.071 A 
HETATM   14  C12 UNK     1      18.517   3.517  30.480  1.00  0.00     0.038 A 
ENDROOT
BRANCH  13  15
HETATM   15  O2  UNK     1      17.461   4.777  32.211  1.00  0.00    -0.347 OA
BRANCH  15  16
HETATM   16  C13 UNK     1      17.810   5.965  31.502  1.00  0.00     0.214 C 
BRANCH  16  17
HETATM   17  C14 UNK     1      18.513   6.904  32.438  1.00  0.00    -0.034 A 
HETATM   18  C15 UNK     1      19.854   6.698  32.741  1.00  0.00     0.012 A 
HETATM   19  C17 UNK     1      20.508   7.570  33.611  1.00  0.00     0.043 A 
HETATM   20  C19 UNK     1      19.817   8.645  34.171  1.00  0.00     0.116 A 
HETATM   21  C18 UNK     1      18.471   8.846  33.861  1.00  0.00     0.043 A 
HETATM   22  F1  UNK     1      20.444   9.483  35.006  1.00  0.00    -0.206 F 
HETATM   23  C16 UNK     1      17.817   7.972  32.992  1.00  0.00     0.012 A 
ENDBRANCH  16  17
ENDBRANCH  15  16
ENDBRANCH  13  15
TORSDOF 3
ENDMDL
MODEL 2
REMARK VINA RESULT:      -9.2      1.495      2.433
REMARK  3 active torsions:
REMARK  status: ('A' for Active; 'I' for Inactive)
REMARK    1  A    between atoms: C11_15  and  O2_3 
REMARK    2  A    between atoms: C13_17  and  O2_3 
REMARK    3  A    between atoms: C13_17  and  C14_18 
ROOT
HETATM    1  O1  UNK     1      19.515   1.029  29.407  1.00  0.00    -0.274 OA
HETATM    2  O3  UNK     1      20.464  -0.619  28.119  1.00  0.00    -0.259 OA
HETATM    3  C1  UNK     1      19.794  -1.764  32.625  1.00  0.00     0.040 C 
HETATM    4  C2  UNK     1      19.641  -0.702  31.592  1.00  0.00    -0.033 A 
HETATM    5  C3  UNK     1      20.723  -2.766  31.928  1.00  0.00     0.009 C 
HETATM    6  C4  UNK     1      20.613  -2.491  30.425  1.00  0.00     0.046 C 
HETATM    7  C5  UNK     1      20.088  -1.099  30.399  1.00  0.00     0.025 A 
HETATM    8  C6  UNK     1      19.075   0.618  31.779  1.00  0.00     0.005 A 
HETATM    9  C7  UNK     1      19.029   1.461  30.665  1.00  0.00     0.092 A 
HETATM   10  C8  UNK     1      20.052  -0.243  29.210  1.00  0.00     0.295 A 
HETATM   11  C9  UNK     1      18.578   1.090  32.995  1.00  0.00     0.017 A 
HETATM   12  C10 UNK     1      18.506   2.751  30.740  1.00  0.00     0.075 A 
HETATM   13  C11 UNK     1      18.015   3.209  31.959  1.00  0.00     0.071 A 
HETATM   14  C12 UNK     1      18.050   2.382  33.083  1.00  0.00     0.038 A 
ENDROOT
BRANCH  13  15
HETATM   15  O2  UNK     1      17.499   4.465  32.057  1.00  0.00    -0.347 OA
BRANCH  15  16
HETATM   16  C13 UNK     1      18.151   5.494  31.313  1.00  0.00     0.214 C 
BRANCH  16  17
HETATM   17  C14 UNK     1      18.716   6.505  32.268  1.00  0.00    -0.034 A 
HETATM   18  C15 UNK     1      17.900   7.515  32.764  1.00  0.00     0.012 A 
HETATM   19  C17 UNK     1      18.426   8.454  33.651  1.00  0.00     0.043 A 
HETATM   20  C19 UNK     1      19.764   8.377  34.038  1.00  0.00     0.116 A 
HETATM   21  C18 UNK     1      20.576   7.359  33.536  1.00  0.00     0.043 A 
HETATM   22  F1  UNK     1      20.268   9.279  34.890  1.00  0.00    -0.206 F 
HETATM   23  C16 UNK     1      20.051   6.420  32.649  1.00  0.00     0.012 A 
ENDBRANCH  16  17
ENDBRANCH  15  16
ENDBRANCH  13  15
TORSDOF 3
ENDMDL
MODEL 3
REMARK VINA RESULT:      -8.8      1.752      2.158
REMARK  3 active torsions:
REMARK  status: ('A' for Active; 'I' for Inactive)
REMARK    1  A    between atoms: C11_15  and  O2_3 
REMARK    2  A    between atoms: C13_17  and  O2_3 
REMARK    3  A    between atoms: C13_17  and  C14_18 
ROOT
HETATM    1  O1  UNK     1      18.779   0.346  33.043  1.00  0.00    -0.274 OA
HETATM    2  O3  UNK     1      19.425  -1.778  33.630  1.00  0.00    -0.259 OA
HETATM    3  C1  UNK     1      20.376  -0.573  29.191  1.00  0.00     0.040 C 
HETATM    4  C2  UNK     1      19.787  -0.129  30.484  1.00  0.00    -0.033 A 
HETATM    5  C3  UNK     1      20.522  -2.085  29.401  1.00  0.00     0.009 C 
HETATM    6  C4  UNK     1      20.510  -2.319  30.914  1.00  0.00     0.046 C 
HETATM    7  C5  UNK     1      19.859  -1.079  31.418  1.00  0.00     0.025 A 
HETATM    8  C6  UNK     1      19.200   1.163  30.775  1.00  0.00     0.005 A 
HETATM    9  C7  UNK     1      18.703   1.367  32.065  1.00  0.00     0.092 A 
HETATM   10  C8  UNK     1      19.351  -0.899  32.781  1.00  0.00     0.295 A 
HETATM   11  C9  UNK     1      19.105   2.204  29.849  1.00  0.00     0.017 A 
HETATM   12  C10 UNK     1      18.117   2.574  32.445  1.00  0.00     0.075 A 
HETATM   13  C11 UNK     1      18.028   3.603  31.512  1.00  0.00     0.071 A 
HETATM   14  C12 UNK     1      18.521   3.419  30.219  1.00  0.00     0.038 A 
ENDROOT
BRANCH  13  15
HETATM   15  O2  UNK     1      17.460   4.790  31.860  1.00  0.00    -0.347 OA
BRANCH  15  16
HETATM   16  C13 UNK     1      18.071   5.513  32.928  1.00  0.00     0.214 C 
BRANCH  16  17
HETATM   17  C14 UNK     1      17.120   6.568  33.412  1.00  0.00    -0.034 A 
HETATM   18  C15 UNK     1      17.397   7.257  34.588  1.00  0.00     0.012 A 
HETATM   19  C17 UNK     1      16.512   8.237  35.038  1.00  0.00     0.043 A 
HETATM   20  C19 UNK     1      15.357   8.524  34.310  1.00  0.00     0.116 A 
HETATM   21  C18 UNK     1      15.087   7.828  33.130  1.00  0.00     0.043 A 
HETATM   22  F1  UNK     1      14.509   9.465  34.742  1.00  0.00    -0.206 F 
HETATM   23  C16 UNK     1      15.972   6.847  32.680  1.00  0.00     0.012 A 
ENDBRANCH  16  17
ENDBRANCH  15  16
ENDBRANCH  13  15
TORSDOF 3
ENDMDL
MODEL 4
REMARK VINA RESULT:      -8.6      3.421      8.021
REMARK  3 active torsions:
REMARK  status: ('A' for Active; 'I' for Inactive)
REMARK    1  A    between atoms: C11_15  and  O2_3 
REMARK    2  A    between atoms: C13_17  and  O2_3 
REMARK    3  A    between atoms: C13_17  and  C14_18 
ROOT
HETATM    1  O1  UNK     1      17.047   5.753  33.151  1.00  0.00    -0.274 OA
HETATM    2  O3  UNK     1      16.169   6.899  34.937  1.00  0.00    -0.259 OA
HETATM    3  C1  UNK     1      20.435   8.319  33.574  1.00  0.00     0.040 C 
HETATM    4  C2  UNK     1      19.319   7.366  33.321  1.00  0.00    -0.033 A 
HETATM    5  C3  UNK     1      20.073   8.886  34.953  1.00  0.00     0.009 C 
HETATM    6  C4  UNK     1      18.575   8.636  35.148  1.00  0.00     0.046 C 
HETATM    7  C5  UNK     1      18.311   7.539  34.178  1.00  0.00     0.025 A 
HETATM    8  C6  UNK     1      19.256   6.355  32.286  1.00  0.00     0.005 A 
HETATM    9  C7  UNK     1      18.106   5.564  32.229  1.00  0.00     0.092 A 
HETATM   10  C8  UNK     1      17.089   6.730  34.146  1.00  0.00     0.295 A 
HETATM   11  C9  UNK     1      20.268   6.131  31.350  1.00  0.00     0.017 A 
HETATM   12  C10 UNK     1      17.948   4.563  31.271  1.00  0.00     0.075 A 
HETATM   13  C11 UNK     1      18.965   4.349  30.346  1.00  0.00     0.071 A 
HETATM   14  C12 UNK     1      20.122   5.131  30.384  1.00  0.00     0.038 A 
ENDROOT
BRANCH  13  15
HETATM   15  O2  UNK     1      18.834   3.378  29.401  1.00  0.00    -0.347 OA
BRANCH  15  16
HETATM   16  C13 UNK     1      18.013   2.258  29.732  1.00  0.00     0.214 C 
BRANCH  16  17
HETATM   17  C14 UNK     1      18.855   1.015  29.726  1.00  0.00    -0.034 A 
HETATM   18  C15 UNK     1      19.072   0.337  28.532  1.00  0.00     0.012 A 
HETATM   19  C17 UNK     1      19.854  -0.818  28.526  1.00  0.00     0.043 A 
HETATM   20  C19 UNK     1      20.415  -1.287  29.714  1.00  0.00     0.116 A 
HETATM   21  C18 UNK     1      20.193  -0.600  30.908  1.00  0.00     0.043 A 
HETATM   22  F1  UNK     1      21.166  -2.396  29.708  1.00  0.00    -0.206 F 
HETATM   23  C16 UNK     1      19.411   0.555  30.914  1.00  0.00     0.012 A 
ENDBRANCH  16  17
ENDBRANCH  15  16
ENDBRANCH  13  15
TORSDOF 3
ENDMDL
MODEL 5
REMARK VINA RESULT:      -8.6     23.387     25.030
REMARK  3 active torsions:
REMARK  status: ('A' for Active; 'I' for Inactive)
REMARK    1  A    between atoms: C11_15  and  O2_3 
REMARK    2  A    between atoms: C13_17  and  O2_3 
REMARK    3  A    between atoms: C13_17  and  C14_18 
ROOT
HETATM    1  O1  UNK     1      14.002   4.686   8.814  1.00  0.00    -0.274 OA
HETATM    2  O3  UNK     1      16.024   4.167   9.770  1.00  0.00    -0.259 OA
HETATM    3  C1  UNK     1      15.063   8.759   9.538  1.00  0.00     0.040 C 
HETATM    4  C2  UNK     1      14.576   7.386   9.231  1.00  0.00    -0.033 A 
HETATM    5  C3  UNK     1      16.541   8.516   9.865  1.00  0.00     0.009 C 
HETATM    6  C4  UNK     1      16.670   7.034  10.231  1.00  0.00     0.046 C 
HETATM    7  C5  UNK     1      15.451   6.451   9.607  1.00  0.00     0.025 A 
HETATM    8  C6  UNK     1      13.315   7.027   8.615  1.00  0.00     0.005 A 
HETATM    9  C7  UNK     1      13.060   5.667   8.418  1.00  0.00     0.092 A 
HETATM   10  C8  UNK     1      15.215   5.017   9.419  1.00  0.00     0.295 A 
HETATM   11  C9  UNK     1      12.352   7.953   8.211  1.00  0.00     0.017 A 
HETATM   12  C10 UNK     1      11.878   5.218   7.832  1.00  0.00     0.075 A 
HETATM   13  C11 UNK     1      10.926   6.152   7.432  1.00  0.00     0.071 A 
HETATM   14  C12 UNK     1      11.161   7.515   7.622  1.00  0.00     0.038 A 
ENDROOT
BRANCH  13  15
HETATM   15  O2  UNK     1       9.764   5.737   6.857  1.00  0.00    -0.347 OA
BRANCH  15  16
HETATM   16  C13 UNK     1       8.627   6.587   7.006  1.00  0.00     0.214 C 
BRANCH  16  17
HETATM   17  C14 UNK     1       8.052   6.399   8.380  1.00  0.00    -0.034 A 
HETATM   18  C15 UNK     1       7.836   7.506   9.193  1.00  0.00     0.012 A 
HETATM   19  C17 UNK     1       7.302   7.331  10.469  1.00  0.00     0.043 A 
HETATM   20  C19 UNK     1       6.986   6.051  10.925  1.00  0.00     0.116 A 
HETATM   21  C18 UNK     1       7.204   4.945  10.102  1.00  0.00     0.043 A 
HETATM   22  F1  UNK     1       6.473   5.884  12.150  1.00  0.00    -0.206 F 
HETATM   23  C16 UNK     1       7.739   5.120   8.825  1.00  0.00     0.012 A 
ENDBRANCH  16  17
ENDBRANCH  15  16
ENDBRANCH  13  15
TORSDOF 3
ENDMDL
MODEL 6
REMARK VINA RESULT:      -8.5      3.328      8.583
REMARK  3 active torsions:
REMARK  status: ('A' for Active; 'I' for Inactive)
REMARK    1  A    between atoms: C11_15  and  O2_3 
REMARK    2  A    between atoms: C13_17  and  O2_3 
REMARK    3  A    between atoms: C13_17  and  C14_18 
ROOT
HETATM    1  O1  UNK     1      15.737   6.501  32.340  1.00  0.00    -0.274 OA
HETATM    2  O3  UNK     1      14.019   7.862  33.025  1.00  0.00    -0.259 OA
HETATM    3  C1  UNK     1      18.325   9.613  33.702  1.00  0.00     0.040 C 
HETATM    4  C2  UNK     1      17.535   8.458  33.191  1.00  0.00    -0.033 A 
HETATM    5  C3  UNK     1      17.271  10.410  34.480  1.00  0.00     0.009 C 
HETATM    6  C4  UNK     1      15.906   9.970  33.943  1.00  0.00     0.046 C 
HETATM    7  C5  UNK     1      16.223   8.654  33.325  1.00  0.00     0.025 A 
HETATM    8  C6  UNK     1      18.055   7.244  32.597  1.00  0.00     0.005 A 
HETATM    9  C7  UNK     1      17.128   6.283  32.184  1.00  0.00     0.092 A 
HETATM   10  C8  UNK     1      15.222   7.671  32.899  1.00  0.00     0.295 A 
HETATM   11  C9  UNK     1      19.414   6.982  32.416  1.00  0.00     0.017 A 
HETATM   12  C10 UNK     1      17.525   5.080  31.602  1.00  0.00     0.075 A 
HETATM   13  C11 UNK     1      18.884   4.831  31.429  1.00  0.00     0.071 A 
HETATM   14  C12 UNK     1      19.826   5.779  31.834  1.00  0.00     0.038 A 
ENDROOT
BRANCH  13  15
HETATM   15  O2  UNK     1      19.296   3.663  30.864  1.00  0.00    -0.347 OA
BRANCH  15  16
HETATM   16  C13 UNK     1      18.299   2.669  30.629  1.00  0.00     0.214 C 
BRANCH  16  17
HETATM   17  C14 UNK     1      18.973   1.355  30.363  1.00  0.00    -0.034 A 
HETATM   18  C15 UNK     1      19.300   0.521  31.426  1.00  0.00     0.012 A 
HETATM   19  C17 UNK     1      19.925  -0.701  31.178  1.00  0.00     0.043 A 
HETATM   20  C19 UNK     1      20.220  -1.082  29.869  1.00  0.00     0.116 A 
HETATM   21  C18 UNK     1      19.888  -0.240  28.807  1.00  0.00     0.043 A 
HETATM   22  F1  UNK     1      20.821  -2.255  29.632  1.00  0.00    -0.206 F 
HETATM   23  C16 UNK     1      19.262   0.983  29.055  1.00  0.00     0.012 A 
ENDBRANCH  16  17
ENDBRANCH  15  16
ENDBRANCH  13  15
TORSDOF 3
ENDMDL
MODEL 7
REMARK VINA RESULT:      -8.5      3.330      8.832
REMARK  3 active torsions:
REMARK  status: ('A' for Active; 'I' for Inactive)
REMARK    1  A    between atoms: C11_15  and  O2_3 
REMARK    2  A    between atoms: C13_17  and  O2_3 
REMARK    3  A    between atoms: C13_17  and  C14_18 
ROOT
HETATM    1  O1  UNK     1      15.591   7.222  32.615  1.00  0.00    -0.274 OA
HETATM    2  O3  UNK     1      13.880   8.704  33.002  1.00  0.00    -0.259 OA
HETATM    3  C1  UNK     1      18.177  10.344  33.960  1.00  0.00     0.040 C 
HETATM    4  C2  UNK     1      17.387   9.179  33.472  1.00  0.00    -0.033 A 
HETATM    5  C3  UNK     1      17.090  11.248  34.555  1.00  0.00     0.009 C 
HETATM    6  C4  UNK     1      15.765  10.814  33.922  1.00  0.00     0.046 C 
HETATM    7  C5  UNK     1      16.078   9.436  33.455  1.00  0.00     0.025 A 
HETATM    8  C6  UNK     1      17.905   7.897  33.042  1.00  0.00     0.005 A 
HETATM    9  C7  UNK     1      16.979   6.938  32.620  1.00  0.00     0.092 A 
HETATM   10  C8  UNK     1      15.079   8.457  33.016  1.00  0.00     0.295 A 
HETATM   11  C9  UNK     1      19.262   7.568  33.023  1.00  0.00     0.017 A 
HETATM   12  C10 UNK     1      17.374   5.673  32.188  1.00  0.00     0.075 A 
HETATM   13  C11 UNK     1      18.730   5.358  32.176  1.00  0.00     0.071 A 
HETATM   14  C12 UNK     1      19.671   6.302  32.591  1.00  0.00     0.038 A 
ENDROOT
BRANCH  13  15
HETATM   15  O2  UNK     1      19.139   4.129  31.758  1.00  0.00    -0.347 OA
BRANCH  15  16
HETATM   16  C13 UNK     1      18.167   3.085  31.763  1.00  0.00     0.214 C 
BRANCH  16  17
HETATM   17  C14 UNK     1      18.513   2.089  30.695  1.00  0.00    -0.034 A 
HETATM   18  C15 UNK     1      17.970   2.229  29.422  1.00  0.00     0.012 A 
HETATM   19  C17 UNK     1      18.291   1.304  28.430  1.00  0.00     0.043 A 
HETATM   20  C19 UNK     1      19.152   0.245  28.714  1.00  0.00     0.116 A 
HETATM   21  C18 UNK     1      19.694   0.112  29.993  1.00  0.00     0.043 A 
HETATM   22  F1  UNK     1      19.460  -0.643  27.760  1.00  0.00    -0.206 F 
HETATM   23  C16 UNK     1      19.373   1.037  30.987  1.00  0.00     0.012 A 
ENDBRANCH  16  17
ENDBRANCH  15  16
ENDBRANCH  13  15
TORSDOF 3
ENDMDL
MODEL 8
REMARK VINA RESULT:      -8.5      3.373      8.808
REMARK  3 active torsions:
REMARK  status: ('A' for Active; 'I' for Inactive)
REMARK    1  A    between atoms: C11_15  and  O2_3 
REMARK    2  A    between atoms: C13_17  and  O2_3 
REMARK    3  A    between atoms: C13_17  and  C14_18 
ROOT
HETATM    1  O1  UNK     1      19.885   7.890  33.693  1.00  0.00    -0.274 OA
HETATM    2  O3  UNK     1      21.077   9.630  34.602  1.00  0.00    -0.259 OA
HETATM    3  C1  UNK     1      16.531  10.530  33.834  1.00  0.00     0.040 C 
HETATM    4  C2  UNK     1      17.616   9.516  33.731  1.00  0.00    -0.033 A 
HETATM    5  C3  UNK     1      17.314  11.819  34.113  1.00  0.00     0.009 C 
HETATM    6  C4  UNK     1      18.680  11.391  34.658  1.00  0.00     0.046 C 
HETATM    7  C5  UNK     1      18.782   9.986  34.177  1.00  0.00     0.025 A 
HETATM    8  C6  UNK     1      17.496   8.162  33.231  1.00  0.00     0.005 A 
HETATM    9  C7  UNK     1      18.652   7.375  33.224  1.00  0.00     0.092 A 
HETATM   10  C8  UNK     1      20.012   9.188  34.188  1.00  0.00     0.295 A 
HETATM   11  C9  UNK     1      16.305   7.604  32.763  1.00  0.00     0.017 A 
HETATM   12  C10 UNK     1      18.643   6.060  32.762  1.00  0.00     0.075 A 
HETATM   13  C11 UNK     1      17.449   5.517  32.296  1.00  0.00     0.071 A 
HETATM   14  C12 UNK     1      16.284   6.286  32.297  1.00  0.00     0.038 A 
ENDROOT
BRANCH  13  15
HETATM   15  O2  UNK     1      17.416   4.235  31.839  1.00  0.00    -0.347 OA
BRANCH  15  16
HETATM   16  C13 UNK     1      18.633   3.493  31.901  1.00  0.00     0.214 C 
BRANCH  16  17
HETATM   17  C14 UNK     1      18.662   2.504  30.772  1.00  0.00    -0.034 A 
HETATM   18  C15 UNK     1      19.391   1.328  30.906  1.00  0.00     0.012 A 
HETATM   19  C17 UNK     1      19.417   0.409  29.857  1.00  0.00     0.043 A 
HETATM   20  C19 UNK     1      18.713   0.671  28.681  1.00  0.00     0.116 A 
HETATM   21  C18 UNK     1      17.983   1.854  28.555  1.00  0.00     0.043 A 
HETATM   22  F1  UNK     1      18.739  -0.211  27.674  1.00  0.00    -0.206 F 
HETATM   23  C16 UNK     1      17.957   2.773  29.604  1.00  0.00     0.012 A 
ENDBRANCH  16  17
ENDBRANCH  15  16
ENDBRANCH  13  15
TORSDOF 3
ENDMDL
MODEL 9
REMARK VINA RESULT:      -8.4     22.874     24.402
REMARK  3 active torsions:
REMARK  status: ('A' for Active; 'I' for Inactive)
REMARK    1  A    between atoms: C11_15  and  O2_3 
REMARK    2  A    between atoms: C13_17  and  O2_3 
REMARK    3  A    between atoms: C13_17  and  C14_18 
ROOT
HETATM    1  O1  UNK     1      11.096   5.012  10.040  1.00  0.00    -0.274 OA
HETATM    2  O3  UNK     1       8.898   4.646  10.595  1.00  0.00    -0.259 OA
HETATM    3  C1  UNK     1       9.578   6.614   6.384  1.00  0.00     0.040 C 
HETATM    4  C2  UNK     1      10.233   6.083   7.612  1.00  0.00    -0.033 A 
HETATM    5  C3  UNK     1       8.110   6.716   6.816  1.00  0.00     0.009 C 
HETATM    6  C4  UNK     1       7.942   5.781   8.017  1.00  0.00     0.046 C 
HETATM    7  C5  UNK     1       9.343   5.633   8.497  1.00  0.00     0.025 A 
HETATM    8  C6  UNK     1      11.655   6.018   7.880  1.00  0.00     0.005 A 
HETATM    9  C7  UNK     1      12.053   5.478   9.106  1.00  0.00     0.092 A 
HETATM   10  C8  UNK     1       9.724   5.058   9.790  1.00  0.00     0.295 A 
HETATM   11  C9  UNK     1      12.639   6.458   6.993  1.00  0.00     0.017 A 
HETATM   12  C10 UNK     1      13.397   5.372   9.461  1.00  0.00     0.075 A 
HETATM   13  C11 UNK     1      14.368   5.816   8.568  1.00  0.00     0.071 A 
HETATM   14  C12 UNK     1      13.990   6.357   7.337  1.00  0.00     0.038 A 
ENDROOT
BRANCH  13  15
HETATM   15  O2  UNK     1      15.686   5.723   8.893  1.00  0.00    -0.347 OA
BRANCH  15  16
HETATM   16  C13 UNK     1      16.046   6.028  10.239  1.00  0.00     0.214 C 
BRANCH  16  17
HETATM   17  C14 UNK     1      16.139   7.518  10.396  1.00  0.00    -0.034 A 
HETATM   18  C15 UNK     1      17.135   8.220   9.727  1.00  0.00     0.012 A 
HETATM   19  C17 UNK     1      17.221   9.604   9.872  1.00  0.00     0.043 A 
HETATM   20  C19 UNK     1      16.310  10.278  10.686  1.00  0.00     0.116 A 
HETATM   21  C18 UNK     1      15.312   9.567  11.353  1.00  0.00     0.043 A 
HETATM   22  F1  UNK     1      16.393  11.607  10.825  1.00  0.00    -0.206 F 
HETATM   23  C16 UNK     1      15.226   8.182  11.208  1.00  0.00     0.012 A 
ENDBRANCH  16  17
ENDBRANCH  15  16
ENDBRANCH  13  15
TORSDOF 3
ENDMDL
MODEL 10
REMARK VINA RESULT:      -8.3      7.110      9.764
REMARK  3 active torsions:
REMARK  status: ('A' for Active; 'I' for Inactive)
REMARK    1  A    between atoms: C11_15  and  O2_3 
REMARK    2  A    between atoms: C13_17  and  O2_3 
REMARK    3  A    between atoms: C13_17  and  C14_18 
ROOT
HETATM    1  O1  UNK     1      18.884  -7.261  37.276  1.00  0.00    -0.274 OA
HETATM    2  O3  UNK     1      18.674  -9.388  38.115  1.00  0.00    -0.259 OA
HETATM    3  C1  UNK     1      22.393  -6.991  39.695  1.00  0.00     0.040 C 
HETATM    4  C2  UNK     1      21.195  -6.957  38.811  1.00  0.00    -0.033 A 
HETATM    5  C3  UNK     1      22.510  -8.484  40.027  1.00  0.00     0.009 C 
HETATM    6  C4  UNK     1      21.133  -9.100  39.765  1.00  0.00     0.046 C 
HETATM    7  C5  UNK     1      20.514  -8.103  38.849  1.00  0.00     0.025 A 
HETATM    8  C6  UNK     1      20.751  -5.849  37.990  1.00  0.00     0.005 A 
HETATM    9  C7  UNK     1      19.592  -6.035  37.232  1.00  0.00     0.092 A 
HETATM   10  C8  UNK     1      19.293  -8.332  38.071  1.00  0.00     0.295 A 
HETATM   11  C9  UNK     1      21.409  -4.620  37.914  1.00  0.00     0.017 A 
HETATM   12  C10 UNK     1      19.082  -5.032  36.408  1.00  0.00     0.075 A 
HETATM   13  C11 UNK     1      19.749  -3.812  36.341  1.00  0.00     0.071 A 
HETATM   14  C12 UNK     1      20.908  -3.606  37.092  1.00  0.00     0.038 A 
ENDROOT
BRANCH  13  15
HETATM   15  O2  UNK     1      19.271  -2.818  35.544  1.00  0.00    -0.347 OA
BRANCH  15  16
HETATM   16  C13 UNK     1      19.520  -1.476  35.960  1.00  0.00     0.214 C 
BRANCH  16  17
HETATM   17  C14 UNK     1      18.209  -0.766  36.136  1.00  0.00    -0.034 A 
HETATM   18  C15 UNK     1      17.983  -0.010  37.281  1.00  0.00     0.012 A 
HETATM   19  C17 UNK     1      16.765   0.649  37.444  1.00  0.00     0.043 A 
HETATM   20  C19 UNK     1      15.780   0.549  36.461  1.00  0.00     0.116 A 
HETATM   21  C18 UNK     1      16.015  -0.211  35.314  1.00  0.00     0.043 A 
HETATM   22  F1  UNK     1      14.611   1.182  36.617  1.00  0.00    -0.206 F 
HETATM   23  C16 UNK     1      17.234  -0.870  35.151  1.00  0.00     0.012 A 
ENDBRANCH  16  17
ENDBRANCH  15  16
ENDBRANCH  13  15
TORSDOF 3
ENDMDL
