MODEL 1
REMARK VINA RESULT:      -9.2      0.000      0.000
REMARK  6 active torsions:
REMARK  status: ('A' for Active; 'I' for Inactive)
REMARK    1  A    between atoms: C19_28  and  O2_4 
REMARK    2  A    between atoms: C9_18  and  O2_4 
REMARK    3  A    between atoms: C3_12  and  N1_9 
REMARK       I    between atoms: C8_17  and  N1_9 
REMARK    4  A    between atoms: C2_11  and  C9_18 
REMARK    5  A    between atoms: C11_20  and  C4_13 
REMARK    6  A    between atoms: C6_15  and  C8_17 
ROOT
HETATM    1  O3  UNK     1      20.874  -4.008  37.829  1.00  0.00    -0.267 OA
HETATM    2  N1  UNK     1      18.955  -3.855  36.464  1.00  0.00    -0.316 N 
HETATM    3  C8  UNK     1      19.975  -4.500  37.150  1.00  0.00     0.262 C 
HETATM    4  H1  UNK     1      18.266  -4.404  35.957  1.00  0.00     0.169 HD
ENDROOT
BRANCH   2   5
HETATM    5  C3  UNK     1      18.743  -2.475  36.410  1.00  0.00     0.094 A 
HETATM    6  C2  UNK     1      19.066  -1.569  35.451  1.00  0.00     0.080 A 
HETATM    7  C1  UNK     1      18.653  -0.256  35.822  1.00  0.00    -0.022 A 
HETATM    8  C4  UNK     1      18.034  -0.238  37.053  1.00  0.00     0.059 A 
HETATM    9  C5  UNK     1      18.865   0.948  34.981  1.00  0.00     0.051 C 
HETATM   10  S1  UNK     1      17.953  -1.797  37.755  1.00  0.00    -0.067 SA
BRANCH   6  11
HETATM   11  C9  UNK     1      19.740  -1.919  34.226  1.00  0.00     0.296 C 
HETATM   12  O4  UNK     1      20.881  -2.401  34.178  1.00  0.00    -0.259 OA
BRANCH  11  13
HETATM   13  O2  UNK     1      19.001  -1.670  33.090  1.00  0.00    -0.318 OA
BRANCH  13  14
HETATM   14  C19 UNK     1      19.728  -1.514  31.866  1.00  0.00     0.174 C 
HETATM   15  C20 UNK     1      19.467  -0.131  31.310  1.00  0.00     0.034 C 
ENDBRANCH  13  14
ENDBRANCH  11  13
ENDBRANCH   6  11
BRANCH   8  16
HETATM   16  C11 UNK     1      17.483   0.867  37.771  1.00  0.00     0.163 C 
HETATM   17  O5  UNK     1      17.964   1.336  38.832  1.00  0.00    -0.292 OA
HETATM   18  C16 UNK     1      16.219   1.560  37.253  1.00  0.00     0.097 C 
ENDBRANCH   8  16
ENDBRANCH   2   5
BRANCH   3  19
HETATM   19  C6  UNK     1      19.902  -5.958  36.994  1.00  0.00     0.108 A 
HETATM   20  C10 UNK     1      21.066  -6.593  36.814  1.00  0.00     0.037 A 
HETATM   21  C7  UNK     1      21.096  -8.038  36.649  1.00  0.00     0.001 A 
HETATM   22  C12 UNK     1      19.898  -8.743  36.682  1.00  0.00     0.089 A 
HETATM   23  C14 UNK     1      22.287  -8.741  36.460  1.00  0.00     0.038 A 
HETATM   24  O1  UNK     1      18.675  -8.070  36.871  1.00  0.00    -0.274 OA
HETATM   25  C15 UNK     1      19.856 -10.128  36.529  1.00  0.00     0.040 A 
HETATM   26  C13 UNK     1      18.614  -6.688  37.031  1.00  0.00     0.304 A 
HETATM   27  O6  UNK     1      17.546  -6.110  37.195  1.00  0.00    -0.259 OA
HETATM   28  C18 UNK     1      21.049 -10.822  36.341  1.00  0.00     0.026 A 
HETATM   29  C17 UNK     1      22.262 -10.131  36.306  1.00  0.00     0.035 A 
HETATM   30 Cl1  UNK     1      23.734 -10.994  36.074  1.00  0.00    -0.084 Cl
ENDBRANCH   3  19
TORSDOF 6
ENDMDL
MODEL 2
REMARK VINA RESULT:      -8.9      3.534      8.942
REMARK  6 active torsions:
REMARK  status: ('A' for Active; 'I' for Inactive)
REMARK    1  A    between atoms: C19_28  and  O2_4 
REMARK    2  A    between atoms: C9_18  and  O2_4 
REMARK    3  A    between atoms: C3_12  and  N1_9 
REMARK       I    between atoms: C8_17  and  N1_9 
REMARK    4  A    between atoms: C2_11  and  C9_18 
REMARK    5  A    between atoms: C11_20  and  C4_13 
REMARK    6  A    between atoms: C6_15  and  C8_17 
ROOT
HETATM    1  O3  UNK     1      21.218  -4.409  37.010  1.00  0.00    -0.267 OA
HETATM    2  N1  UNK     1      19.767  -5.487  35.493  1.00  0.00    -0.316 N 
HETATM    3  C8  UNK     1      20.360  -4.406  36.130  1.00  0.00     0.262 C 
HETATM    4  H1  UNK     1      19.079  -5.323  34.762  1.00  0.00     0.169 HD
ENDROOT
BRANCH   2   5
HETATM    5  C3  UNK     1      20.038  -6.836  35.737  1.00  0.00     0.094 A 
HETATM    6  C2  UNK     1      19.568  -7.671  36.700  1.00  0.00     0.080 A 
HETATM    7  C1  UNK     1      20.122  -8.977  36.564  1.00  0.00    -0.022 A 
HETATM    8  C4  UNK     1      20.989  -9.062  35.497  1.00  0.00     0.059 A 
HETATM    9  C5  UNK     1      19.802 -10.111  37.467  1.00  0.00     0.051 C 
HETATM   10  S1  UNK     1      21.132  -7.573  34.664  1.00  0.00    -0.067 SA
BRANCH   6  11
HETATM   11  C9  UNK     1      18.630  -7.260  37.716  1.00  0.00     0.296 C 
HETATM   12  O4  UNK     1      17.497  -6.819  37.472  1.00  0.00    -0.259 OA
BRANCH  11  13
HETATM   13  O2  UNK     1      19.103  -7.397  39.003  1.00  0.00    -0.318 OA
BRANCH  13  14
HETATM   14  C19 UNK     1      20.243  -6.609  39.361  1.00  0.00     0.174 C 
HETATM   15  C20 UNK     1      21.391  -7.532  39.712  1.00  0.00     0.034 C 
ENDBRANCH  13  14
ENDBRANCH  11  13
ENDBRANCH   6  11
BRANCH   8  16
HETATM   16  C11 UNK     1      21.739 -10.184  35.029  1.00  0.00     0.163 C 
HETATM   17  O5  UNK     1      21.602 -10.710  33.897  1.00  0.00    -0.292 OA
HETATM   18  C16 UNK     1      22.797 -10.825  35.933  1.00  0.00     0.097 C 
ENDBRANCH   8  16
ENDBRANCH   2   5
BRANCH   3  19
HETATM   19  C6  UNK     1      19.841  -3.126  35.630  1.00  0.00     0.108 A 
HETATM   20  C10 UNK     1      19.062  -2.434  36.471  1.00  0.00     0.037 A 
HETATM   21  C7  UNK     1      18.501  -1.155  36.066  1.00  0.00     0.001 A 
HETATM   22  C12 UNK     1      18.787  -0.666  34.796  1.00  0.00     0.089 A 
HETATM   23  C14 UNK     1      17.684  -0.400  36.910  1.00  0.00     0.038 A 
HETATM   24  O1  UNK     1      19.607  -1.398  33.915  1.00  0.00    -0.274 OA
HETATM   25  C15 UNK     1      18.280   0.551  34.346  1.00  0.00     0.040 A 
HETATM   26  C13 UNK     1      20.159  -2.625  34.274  1.00  0.00     0.304 A 
HETATM   27  O6  UNK     1      20.871  -3.256  33.500  1.00  0.00    -0.259 OA
HETATM   28  C18 UNK     1      17.466   1.298  35.194  1.00  0.00     0.026 A 
HETATM   29  C17 UNK     1      17.168   0.824  36.474  1.00  0.00     0.035 A 
HETATM   30 Cl1  UNK     1      16.161   1.752  37.519  1.00  0.00    -0.084 Cl
ENDBRANCH   3  19
TORSDOF 6
ENDMDL
MODEL 3
REMARK VINA RESULT:      -8.7      7.967     13.236
REMARK  6 active torsions:
REMARK  status: ('A' for Active; 'I' for Inactive)
REMARK    1  A    between atoms: C19_28  and  O2_4 
REMARK    2  A    between atoms: C9_18  and  O2_4 
REMARK    3  A    between atoms: C3_12  and  N1_9 
REMARK       I    between atoms: C8_17  and  N1_9 
REMARK    4  A    between atoms: C2_11  and  C9_18 
REMARK    5  A    between atoms: C11_20  and  C4_13 
REMARK    6  A    between atoms: C6_15  and  C8_17 
ROOT
HETATM    1  O3  UNK     1      19.664   5.666  31.633  1.00  0.00    -0.267 OA
HETATM    2  N1  UNK     1      17.733   4.349  31.953  1.00  0.00    -0.316 N 
HETATM    3  C8  UNK     1      18.484   5.515  31.944  1.00  0.00     0.262 C 
HETATM    4  H1  UNK     1      16.752   4.386  32.217  1.00  0.00     0.169 HD
ENDROOT
BRANCH   2   5
HETATM    5  C3  UNK     1      18.185   3.074  31.599  1.00  0.00     0.094 A 
HETATM    6  C2  UNK     1      18.331   1.950  32.348  1.00  0.00     0.080 A 
HETATM    7  C1  UNK     1      18.830   0.871  31.564  1.00  0.00    -0.022 A 
HETATM    8  C4  UNK     1      19.037   1.237  30.252  1.00  0.00     0.059 A 
HETATM    9  C5  UNK     1      19.095  -0.489  32.098  1.00  0.00     0.051 C 
HETATM   10  S1  UNK     1      18.631   2.876  29.971  1.00  0.00    -0.067 SA
BRANCH   6  11
HETATM   11  C9  UNK     1      18.013   1.888  33.753  1.00  0.00     0.296 C 
HETATM   12  O4  UNK     1      18.722   2.380  34.644  1.00  0.00    -0.259 OA
BRANCH  11  13
HETATM   13  O2  UNK     1      16.839   1.225  34.032  1.00  0.00    -0.318 OA
BRANCH  13  14
HETATM   14  C19 UNK     1      16.802   0.453  35.238  1.00  0.00     0.174 C 
HETATM   15  C20 UNK     1      16.409  -0.969  34.901  1.00  0.00     0.034 C 
ENDBRANCH  13  14
ENDBRANCH  11  13
ENDBRANCH   6  11
BRANCH   8  16
HETATM   16  C11 UNK     1      19.524   0.455  29.160  1.00  0.00     0.163 C 
HETATM   17  O5  UNK     1      18.956   0.361  28.043  1.00  0.00    -0.292 OA
HETATM   18  C16 UNK     1      20.822  -0.343  29.312  1.00  0.00     0.097 C 
ENDBRANCH   8  16
ENDBRANCH   2   5
BRANCH   3  19
HETATM   19  C6  UNK     1      17.695   6.677  32.373  1.00  0.00     0.108 A 
HETATM   20  C10 UNK     1      18.385   7.705  32.881  1.00  0.00     0.037 A 
HETATM   21  C7  UNK     1      17.691   8.901  33.335  1.00  0.00     0.001 A 
HETATM   22  C12 UNK     1      16.306   8.955  33.231  1.00  0.00     0.089 A 
HETATM   23  C14 UNK     1      18.370   9.997  33.870  1.00  0.00     0.038 A 
HETATM   24  O1  UNK     1      15.585   7.869  32.696  1.00  0.00    -0.274 OA
HETATM   25  C15 UNK     1      15.581  10.070  33.649  1.00  0.00     0.040 A 
HETATM   26  C13 UNK     1      16.220   6.712  32.254  1.00  0.00     0.304 A 
HETATM   27  O6  UNK     1      15.585   5.771  31.790  1.00  0.00    -0.259 OA
HETATM   28  C18 UNK     1      16.266  11.159  34.182  1.00  0.00     0.026 A 
HETATM   29  C17 UNK     1      17.658  11.123  34.293  1.00  0.00     0.035 A 
HETATM   30 Cl1  UNK     1      18.499  12.473  34.952  1.00  0.00    -0.084 Cl
ENDBRANCH   3  19
TORSDOF 6
ENDMDL
MODEL 4
REMARK VINA RESULT:      -8.6      7.869     13.024
REMARK  6 active torsions:
REMARK  status: ('A' for Active; 'I' for Inactive)
REMARK    1  A    between atoms: C19_28  and  O2_4 
REMARK    2  A    between atoms: C9_18  and  O2_4 
REMARK    3  A    between atoms: C3_12  and  N1_9 
REMARK       I    between atoms: C8_17  and  N1_9 
REMARK    4  A    between atoms: C2_11  and  C9_18 
REMARK    5  A    between atoms: C11_20  and  C4_13 
REMARK    6  A    between atoms: C6_15  and  C8_17 
ROOT
HETATM    1  O3  UNK     1      18.892   5.587  30.955  1.00  0.00    -0.267 OA
HETATM    2  N1  UNK     1      17.948   4.090  32.515  1.00  0.00    -0.316 N 
HETATM    3  C8  UNK     1      18.252   5.330  31.973  1.00  0.00     0.262 C 
HETATM    4  H1  UNK     1      17.386   4.036  33.361  1.00  0.00     0.169 HD
ENDROOT
BRANCH   2   5
HETATM    5  C3  UNK     1      18.320   2.848  31.993  1.00  0.00     0.094 A 
HETATM    6  C2  UNK     1      18.420   1.633  32.591  1.00  0.00     0.080 A 
HETATM    7  C1  UNK     1      18.840   0.635  31.665  1.00  0.00    -0.022 A 
HETATM    8  C4  UNK     1      19.037   1.153  30.403  1.00  0.00     0.059 A 
HETATM    9  C5  UNK     1      19.041  -0.792  32.018  1.00  0.00     0.051 C 
HETATM   10  S1  UNK     1      18.717   2.833  30.340  1.00  0.00    -0.067 SA
BRANCH   6  11
HETATM   11  C9  UNK     1      18.132   1.411  33.987  1.00  0.00     0.296 C 
HETATM   12  O4  UNK     1      18.995   1.396  34.877  1.00  0.00    -0.259 OA
BRANCH  11  13
HETATM   13  O2  UNK     1      16.796   1.211  34.258  1.00  0.00    -0.318 OA
BRANCH  13  14
HETATM   14  C19 UNK     1      16.480   0.356  35.361  1.00  0.00     0.174 C 
HETATM   15  C20 UNK     1      16.336  -1.065  34.859  1.00  0.00     0.034 C 
ENDBRANCH  13  14
ENDBRANCH  11  13
ENDBRANCH   6  11
BRANCH   8  16
HETATM   16  C11 UNK     1      19.454   0.489  29.209  1.00  0.00     0.163 C 
HETATM   17  O5  UNK     1      18.825   0.519  28.122  1.00  0.00    -0.292 OA
HETATM   18  C16 UNK     1      20.750  -0.327  29.202  1.00  0.00     0.097 C 
ENDBRANCH   8  16
ENDBRANCH   2   5
BRANCH   3  19
HETATM   19  C6  UNK     1      17.704   6.428  32.779  1.00  0.00     0.108 A 
HETATM   20  C10 UNK     1      16.602   7.019  32.302  1.00  0.00     0.037 A 
HETATM   21  C7  UNK     1      15.986   8.118  33.030  1.00  0.00     0.001 A 
HETATM   22  C12 UNK     1      16.559   8.540  34.224  1.00  0.00     0.089 A 
HETATM   23  C14 UNK     1      14.836   8.763  32.570  1.00  0.00     0.038 A 
HETATM   24  O1  UNK     1      17.720   7.914  34.722  1.00  0.00    -0.274 OA
HETATM   25  C15 UNK     1      16.019   9.586  34.969  1.00  0.00     0.040 A 
HETATM   26  C13 UNK     1      18.332   6.861  34.048  1.00  0.00     0.304 A 
HETATM   27  O6  UNK     1      19.342   6.322  34.488  1.00  0.00    -0.259 OA
HETATM   28  C18 UNK     1      14.872  10.225  34.503  1.00  0.00     0.026 A 
HETATM   29  C17 UNK     1      14.281   9.814  33.306  1.00  0.00     0.035 A 
HETATM   30 Cl1  UNK     1      12.863  10.607  32.735  1.00  0.00    -0.084 Cl
ENDBRANCH   3  19
TORSDOF 6
ENDMDL
MODEL 5
REMARK VINA RESULT:      -8.1      6.616     11.671
REMARK  6 active torsions:
REMARK  status: ('A' for Active; 'I' for Inactive)
REMARK    1  A    between atoms: C19_28  and  O2_4 
REMARK    2  A    between atoms: C9_18  and  O2_4 
REMARK    3  A    between atoms: C3_12  and  N1_9 
REMARK       I    between atoms: C8_17  and  N1_9 
REMARK    4  A    between atoms: C2_11  and  C9_18 
REMARK    5  A    between atoms: C11_20  and  C4_13 
REMARK    6  A    between atoms: C6_15  and  C8_17 
ROOT
HETATM    1  O3  UNK     1      19.338   3.892  34.647  1.00  0.00    -0.267 OA
HETATM    2  N1  UNK     1      17.932   2.619  33.243  1.00  0.00    -0.316 N 
HETATM    3  C8  UNK     1      18.469   3.779  33.785  1.00  0.00     0.262 C 
HETATM    4  H1  UNK     1      17.227   2.686  32.514  1.00  0.00     0.169 HD
ENDROOT
BRANCH   2   5
HETATM    5  C3  UNK     1      18.287   1.310  33.582  1.00  0.00     0.094 A 
HETATM    6  C2  UNK     1      18.925   0.353  32.860  1.00  0.00     0.080 A 
HETATM    7  C1  UNK     1      19.076  -0.846  33.614  1.00  0.00    -0.022 A 
HETATM    8  C4  UNK     1      18.539  -0.733  34.877  1.00  0.00     0.059 A 
HETATM    9  C5  UNK     1      19.734  -2.072  33.098  1.00  0.00     0.051 C 
HETATM   10  S1  UNK     1      17.857   0.813  35.150  1.00  0.00    -0.067 SA
BRANCH   6  11
HETATM   11  C9  UNK     1      19.381   0.555  31.507  1.00  0.00     0.296 C 
HETATM   12  O4  UNK     1      20.546   0.352  31.132  1.00  0.00    -0.259 OA
BRANCH  11  13
HETATM   13  O2  UNK     1      18.402   1.001  30.647  1.00  0.00    -0.318 OA
BRANCH  13  14
HETATM   14  C19 UNK     1      18.753   1.104  29.263  1.00  0.00     0.174 C 
HETATM   15  C20 UNK     1      17.842   2.113  28.596  1.00  0.00     0.034 C 
ENDBRANCH  13  14
ENDBRANCH  11  13
ENDBRANCH   6  11
BRANCH   8  16
HETATM   16  C11 UNK     1      18.487  -1.700  35.928  1.00  0.00     0.163 C 
HETATM   17  O5  UNK     1      17.435  -2.060  36.511  1.00  0.00    -0.292 OA
HETATM   18  C16 UNK     1      19.776  -2.372  36.410  1.00  0.00     0.097 C 
ENDBRANCH   8  16
ENDBRANCH   2   5
BRANCH   3  19
HETATM   19  C6  UNK     1      17.868   4.984  33.200  1.00  0.00     0.108 A 
HETATM   20  C10 UNK     1      17.188   5.773  34.040  1.00  0.00     0.037 A 
HETATM   21  C7  UNK     1      16.556   6.990  33.553  1.00  0.00     0.001 A 
HETATM   22  C12 UNK     1      16.672   7.316  32.207  1.00  0.00     0.089 A 
HETATM   23  C14 UNK     1      15.837   7.843  34.394  1.00  0.00     0.038 A 
HETATM   24  O1  UNK     1      17.389   6.482  31.327  1.00  0.00    -0.274 OA
HETATM   25  C15 UNK     1      16.090   8.466  31.677  1.00  0.00     0.040 A 
HETATM   26  C13 UNK     1      18.005   5.311  31.762  1.00  0.00     0.304 A 
HETATM   27  O6  UNK     1      18.626   4.590  30.990  1.00  0.00    -0.259 OA
HETATM   28  C18 UNK     1      15.375   9.312  32.522  1.00  0.00     0.026 A 
HETATM   29  C17 UNK     1      15.248   9.001  33.877  1.00  0.00     0.035 A 
HETATM   30 Cl1  UNK     1      14.363  10.049  34.918  1.00  0.00    -0.084 Cl
ENDBRANCH   3  19
TORSDOF 6
ENDMDL
MODEL 6
REMARK VINA RESULT:      -8.0      2.468      4.845
REMARK  6 active torsions:
REMARK  status: ('A' for Active; 'I' for Inactive)
REMARK    1  A    between atoms: C19_28  and  O2_4 
REMARK    2  A    between atoms: C9_18  and  O2_4 
REMARK    3  A    between atoms: C3_12  and  N1_9 
REMARK       I    between atoms: C8_17  and  N1_9 
REMARK    4  A    between atoms: C2_11  and  C9_18 
REMARK    5  A    between atoms: C11_20  and  C4_13 
REMARK    6  A    between atoms: C6_15  and  C8_17 
ROOT
HETATM    1  O3  UNK     1      21.623  -2.123  34.521  1.00  0.00    -0.267 OA
HETATM    2  N1  UNK     1      19.311  -2.115  34.050  1.00  0.00    -0.316 N 
HETATM    3  C8  UNK     1      20.473  -2.522  34.690  1.00  0.00     0.262 C 
HETATM    4  H1  UNK     1      18.421  -2.528  34.315  1.00  0.00     0.169 HD
ENDROOT
BRANCH   2   5
HETATM    5  C3  UNK     1      19.218  -1.139  33.054  1.00  0.00     0.094 A 
HETATM    6  C2  UNK     1      18.751   0.135  33.107  1.00  0.00     0.080 A 
HETATM    7  C1  UNK     1      18.848   0.773  31.837  1.00  0.00    -0.022 A 
HETATM    8  C4  UNK     1      19.386  -0.060  30.880  1.00  0.00     0.059 A 
HETATM    9  C5  UNK     1      18.418   2.169  31.576  1.00  0.00     0.051 C 
HETATM   10  S1  UNK     1      19.773  -1.602  31.515  1.00  0.00    -0.067 SA
BRANCH   6  11
HETATM   11  C9  UNK     1      18.232   0.738  34.310  1.00  0.00     0.296 C 
HETATM   12  O4  UNK     1      18.929   1.028  35.294  1.00  0.00    -0.259 OA
BRANCH  11  13
HETATM   13  O2  UNK     1      16.874   0.970  34.279  1.00  0.00    -0.318 OA
BRANCH  13  14
HETATM   14  C19 UNK     1      16.044   0.045  34.990  1.00  0.00     0.174 C 
HETATM   15  C20 UNK     1      15.733   0.613  36.358  1.00  0.00     0.034 C 
ENDBRANCH  13  14
ENDBRANCH  11  13
ENDBRANCH   6  11
BRANCH   8  16
HETATM   16  C11 UNK     1      19.646   0.198  29.500  1.00  0.00     0.163 C 
HETATM   17  O5  UNK     1      19.009   1.024  28.799  1.00  0.00    -0.292 OA
HETATM   18  C16 UNK     1      20.766  -0.557  28.779  1.00  0.00     0.097 C 
ENDBRANCH   8  16
ENDBRANCH   2   5
BRANCH   3  19
HETATM   19  C6  UNK     1      20.210  -3.568  35.686  1.00  0.00     0.108 A 
HETATM   20  C10 UNK     1      20.383  -4.831  35.278  1.00  0.00     0.037 A 
HETATM   21  C7  UNK     1      20.147  -5.937  36.193  1.00  0.00     0.001 A 
HETATM   22  C12 UNK     1      19.739  -5.659  37.493  1.00  0.00     0.089 A 
HETATM   23  C14 UNK     1      20.315  -7.269  35.810  1.00  0.00     0.038 A 
HETATM   24  O1  UNK     1      19.558  -4.328  37.918  1.00  0.00    -0.274 OA
HETATM   25  C15 UNK     1      19.494  -6.672  38.418  1.00  0.00     0.040 A 
HETATM   26  C13 UNK     1      19.776  -3.249  37.065  1.00  0.00     0.304 A 
HETATM   27  O6  UNK     1      19.615  -2.094  37.443  1.00  0.00    -0.259 OA
HETATM   28  C18 UNK     1      19.665  -7.998  38.029  1.00  0.00     0.026 A 
HETATM   29  C17 UNK     1      20.075  -8.297  36.727  1.00  0.00     0.035 A 
HETATM   30 Cl1  UNK     1      20.285  -9.938  36.250  1.00  0.00    -0.084 Cl
ENDBRANCH   3  19
TORSDOF 6
ENDMDL
MODEL 7
REMARK VINA RESULT:      -7.9      7.394     10.828
REMARK  6 active torsions:
REMARK  status: ('A' for Active; 'I' for Inactive)
REMARK    1  A    between atoms: C19_28  and  O2_4 
REMARK    2  A    between atoms: C9_18  and  O2_4 
REMARK    3  A    between atoms: C3_12  and  N1_9 
REMARK       I    between atoms: C8_17  and  N1_9 
REMARK    4  A    between atoms: C2_11  and  C9_18 
REMARK    5  A    between atoms: C11_20  and  C4_13 
REMARK    6  A    between atoms: C6_15  and  C8_17 
ROOT
HETATM    1  O3  UNK     1      26.543  -8.875  39.614  1.00  0.00    -0.267 OA
HETATM    2  N1  UNK     1      27.133  -7.358  37.906  1.00  0.00    -0.316 N 
HETATM    3  C8  UNK     1      26.288  -7.973  38.819  1.00  0.00     0.262 C 
HETATM    4  H1  UNK     1      26.779  -6.605  37.323  1.00  0.00     0.169 HD
ENDROOT
BRANCH   2   5
HETATM    5  C3  UNK     1      28.484  -7.654  37.706  1.00  0.00     0.094 A 
HETATM    6  C2  UNK     1      29.602  -7.011  38.135  1.00  0.00     0.080 A 
HETATM    7  C1  UNK     1      30.781  -7.674  37.688  1.00  0.00    -0.022 A 
HETATM    8  C4  UNK     1      30.492  -8.793  36.937  1.00  0.00     0.059 A 
HETATM    9  C5  UNK     1      32.158  -7.213  37.995  1.00  0.00     0.051 C 
HETATM   10  S1  UNK     1      28.806  -9.039  36.774  1.00  0.00    -0.067 SA
BRANCH   6  11
HETATM   11  C9  UNK     1      29.567  -5.815  38.939  1.00  0.00     0.296 C 
HETATM   12  O4  UNK     1      28.715  -5.593  39.812  1.00  0.00    -0.259 OA
BRANCH  11  13
HETATM   13  O2  UNK     1      30.574  -4.919  38.654  1.00  0.00    -0.318 OA
BRANCH  13  14
HETATM   14  C19 UNK     1      30.304  -3.942  37.643  1.00  0.00     0.174 C 
HETATM   15  C20 UNK     1      31.560  -3.717  36.826  1.00  0.00     0.034 C 
ENDBRANCH  13  14
ENDBRANCH  11  13
ENDBRANCH   6  11
BRANCH   8  16
HETATM   16  C11 UNK     1      31.383  -9.719  36.314  1.00  0.00     0.163 C 
HETATM   17  O5  UNK     1      31.589 -10.890  36.718  1.00  0.00    -0.292 OA
HETATM   18  C16 UNK     1      32.165  -9.302  35.064  1.00  0.00     0.097 C 
ENDBRANCH   8  16
ENDBRANCH   2   5
BRANCH   3  19
HETATM   19  C6  UNK     1      24.930  -7.417  38.766  1.00  0.00     0.108 A 
HETATM   20  C10 UNK     1      23.932  -8.303  38.655  1.00  0.00     0.037 A 
HETATM   21  C7  UNK     1      22.551  -7.848  38.595  1.00  0.00     0.001 A 
HETATM   22  C12 UNK     1      22.289  -6.484  38.655  1.00  0.00     0.089 A 
HETATM   23  C14 UNK     1      21.480  -8.736  38.480  1.00  0.00     0.038 A 
HETATM   24  O1  UNK     1      23.343  -5.556  38.771  1.00  0.00    -0.274 OA
HETATM   25  C15 UNK     1      20.990  -5.983  38.601  1.00  0.00     0.040 A 
HETATM   26  C13 UNK     1      24.674  -5.961  38.831  1.00  0.00     0.304 A 
HETATM   27  O6  UNK     1      25.585  -5.147  38.931  1.00  0.00    -0.259 OA
HETATM   28  C18 UNK     1      19.926  -6.875  38.486  1.00  0.00     0.026 A 
HETATM   29  C17 UNK     1      20.170  -8.249  38.425  1.00  0.00     0.035 A 
HETATM   30 Cl1  UNK     1      18.852  -9.348  38.284  1.00  0.00    -0.084 Cl
ENDBRANCH   3  19
TORSDOF 6
ENDMDL
MODEL 8
REMARK VINA RESULT:      -7.8      7.986     13.170
REMARK  6 active torsions:
REMARK  status: ('A' for Active; 'I' for Inactive)
REMARK    1  A    between atoms: C19_28  and  O2_4 
REMARK    2  A    between atoms: C9_18  and  O2_4 
REMARK    3  A    between atoms: C3_12  and  N1_9 
REMARK       I    between atoms: C8_17  and  N1_9 
REMARK    4  A    between atoms: C2_11  and  C9_18 
REMARK    5  A    between atoms: C11_20  and  C4_13 
REMARK    6  A    between atoms: C6_15  and  C8_17 
ROOT
HETATM    1  O3  UNK     1      16.660   5.334  32.546  1.00  0.00    -0.267 OA
HETATM    2  N1  UNK     1      18.497   4.805  33.928  1.00  0.00    -0.316 N 
HETATM    3  C8  UNK     1      17.615   5.639  33.258  1.00  0.00     0.262 C 
HETATM    4  H1  UNK     1      19.233   5.209  34.501  1.00  0.00     0.169 HD
ENDROOT
BRANCH   2   5
HETATM    5  C3  UNK     1      18.473   3.407  33.925  1.00  0.00     0.094 A 
HETATM    6  C2  UNK     1      18.375   2.528  32.894  1.00  0.00     0.080 A 
HETATM    7  C1  UNK     1      18.390   1.182  33.361  1.00  0.00    -0.022 A 
HETATM    8  C4  UNK     1      18.498   1.113  34.733  1.00  0.00     0.059 A 
HETATM    9  C5  UNK     1      18.298  -0.004  32.474  1.00  0.00     0.051 C 
HETATM   10  S1  UNK     1      18.582   2.665  35.450  1.00  0.00    -0.067 SA
BRANCH   6  11
HETATM   11  C9  UNK     1      18.273   2.934  31.514  1.00  0.00     0.296 C 
HETATM   12  O4  UNK     1      17.351   2.591  30.759  1.00  0.00    -0.259 OA
BRANCH  11  13
HETATM   13  O2  UNK     1      19.301   3.748  31.092  1.00  0.00    -0.318 OA
BRANCH  13  14
HETATM   14  C19 UNK     1      19.017   4.642  30.011  1.00  0.00     0.174 C 
HETATM   15  C20 UNK     1      19.941   5.839  30.104  1.00  0.00     0.034 C 
ENDBRANCH  13  14
ENDBRANCH  11  13
ENDBRANCH   6  11
BRANCH   8  16
HETATM   16  C11 UNK     1      18.545  -0.037  35.579  1.00  0.00     0.163 C 
HETATM   17  O5  UNK     1      19.536  -0.802  35.684  1.00  0.00    -0.292 OA
HETATM   18  C16 UNK     1      17.331  -0.404  36.437  1.00  0.00     0.097 C 
ENDBRANCH   8  16
ENDBRANCH   2   5
BRANCH   3  19
HETATM   19  C6  UNK     1      17.929   7.057  33.478  1.00  0.00     0.108 A 
HETATM   20  C10 UNK     1      16.883   7.880  33.620  1.00  0.00     0.037 A 
HETATM   21  C7  UNK     1      17.093   9.302  33.842  1.00  0.00     0.001 A 
HETATM   22  C12 UNK     1      18.394   9.788  33.904  1.00  0.00     0.089 A 
HETATM   23  C14 UNK     1      16.032  10.196  33.995  1.00  0.00     0.038 A 
HETATM   24  O1  UNK     1      19.492   8.917  33.754  1.00  0.00    -0.274 OA
HETATM   25  C15 UNK     1      18.665  11.139  34.112  1.00  0.00     0.040 A 
HETATM   26  C13 UNK     1      19.323   7.552  33.540  1.00  0.00     0.304 A 
HETATM   27  O6  UNK     1      20.284   6.801  33.410  1.00  0.00    -0.259 OA
HETATM   28  C18 UNK     1      17.600  12.024  34.265  1.00  0.00     0.026 A 
HETATM   29  C17 UNK     1      16.286  11.555  34.206  1.00  0.00     0.035 A 
HETATM   30 Cl1  UNK     1      14.974  12.654  34.395  1.00  0.00    -0.084 Cl
ENDBRANCH   3  19
TORSDOF 6
ENDMDL
MODEL 9
REMARK VINA RESULT:      -7.8     29.822     31.753
REMARK  6 active torsions:
REMARK  status: ('A' for Active; 'I' for Inactive)
REMARK    1  A    between atoms: C19_28  and  O2_4 
REMARK    2  A    between atoms: C9_18  and  O2_4 
REMARK    3  A    between atoms: C3_12  and  N1_9 
REMARK       I    between atoms: C8_17  and  N1_9 
REMARK    4  A    between atoms: C2_11  and  C9_18 
REMARK    5  A    between atoms: C11_20  and  C4_13 
REMARK    6  A    between atoms: C6_15  and  C8_17 
ROOT
HETATM    1  O3  UNK     1      13.127   7.992  10.892  1.00  0.00    -0.267 OA
HETATM    2  N1  UNK     1      12.433   8.580   8.715  1.00  0.00    -0.316 N 
HETATM    3  C8  UNK     1      13.308   8.503   9.789  1.00  0.00     0.262 C 
HETATM    4  H1  UNK     1      12.736   9.021   7.851  1.00  0.00     0.169 HD
ENDROOT
BRANCH   2   5
HETATM    5  C3  UNK     1      11.131   8.073   8.675  1.00  0.00     0.094 A 
HETATM    6  C2  UNK     1      10.602   7.053   7.949  1.00  0.00     0.080 A 
HETATM    7  C1  UNK     1       9.216   6.885   8.231  1.00  0.00    -0.022 A 
HETATM    8  C4  UNK     1       8.764   7.794   9.163  1.00  0.00     0.059 A 
HETATM    9  C5  UNK     1       8.360   5.853   7.595  1.00  0.00     0.051 C 
HETATM   10  S1  UNK     1      10.008   8.843   9.693  1.00  0.00    -0.067 SA
BRANCH   6  11
HETATM   11  C9  UNK     1      11.370   6.261   7.021  1.00  0.00     0.296 C 
HETATM   12  O4  UNK     1      11.764   6.674   5.921  1.00  0.00    -0.259 OA
BRANCH  11  13
HETATM   13  O2  UNK     1      11.635   4.983   7.463  1.00  0.00    -0.318 OA
BRANCH  13  14
HETATM   14  C19 UNK     1      12.423   4.859   8.651  1.00  0.00     0.174 C 
HETATM   15  C20 UNK     1      13.853   5.247   8.338  1.00  0.00     0.034 C 
ENDBRANCH  13  14
ENDBRANCH  11  13
ENDBRANCH   6  11
BRANCH   8  16
HETATM   16  C11 UNK     1       7.453   7.955   9.708  1.00  0.00     0.163 C 
HETATM   17  O5  UNK     1       6.410   7.471   9.204  1.00  0.00    -0.292 OA
HETATM   18  C16 UNK     1       7.255   8.764  10.993  1.00  0.00     0.097 C 
ENDBRANCH   8  16
ENDBRANCH   2   5
BRANCH   3  19
HETATM   19  C6  UNK     1      14.597   9.140   9.490  1.00  0.00     0.108 A 
HETATM   20  C10 UNK     1      14.552  10.236   8.723  1.00  0.00     0.037 A 
HETATM   21  C7  UNK     1      15.778  10.936   8.371  1.00  0.00     0.001 A 
HETATM   22  C12 UNK     1      16.991  10.448   8.844  1.00  0.00     0.089 A 
HETATM   23  C14 UNK     1      15.778  12.083   7.575  1.00  0.00     0.038 A 
HETATM   24  O1  UNK     1      17.032   9.293   9.651  1.00  0.00    -0.274 OA
HETATM   25  C15 UNK     1      18.201  11.070   8.543  1.00  0.00     0.040 A 
HETATM   26  C13 UNK     1      15.877   8.602  10.004  1.00  0.00     0.304 A 
HETATM   27  O6  UNK     1      15.922   7.597  10.706  1.00  0.00    -0.259 OA
HETATM   28  C18 UNK     1      18.192  12.214   7.748  1.00  0.00     0.026 A 
HETATM   29  C17 UNK     1      16.983  12.719   7.264  1.00  0.00     0.035 A 
HETATM   30 Cl1  UNK     1      16.978  14.134   6.282  1.00  0.00    -0.084 Cl
ENDBRANCH   3  19
TORSDOF 6
ENDMDL
MODEL 10
REMARK VINA RESULT:      -7.7      7.047     10.363
REMARK  6 active torsions:
REMARK  status: ('A' for Active; 'I' for Inactive)
REMARK    1  A    between atoms: C19_28  and  O2_4 
REMARK    2  A    between atoms: C9_18  and  O2_4 
REMARK    3  A    between atoms: C3_12  and  N1_9 
REMARK       I    between atoms: C8_17  and  N1_9 
REMARK    4  A    between atoms: C2_11  and  C9_18 
REMARK    5  A    between atoms: C11_20  and  C4_13 
REMARK    6  A    between atoms: C6_15  and  C8_17 
ROOT
HETATM    1  O3  UNK     1      18.133   5.530  31.169  1.00  0.00    -0.267 OA
HETATM    2  N1  UNK     1      17.439   5.674  33.419  1.00  0.00    -0.316 N 
HETATM    3  C8  UNK     1      17.895   5.041  32.272  1.00  0.00     0.262 C 
HETATM    4  H1  UNK     1      17.307   5.135  34.271  1.00  0.00     0.169 HD
ENDROOT
BRANCH   2   5
HETATM    5  C3  UNK     1      17.150   7.035  33.550  1.00  0.00     0.094 A 
HETATM    6  C2  UNK     1      17.969   8.092  33.789  1.00  0.00     0.080 A 
HETATM    7  C1  UNK     1      17.234   9.312  33.844  1.00  0.00    -0.022 A 
HETATM    8  C4  UNK     1      15.885   9.111  33.644  1.00  0.00     0.059 A 
HETATM    9  C5  UNK     1      17.848  10.640  34.089  1.00  0.00     0.051 C 
HETATM   10  S1  UNK     1      15.512   7.460  33.390  1.00  0.00    -0.067 SA
BRANCH   6  11
HETATM   11  C9  UNK     1      19.395   7.966  33.958  1.00  0.00     0.296 C 
HETATM   12  O4  UNK     1      19.998   8.280  34.996  1.00  0.00    -0.259 OA
BRANCH  11  13
HETATM   13  O2  UNK     1      20.048   7.462  32.855  1.00  0.00    -0.318 OA
BRANCH  13  14
HETATM   14  C19 UNK     1      21.012   6.430  33.089  1.00  0.00     0.174 C 
HETATM   15  C20 UNK     1      21.582   5.977  31.761  1.00  0.00     0.034 C 
ENDBRANCH  13  14
ENDBRANCH  11  13
ENDBRANCH   6  11
BRANCH   8  16
HETATM   16  C11 UNK     1      14.822  10.065  33.623  1.00  0.00     0.163 C 
HETATM   17  O5  UNK     1      14.361  10.594  32.582  1.00  0.00    -0.292 OA
HETATM   18  C16 UNK     1      14.167  10.506  34.936  1.00  0.00     0.097 C 
ENDBRANCH   8  16
ENDBRANCH   2   5
BRANCH   3  19
HETATM   19  C6  UNK     1      18.097   3.603  32.485  1.00  0.00     0.108 A 
HETATM   20  C10 UNK     1      18.030   3.177  33.752  1.00  0.00     0.037 A 
HETATM   21  C7  UNK     1      18.218   1.768  34.064  1.00  0.00     0.001 A 
HETATM   22  C12 UNK     1      18.465   0.877  33.025  1.00  0.00     0.089 A 
HETATM   23  C14 UNK     1      18.156   1.280  35.371  1.00  0.00     0.038 A 
HETATM   24  O1  UNK     1      18.535   1.330  31.693  1.00  0.00    -0.274 OA
HETATM   25  C15 UNK     1      18.655  -0.484  33.256  1.00  0.00     0.040 A 
HETATM   26  C13 UNK     1      18.360   2.672  31.364  1.00  0.00     0.304 A 
HETATM   27  O6  UNK     1      18.422   3.058  30.202  1.00  0.00    -0.259 OA
HETATM   28  C18 UNK     1      18.592  -0.963  34.562  1.00  0.00     0.026 A 
HETATM   29  C17 UNK     1      18.343  -0.083  35.618  1.00  0.00     0.035 A 
HETATM   30 Cl1  UNK     1      18.266  -0.680  37.231  1.00  0.00    -0.084 Cl
ENDBRANCH   3  19
TORSDOF 6
ENDMDL
