MODEL 1
REMARK VINA RESULT:      -8.0      0.000      0.000
REMARK  4 active torsions:
REMARK  status: ('A' for Active; 'I' for Inactive)
REMARK    1  A    between atoms: C4_9  and  O2_2 
REMARK    2  A    between atoms: C9_14  and  O3_3 
REMARK    3  A    between atoms: C13_18  and  O5_5 
REMARK    4  A    between atoms: C2_7  and  C5_10 
ROOT
HETATM    1  O1  UNK     1      18.354   4.133  34.423  1.00  0.00    -0.306 OA
HETATM    2  O4  UNK     1      18.270   2.186  30.844  1.00  0.00    -0.284 OA
HETATM    3  C1  UNK     1      18.293   2.038  33.198  1.00  0.00     0.051 A 
HETATM    4  C2  UNK     1      18.341   4.826  33.222  1.00  0.00     0.123 A 
HETATM    5  C3  UNK     1      18.325   2.762  34.387  1.00  0.00     0.093 A 
HETATM    6  C4  UNK     1      18.320   4.248  32.008  1.00  0.00     0.154 A 
HETATM    7  C6  UNK     1      18.291   2.767  31.921  1.00  0.00     0.221 A 
HETATM    8  C7  UNK     1      18.329   2.094  35.612  1.00  0.00     0.075 A 
HETATM    9  C8  UNK     1      18.264   0.641  33.223  1.00  0.00     0.021 A 
HETATM   10  C9  UNK     1      18.301   0.700  35.641  1.00  0.00     0.070 A 
HETATM   11  C11 UNK     1      18.269  -0.026  34.449  1.00  0.00     0.038 A 
ENDROOT
BRANCH   4  12
HETATM   12  C5  UNK     1      18.375   6.288  33.404  1.00  0.00     0.003 A 
HETATM   13  C10 UNK     1      17.320   7.076  32.942  1.00  0.00     0.051 A 
HETATM   14  C13 UNK     1      17.355   8.459  33.113  1.00  0.00     0.069 A 
HETATM   15  C15 UNK     1      18.445   9.057  33.746  1.00  0.00     0.037 A 
HETATM   16  C14 UNK     1      19.500   8.270  34.208  1.00  0.00     0.004 A 
HETATM   17  C12 UNK     1      19.465   6.886  34.038  1.00  0.00     0.014 A 
BRANCH  14  18
HETATM   18  O5  UNK     1      16.326   9.228  32.661  1.00  0.00    -0.356 OA
HETATM   19  C18 UNK     1      15.013   8.881  33.101  1.00  0.00     0.210 C 
ENDBRANCH  14  18
ENDBRANCH   4  12
BRANCH   6  20
HETATM   20  O2  UNK     1      18.341   4.966  30.832  1.00  0.00    -0.350 OA
HETATM   21  C16 UNK     1      19.672   5.245  30.438  1.00  0.00     0.210 C 
ENDBRANCH   6  20
BRANCH  10  22
HETATM   22  O3  UNK     1      18.306   0.043  36.834  1.00  0.00    -0.356 OA
HETATM   23  C17 UNK     1      17.632   0.671  37.923  1.00  0.00     0.210 C 
ENDBRANCH  10  22
TORSDOF 4
ENDMDL
MODEL 2
REMARK VINA RESULT:      -7.8     24.010     26.481
REMARK  4 active torsions:
REMARK  status: ('A' for Active; 'I' for Inactive)
REMARK    1  A    between atoms: C4_9  and  O2_2 
REMARK    2  A    between atoms: C9_14  and  O3_3 
REMARK    3  A    between atoms: C13_18  and  O5_5 
REMARK    4  A    between atoms: C2_7  and  C5_10 
ROOT
HETATM    1  O1  UNK     1      12.951   8.416   8.077  1.00  0.00    -0.306 OA
HETATM    2  O4  UNK     1      14.725   5.820  10.669  1.00  0.00    -0.284 OA
HETATM    3  C1  UNK     1      14.816   7.887   9.539  1.00  0.00     0.051 A 
HETATM    4  C2  UNK     1      12.354   7.212   8.417  1.00  0.00     0.123 A 
HETATM    5  C3  UNK     1      14.160   8.730   8.644  1.00  0.00     0.093 A 
HETATM    6  C4  UNK     1      12.885   6.308   9.259  1.00  0.00     0.154 A 
HETATM    7  C6  UNK     1      14.193   6.604   9.894  1.00  0.00     0.221 A 
HETATM    8  C7  UNK     1      14.730   9.952   8.289  1.00  0.00     0.075 A 
HETATM    9  C8  UNK     1      16.047   8.260  10.086  1.00  0.00     0.021 A 
HETATM   10  C9  UNK     1      15.959  10.327   8.833  1.00  0.00     0.070 A 
HETATM   11  C11 UNK     1      16.616   9.483   9.729  1.00  0.00     0.038 A 
ENDROOT
BRANCH   4  12
HETATM   12  C5  UNK     1      11.064   7.000   7.738  1.00  0.00     0.003 A 
HETATM   13  C10 UNK     1       9.870   7.119   8.450  1.00  0.00     0.051 A 
HETATM   14  C13 UNK     1       8.649   6.917   7.806  1.00  0.00     0.069 A 
HETATM   15  C15 UNK     1       8.622   6.595   6.449  1.00  0.00     0.037 A 
HETATM   16  C14 UNK     1       9.814   6.475   5.737  1.00  0.00     0.004 A 
HETATM   17  C12 UNK     1      11.035   6.678   6.380  1.00  0.00     0.014 A 
BRANCH  14  18
HETATM   18  O5  UNK     1       7.485   7.032   8.502  1.00  0.00    -0.356 OA
HETATM   19  C18 UNK     1       7.584   7.391   9.880  1.00  0.00     0.210 C 
ENDBRANCH  14  18
ENDBRANCH   4  12
BRANCH   6  20
HETATM   20  O2  UNK     1      12.281   5.104   9.551  1.00  0.00    -0.350 OA
HETATM   21  C16 UNK     1      12.524   4.158   8.526  1.00  0.00     0.210 C 
ENDBRANCH   6  20
BRANCH  10  22
HETATM   22  O3  UNK     1      16.520  11.520   8.489  1.00  0.00    -0.356 OA
HETATM   23  C17 UNK     1      15.872  12.271   7.464  1.00  0.00     0.210 C 
ENDBRANCH  10  22
TORSDOF 4
ENDMDL
MODEL 3
REMARK VINA RESULT:      -7.6      1.717      6.905
REMARK  4 active torsions:
REMARK  status: ('A' for Active; 'I' for Inactive)
REMARK    1  A    between atoms: C4_9  and  O2_2 
REMARK    2  A    between atoms: C9_14  and  O3_3 
REMARK    3  A    between atoms: C13_18  and  O5_5 
REMARK    4  A    between atoms: C2_7  and  C5_10 
ROOT
HETATM    1  O1  UNK     1      17.996   3.196  33.762  1.00  0.00    -0.306 OA
HETATM    2  O4  UNK     1      18.928   2.700  29.826  1.00  0.00    -0.284 OA
HETATM    3  C1  UNK     1      18.523   4.188  31.610  1.00  0.00     0.051 A 
HETATM    4  C2  UNK     1      18.127   1.934  33.203  1.00  0.00     0.123 A 
HETATM    5  C3  UNK     1      18.199   4.290  32.961  1.00  0.00     0.093 A 
HETATM    6  C4  UNK     1      18.426   1.698  31.913  1.00  0.00     0.154 A 
HETATM    7  C6  UNK     1      18.652   2.853  31.009  1.00  0.00     0.221 A 
HETATM    8  C7  UNK     1      18.069   5.546  33.555  1.00  0.00     0.075 A 
HETATM    9  C8  UNK     1      18.719   5.340  30.843  1.00  0.00     0.021 A 
HETATM   10  C9  UNK     1      18.263   6.697  32.792  1.00  0.00     0.070 A 
HETATM   11  C11 UNK     1      18.588   6.594  31.438  1.00  0.00     0.038 A 
ENDROOT
BRANCH   4  12
HETATM   12  C5  UNK     1      17.882   0.850  34.171  1.00  0.00     0.003 A 
HETATM   13  C10 UNK     1      18.952   0.130  34.701  1.00  0.00     0.051 A 
HETATM   14  C13 UNK     1      18.719  -0.897  35.616  1.00  0.00     0.069 A 
HETATM   15  C15 UNK     1      17.413  -1.204  36.001  1.00  0.00     0.037 A 
HETATM   16  C14 UNK     1      16.343  -0.485  35.471  1.00  0.00     0.004 A 
HETATM   17  C12 UNK     1      16.576   0.542  34.556  1.00  0.00     0.014 A 
BRANCH  14  18
HETATM   18  O5  UNK     1      19.763  -1.601  36.132  1.00  0.00    -0.356 OA
HETATM   19  C18 UNK     1      19.447  -2.746  36.923  1.00  0.00     0.210 C 
ENDBRANCH  14  18
ENDBRANCH   4  12
BRANCH   6  20
HETATM   20  O2  UNK     1      18.517   0.430  31.380  1.00  0.00    -0.350 OA
HETATM   21  C16 UNK     1      19.867   0.083  31.137  1.00  0.00     0.210 C 
ENDBRANCH   6  20
BRANCH  10  22
HETATM   22  O3  UNK     1      18.137   7.925  33.368  1.00  0.00    -0.356 OA
HETATM   23  C17 UNK     1      17.715   7.963  34.729  1.00  0.00     0.210 C 
ENDBRANCH  10  22
TORSDOF 4
ENDMDL
MODEL 4
REMARK VINA RESULT:      -7.6     23.657     26.299
REMARK  4 active torsions:
REMARK  status: ('A' for Active; 'I' for Inactive)
REMARK    1  A    between atoms: C4_9  and  O2_2 
REMARK    2  A    between atoms: C9_14  and  O3_3 
REMARK    3  A    between atoms: C13_18  and  O5_5 
REMARK    4  A    between atoms: C2_7  and  C5_10 
ROOT
HETATM    1  O1  UNK     1      13.729   8.934   8.122  1.00  0.00    -0.306 OA
HETATM    2  O4  UNK     1      15.462   7.204  11.380  1.00  0.00    -0.284 OA
HETATM    3  C1  UNK     1      15.467   8.971   9.817  1.00  0.00     0.051 A 
HETATM    4  C2  UNK     1      13.223   7.770   8.678  1.00  0.00     0.123 A 
HETATM    5  C3  UNK     1      14.831   9.510   8.701  1.00  0.00     0.093 A 
HETATM    6  C4  UNK     1      13.748   7.144   9.746  1.00  0.00     0.154 A 
HETATM    7  C6  UNK     1      14.941   7.729  10.404  1.00  0.00     0.221 A 
HETATM    8  C7  UNK     1      15.311  10.686   8.125  1.00  0.00     0.075 A 
HETATM    9  C8  UNK     1      16.587   9.602  10.365  1.00  0.00     0.021 A 
HETATM   10  C9  UNK     1      16.429  11.319   8.669  1.00  0.00     0.070 A 
HETATM   11  C11 UNK     1      17.066  10.778   9.786  1.00  0.00     0.038 A 
ENDROOT
BRANCH   4  12
HETATM   12  C5  UNK     1      12.042   7.258   7.960  1.00  0.00     0.003 A 
HETATM   13  C10 UNK     1      10.767   7.428   8.499  1.00  0.00     0.051 A 
HETATM   14  C13 UNK     1       9.650   6.942   7.819  1.00  0.00     0.069 A 
HETATM   15  C15 UNK     1       9.809   6.285   6.599  1.00  0.00     0.037 A 
HETATM   16  C14 UNK     1      11.083   6.114   6.059  1.00  0.00     0.004 A 
HETATM   17  C12 UNK     1      12.200   6.601   6.739  1.00  0.00     0.014 A 
BRANCH  14  18
HETATM   18  O5  UNK     1       8.406   7.106   8.347  1.00  0.00    -0.356 OA
HETATM   19  C18 UNK     1       8.298   7.920   9.514  1.00  0.00     0.210 C 
ENDBRANCH  14  18
ENDBRANCH   4  12
BRANCH   6  20
HETATM   20  O2  UNK     1      13.239   5.968  10.255  1.00  0.00    -0.350 OA
HETATM   21  C16 UNK     1      13.883   4.849   9.674  1.00  0.00     0.210 C 
ENDBRANCH   6  20
BRANCH  10  22
HETATM   22  O3  UNK     1      16.901  12.467   8.108  1.00  0.00    -0.356 OA
HETATM   23  C17 UNK     1      17.809  12.332   7.017  1.00  0.00     0.210 C 
ENDBRANCH  10  22
TORSDOF 4
ENDMDL
MODEL 5
REMARK VINA RESULT:      -7.5      1.432      2.069
REMARK  4 active torsions:
REMARK  status: ('A' for Active; 'I' for Inactive)
REMARK    1  A    between atoms: C4_9  and  O2_2 
REMARK    2  A    between atoms: C9_14  and  O3_3 
REMARK    3  A    between atoms: C13_18  and  O5_5 
REMARK    4  A    between atoms: C2_7  and  C5_10 
ROOT
HETATM    1  O1  UNK     1      17.961   3.787  33.377  1.00  0.00    -0.306 OA
HETATM    2  O4  UNK     1      19.133   2.451  29.710  1.00  0.00    -0.284 OA
HETATM    3  C1  UNK     1      18.607   1.933  31.950  1.00  0.00     0.051 A 
HETATM    4  C2  UNK     1      18.109   4.654  32.305  1.00  0.00     0.123 A 
HETATM    5  C3  UNK     1      18.206   2.453  33.179  1.00  0.00     0.093 A 
HETATM    6  C4  UNK     1      18.498   4.282  31.073  1.00  0.00     0.154 A 
HETATM    7  C6  UNK     1      18.777   2.848  30.812  1.00  0.00     0.221 A 
HETATM    8  C7  UNK     1      18.040   1.606  34.275  1.00  0.00     0.075 A 
HETATM    9  C8  UNK     1      18.843   0.563  31.807  1.00  0.00     0.021 A 
HETATM   10  C9  UNK     1      18.275   0.238  34.135  1.00  0.00     0.070 A 
HETATM   11  C11 UNK     1      18.676  -0.283  32.904  1.00  0.00     0.038 A 
ENDROOT
BRANCH   4  12
HETATM   12  C5  UNK     1      17.816   6.054  32.655  1.00  0.00     0.003 A 
HETATM   13  C10 UNK     1      18.774   6.827  33.312  1.00  0.00     0.051 A 
HETATM   14  C13 UNK     1      18.495   8.153  33.644  1.00  0.00     0.069 A 
HETATM   15  C15 UNK     1      17.256   8.706  33.320  1.00  0.00     0.037 A 
HETATM   16  C14 UNK     1      16.297   7.935  32.665  1.00  0.00     0.004 A 
HETATM   17  C12 UNK     1      16.577   6.609  32.332  1.00  0.00     0.014 A 
BRANCH  14  18
HETATM   18  O5  UNK     1      19.429   8.906  34.286  1.00  0.00    -0.356 OA
HETATM   19  C18 UNK     1      19.280  10.324  34.217  1.00  0.00     0.210 C 
ENDBRANCH  14  18
ENDBRANCH   4  12
BRANCH   6  20
HETATM   20  O2  UNK     1      18.668   5.174  30.036  1.00  0.00    -0.350 OA
HETATM   21  C16 UNK     1      19.972   5.723  30.054  1.00  0.00     0.210 C 
ENDBRANCH   6  20
BRANCH  10  22
HETATM   22  O3  UNK     1      18.113  -0.593  35.203  1.00  0.00    -0.356 OA
HETATM   23  C17 UNK     1      16.799  -1.091  35.445  1.00  0.00     0.210 C 
ENDBRANCH  10  22
TORSDOF 4
ENDMDL
MODEL 6
REMARK VINA RESULT:      -7.4      4.205      6.869
REMARK  4 active torsions:
REMARK  status: ('A' for Active; 'I' for Inactive)
REMARK    1  A    between atoms: C4_9  and  O2_2 
REMARK    2  A    between atoms: C9_14  and  O3_3 
REMARK    3  A    between atoms: C13_18  and  O5_5 
REMARK    4  A    between atoms: C2_7  and  C5_10 
ROOT
HETATM    1  O1  UNK     1      19.950  -1.999  33.649  1.00  0.00    -0.306 OA
HETATM    2  O4  UNK     1      17.426   0.400  35.765  1.00  0.00    -0.284 OA
HETATM    3  C1  UNK     1      18.912  -1.432  35.768  1.00  0.00     0.051 A 
HETATM    4  C2  UNK     1      19.279  -0.946  33.047  1.00  0.00     0.123 A 
HETATM    5  C3  UNK     1      19.759  -2.217  34.989  1.00  0.00     0.093 A 
HETATM    6  C4  UNK     1      18.429  -0.121  33.683  1.00  0.00     0.154 A 
HETATM    7  C6  UNK     1      18.189  -0.320  35.133  1.00  0.00     0.221 A 
HETATM    8  C7  UNK     1      20.455  -3.278  35.567  1.00  0.00     0.075 A 
HETATM    9  C8  UNK     1      18.756  -1.701  37.131  1.00  0.00     0.021 A 
HETATM   10  C9  UNK     1      20.301  -3.550  36.926  1.00  0.00     0.070 A 
HETATM   11  C11 UNK     1      19.453  -2.763  37.707  1.00  0.00     0.038 A 
ENDROOT
BRANCH   4  12
HETATM   12  C5  UNK     1      19.574  -0.825  31.608  1.00  0.00     0.003 A 
HETATM   13  C10 UNK     1      19.285   0.360  30.932  1.00  0.00     0.051 A 
HETATM   14  C13 UNK     1      19.563   0.473  29.570  1.00  0.00     0.069 A 
HETATM   15  C15 UNK     1      20.130  -0.602  28.882  1.00  0.00     0.037 A 
HETATM   16  C14 UNK     1      20.418  -1.787  29.558  1.00  0.00     0.004 A 
HETATM   17  C12 UNK     1      20.141  -1.899  30.920  1.00  0.00     0.014 A 
BRANCH  14  18
HETATM   18  O5  UNK     1      19.279   1.629  28.909  1.00  0.00    -0.356 OA
HETATM   19  C18 UNK     1      17.901   1.937  28.702  1.00  0.00     0.210 C 
ENDBRANCH  14  18
ENDBRANCH   4  12
BRANCH   6  20
HETATM   20  O2  UNK     1      17.751   0.898  33.048  1.00  0.00    -0.350 OA
HETATM   21  C16 UNK     1      18.177   2.159  33.527  1.00  0.00     0.210 C 
ENDBRANCH   6  20
BRANCH  10  22
HETATM   22  O3  UNK     1      20.979  -4.586  37.494  1.00  0.00    -0.356 OA
HETATM   23  C17 UNK     1      20.218  -5.731  37.873  1.00  0.00     0.210 C 
ENDBRANCH  10  22
TORSDOF 4
ENDMDL
MODEL 7
REMARK VINA RESULT:      -7.2     15.317     18.680
REMARK  4 active torsions:
REMARK  status: ('A' for Active; 'I' for Inactive)
REMARK    1  A    between atoms: C4_9  and  O2_2 
REMARK    2  A    between atoms: C9_14  and  O3_3 
REMARK    3  A    between atoms: C13_18  and  O5_5 
REMARK    4  A    between atoms: C2_7  and  C5_10 
ROOT
HETATM    1  O1  UNK     1      19.030  -1.154  17.581  1.00  0.00    -0.306 OA
HETATM    2  O4  UNK     1      19.360   2.050  15.085  1.00  0.00    -0.284 OA
HETATM    3  C1  UNK     1      19.155   1.253  17.296  1.00  0.00     0.051 A 
HETATM    4  C2  UNK     1      19.144  -1.315  16.209  1.00  0.00     0.123 A 
HETATM    5  C3  UNK     1      19.043   0.118  18.094  1.00  0.00     0.093 A 
HETATM    6  C4  UNK     1      19.250  -0.303  15.329  1.00  0.00     0.154 A 
HETATM    7  C6  UNK     1      19.265   1.090  15.838  1.00  0.00     0.221 A 
HETATM    8  C7  UNK     1      18.936   0.246  19.479  1.00  0.00     0.075 A 
HETATM    9  C8  UNK     1      19.163   2.525  17.875  1.00  0.00     0.021 A 
HETATM   10  C9  UNK     1      18.942   1.514  20.061  1.00  0.00     0.070 A 
HETATM   11  C11 UNK     1      19.055   2.651  19.260  1.00  0.00     0.038 A 
ENDROOT
BRANCH   4  12
HETATM   12  C5  UNK     1      19.116  -2.728  15.793  1.00  0.00     0.003 A 
HETATM   13  C10 UNK     1      20.263  -3.514  15.905  1.00  0.00     0.051 A 
HETATM   14  C13 UNK     1      20.236  -4.851  15.510  1.00  0.00     0.069 A 
HETATM   15  C15 UNK     1      19.060  -5.404  15.001  1.00  0.00     0.037 A 
HETATM   16  C14 UNK     1      17.913  -4.619  14.888  1.00  0.00     0.004 A 
HETATM   17  C12 UNK     1      17.940  -3.282  15.284  1.00  0.00     0.014 A 
BRANCH  14  18
HETATM   18  O5  UNK     1      21.356  -5.617  15.618  1.00  0.00    -0.356 OA
HETATM   19  C18 UNK     1      22.445  -5.073  16.363  1.00  0.00     0.210 C 
ENDBRANCH  14  18
ENDBRANCH   4  12
BRANCH   6  20
HETATM   20  O2  UNK     1      19.328  -0.496  13.966  1.00  0.00    -0.350 OA
HETATM   21  C16 UNK     1      20.647  -0.836  13.582  1.00  0.00     0.210 C 
ENDBRANCH   6  20
BRANCH  10  22
HETATM   22  O3  UNK     1      18.838   1.643  21.412  1.00  0.00    -0.356 OA
HETATM   23  C17 UNK     1      19.952   2.209  22.099  1.00  0.00     0.210 C 
ENDBRANCH  10  22
TORSDOF 4
ENDMDL
MODEL 8
REMARK VINA RESULT:      -7.2     24.412     26.290
REMARK  4 active torsions:
REMARK  status: ('A' for Active; 'I' for Inactive)
REMARK    1  A    between atoms: C4_9  and  O2_2 
REMARK    2  A    between atoms: C9_14  and  O3_3 
REMARK    3  A    between atoms: C13_18  and  O5_5 
REMARK    4  A    between atoms: C2_7  and  C5_10 
ROOT
HETATM    1  O1  UNK     1       7.839   5.153   9.554  1.00  0.00    -0.306 OA
HETATM    2  O4  UNK     1       6.653   8.601  11.373  1.00  0.00    -0.284 OA
HETATM    3  C1  UNK     1       6.482   6.252  11.240  1.00  0.00     0.051 A 
HETATM    4  C2  UNK     1       8.349   6.384   9.173  1.00  0.00     0.123 A 
HETATM    5  C3  UNK     1       6.926   5.111  10.576  1.00  0.00     0.093 A 
HETATM    6  C4  UNK     1       7.998   7.559   9.725  1.00  0.00     0.154 A 
HETATM    7  C6  UNK     1       7.010   7.563  10.832  1.00  0.00     0.221 A 
HETATM    8  C7  UNK     1       6.439   3.856  10.943  1.00  0.00     0.075 A 
HETATM    9  C8  UNK     1       5.549   6.149  12.275  1.00  0.00     0.021 A 
HETATM   10  C9  UNK     1       5.507   3.749  11.976  1.00  0.00     0.070 A 
HETATM   11  C11 UNK     1       5.063   4.893  12.640  1.00  0.00     0.038 A 
ENDROOT
BRANCH   4  12
HETATM   12  C5  UNK     1       9.317   6.286   8.067  1.00  0.00     0.003 A 
HETATM   13  C10 UNK     1      10.674   6.101   8.338  1.00  0.00     0.051 A 
HETATM   14  C13 UNK     1      11.589   6.009   7.290  1.00  0.00     0.069 A 
HETATM   15  C15 UNK     1      11.149   6.104   5.969  1.00  0.00     0.037 A 
HETATM   16  C14 UNK     1       9.795   6.290   5.697  1.00  0.00     0.004 A 
HETATM   17  C12 UNK     1       8.879   6.380   6.745  1.00  0.00     0.014 A 
BRANCH  14  18
HETATM   18  O5  UNK     1      12.912   5.830   7.554  1.00  0.00    -0.356 OA
HETATM   19  C18 UNK     1      13.246   4.997   8.664  1.00  0.00     0.210 C 
ENDBRANCH  14  18
ENDBRANCH   4  12
BRANCH   6  20
HETATM   20  O2  UNK     1       8.498   8.771   9.299  1.00  0.00    -0.350 OA
HETATM   21  C16 UNK     1       9.576   9.184  10.118  1.00  0.00     0.210 C 
ENDBRANCH   6  20
BRANCH  10  22
HETATM   22  O3  UNK     1       5.029   2.526  12.337  1.00  0.00    -0.356 OA
HETATM   23  C17 UNK     1       4.927   2.255  13.733  1.00  0.00     0.210 C 
ENDBRANCH  10  22
TORSDOF 4
ENDMDL
MODEL 9
REMARK VINA RESULT:      -7.1     15.644     18.896
REMARK  4 active torsions:
REMARK  status: ('A' for Active; 'I' for Inactive)
REMARK    1  A    between atoms: C4_9  and  O2_2 
REMARK    2  A    between atoms: C9_14  and  O3_3 
REMARK    3  A    between atoms: C13_18  and  O5_5 
REMARK    4  A    between atoms: C2_7  and  C5_10 
ROOT
HETATM    1  O1  UNK     1      19.061  -1.449  17.495  1.00  0.00    -0.306 OA
HETATM    2  O4  UNK     1      19.392   1.698  14.927  1.00  0.00    -0.284 OA
HETATM    3  C1  UNK     1      19.154   0.952  17.152  1.00  0.00     0.051 A 
HETATM    4  C2  UNK     1      19.205  -1.642  16.130  1.00  0.00     0.123 A 
HETATM    5  C3  UNK     1      19.043  -0.165  17.976  1.00  0.00     0.093 A 
HETATM    6  C4  UNK     1      19.313  -0.651  15.227  1.00  0.00     0.154 A 
HETATM    7  C6  UNK     1      19.296   0.755  15.702  1.00  0.00     0.221 A 
HETATM    8  C7  UNK     1      18.906  -0.004  19.355  1.00  0.00     0.075 A 
HETATM    9  C8  UNK     1      19.130   2.238  17.699  1.00  0.00     0.021 A 
HETATM   10  C9  UNK     1      18.880   1.278  19.905  1.00  0.00     0.070 A 
HETATM   11  C11 UNK     1      18.992   2.397  19.078  1.00  0.00     0.038 A 
ENDROOT
BRANCH   4  12
HETATM   12  C5  UNK     1      19.207  -3.065  15.749  1.00  0.00     0.003 A 
HETATM   13  C10 UNK     1      18.069  -3.639  15.182  1.00  0.00     0.051 A 
HETATM   14  C13 UNK     1      18.072  -4.987  14.823  1.00  0.00     0.069 A 
HETATM   15  C15 UNK     1      19.213  -5.762  15.032  1.00  0.00     0.037 A 
HETATM   16  C14 UNK     1      20.351  -5.189  15.599  1.00  0.00     0.004 A 
HETATM   17  C12 UNK     1      20.349  -3.841  15.957  1.00  0.00     0.014 A 
BRANCH  14  18
HETATM   18  O5  UNK     1      16.961  -5.548  14.272  1.00  0.00    -0.356 OA
HETATM   19  C18 UNK     1      16.553  -6.818  14.782  1.00  0.00     0.210 C 
ENDBRANCH  14  18
ENDBRANCH   4  12
BRANCH   6  20
HETATM   20  O2  UNK     1      19.422  -0.875  13.872  1.00  0.00    -0.350 OA
HETATM   21  C16 UNK     1      20.771  -1.100  13.507  1.00  0.00     0.210 C 
ENDBRANCH   6  20
BRANCH  10  22
HETATM   22  O3  UNK     1      18.746   1.439  21.251  1.00  0.00    -0.356 OA
HETATM   23  C17 UNK     1      19.801   2.115  21.932  1.00  0.00     0.210 C 
ENDBRANCH  10  22
TORSDOF 4
ENDMDL
MODEL 10
REMARK VINA RESULT:      -7.0      3.933      8.646
REMARK  4 active torsions:
REMARK  status: ('A' for Active; 'I' for Inactive)
REMARK    1  A    between atoms: C4_9  and  O2_2 
REMARK    2  A    between atoms: C9_14  and  O3_3 
REMARK    3  A    between atoms: C13_18  and  O5_5 
REMARK    4  A    between atoms: C2_7  and  C5_10 
ROOT
HETATM    1  O1  UNK     1      18.131  10.357  33.692  1.00  0.00    -0.306 OA
HETATM    2  O4  UNK     1      14.424  10.183  35.375  1.00  0.00    -0.284 OA
HETATM    3  C1  UNK     1      16.250  11.514  34.699  1.00  0.00     0.051 A 
HETATM    4  C2  UNK     1      17.458   9.153  33.837  1.00  0.00     0.123 A 
HETATM    5  C3  UNK     1      17.516  11.506  34.118  1.00  0.00     0.093 A 
HETATM    6  C4  UNK     1      16.238   9.023  34.388  1.00  0.00     0.154 A 
HETATM    7  C6  UNK     1      15.536  10.240  34.866  1.00  0.00     0.221 A 
HETATM    8  C7  UNK     1      18.215  12.701  33.950  1.00  0.00     0.075 A 
HETATM    9  C8  UNK     1      15.672  12.717  35.114  1.00  0.00     0.021 A 
HETATM   10  C9  UNK     1      17.642  13.904  34.364  1.00  0.00     0.070 A 
HETATM   11  C11 UNK     1      16.373  13.911  34.946  1.00  0.00     0.038 A 
ENDROOT
BRANCH   4  12
HETATM   12  C5  UNK     1      18.230   8.001  33.341  1.00  0.00     0.003 A 
HETATM   13  C10 UNK     1      18.044   7.543  32.035  1.00  0.00     0.051 A 
HETATM   14  C13 UNK     1      18.775   6.452  31.567  1.00  0.00     0.069 A 
HETATM   15  C15 UNK     1      19.692   5.816  32.404  1.00  0.00     0.037 A 
HETATM   16  C14 UNK     1      19.879   6.272  33.708  1.00  0.00     0.004 A 
HETATM   17  C12 UNK     1      19.149   7.364  34.177  1.00  0.00     0.014 A 
BRANCH  14  18
HETATM   18  O5  UNK     1      18.591   6.004  30.295  1.00  0.00    -0.356 OA
HETATM   19  C18 UNK     1      19.029   4.677  30.003  1.00  0.00     0.210 C 
ENDBRANCH  14  18
ENDBRANCH   4  12
BRANCH   6  20
HETATM   20  O2  UNK     1      15.610   7.807  34.548  1.00  0.00    -0.350 OA
HETATM   21  C16 UNK     1      14.653   7.598  33.527  1.00  0.00     0.210 C 
ENDBRANCH   6  20
BRANCH  10  22
HETATM   22  O3  UNK     1      18.321  15.073  34.202  1.00  0.00    -0.356 OA
HETATM   23  C17 UNK     1      19.080  15.222  33.004  1.00  0.00     0.210 C 
ENDBRANCH  10  22
TORSDOF 4
ENDMDL
