MODEL 1
REMARK VINA RESULT:      -8.2      0.000      0.000
REMARK  3 active torsions:
REMARK  status: ('A' for Active; 'I' for Inactive)
REMARK    1  A    between atoms: C5_10  and  O2_2 
REMARK    2  A    between atoms: C4_9  and  O3_3 
REMARK    3  A    between atoms: C6_11  and  O4_4 
ROOT
HETATM    1  O1  UNK     1      19.328   2.695  20.208  1.00  0.00    -0.272 OA
HETATM    2  O5  UNK     1      19.461   2.804  22.492  1.00  0.00    -0.260 OA
HETATM    3  C1  UNK     1      19.272   0.513  19.129  1.00  0.00     0.004 A 
HETATM    4  C2  UNK     1      19.263   1.903  19.043  1.00  0.00     0.125 A 
HETATM    5  C3  UNK     1      19.205  -0.236  17.953  1.00  0.00     0.054 A 
HETATM    6  C4  UNK     1      19.190   2.561  17.817  1.00  0.00     0.137 A 
HETATM    7  C5  UNK     1      19.132   0.411  16.715  1.00  0.00     0.105 A 
HETATM    8  C6  UNK     1      19.123   1.806  16.648  1.00  0.00     0.135 A 
HETATM    9  C7  UNK     1      19.350  -0.108  20.440  1.00  0.00     0.020 A 
HETATM   10  C8  UNK     1      19.411   0.649  21.539  1.00  0.00     0.083 A 
HETATM   11  C9  UNK     1      19.403   2.122  21.474  1.00  0.00     0.288 A 
ENDROOT
BRANCH   6  12
HETATM   12  O3  UNK     1      19.182   3.921  17.759  1.00  0.00    -0.356 OA
HETATM   13  H4  UNK     1      18.890   4.189  16.870  1.00  0.00     0.218 HD
ENDBRANCH   6  12
BRANCH   8  14
HETATM   14  O4  UNK     1      19.052   2.429  15.437  1.00  0.00    -0.356 OA
HETATM   15  H5  UNK     1      18.551   3.255  15.543  1.00  0.00     0.218 HD
ENDBRANCH   8  14
BRANCH   7  16
HETATM   16  O2  UNK     1      19.068  -0.335  15.576  1.00  0.00    -0.353 OA
HETATM   17  C10 UNK     1      18.711  -1.709  15.722  1.00  0.00     0.210 C 
ENDBRANCH   7  16
TORSDOF 3
ENDMDL
MODEL 2
REMARK VINA RESULT:      -7.5      0.917      4.748
REMARK  3 active torsions:
REMARK  status: ('A' for Active; 'I' for Inactive)
REMARK    1  A    between atoms: C5_10  and  O2_2 
REMARK    2  A    between atoms: C4_9  and  O3_3 
REMARK    3  A    between atoms: C6_11  and  O4_4 
ROOT
HETATM    1  O1  UNK     1      19.132   0.513  15.217  1.00  0.00    -0.272 OA
HETATM    2  O5  UNK     1      19.053  -1.238  13.744  1.00  0.00    -0.260 OA
HETATM    3  C1  UNK     1      18.969   0.060  17.603  1.00  0.00     0.004 A 
HETATM    4  C2  UNK     1      19.103   0.964  16.553  1.00  0.00     0.125 A 
HETATM    5  C3  UNK     1      18.944   0.545  18.912  1.00  0.00     0.054 A 
HETATM    6  C4  UNK     1      19.213   2.336  16.775  1.00  0.00     0.137 A 
HETATM    7  C5  UNK     1      19.053   1.919  19.151  1.00  0.00     0.105 A 
HETATM    8  C6  UNK     1      19.188   2.811  18.085  1.00  0.00     0.135 A 
HETATM    9  C7  UNK     1      18.859  -1.357  17.299  1.00  0.00     0.020 A 
HETATM   10  C8  UNK     1      18.888  -1.775  16.032  1.00  0.00     0.083 A 
HETATM   11  C9  UNK     1      19.030  -0.838  14.902  1.00  0.00     0.288 A 
ENDROOT
BRANCH   6  12
HETATM   12  O3  UNK     1      19.344   3.199  15.731  1.00  0.00    -0.356 OA
HETATM   13  H4  UNK     1      19.316   2.687  14.904  1.00  0.00     0.218 HD
ENDBRANCH   6  12
BRANCH   8  14
HETATM   14  O4  UNK     1      19.292   4.149  18.326  1.00  0.00    -0.356 OA
HETATM   15  H5  UNK     1      19.201   4.624  17.483  1.00  0.00     0.218 HD
ENDBRANCH   8  14
BRANCH   7  16
HETATM   16  O2  UNK     1      19.027   2.376  20.434  1.00  0.00    -0.353 OA
HETATM   17  C10 UNK     1      19.746   1.619  21.406  1.00  0.00     0.210 C 
ENDBRANCH   7  16
TORSDOF 3
ENDMDL
MODEL 3
REMARK VINA RESULT:      -6.9      1.664      5.343
REMARK  3 active torsions:
REMARK  status: ('A' for Active; 'I' for Inactive)
REMARK    1  A    between atoms: C5_10  and  O2_2 
REMARK    2  A    between atoms: C4_9  and  O3_3 
REMARK    3  A    between atoms: C6_11  and  O4_4 
ROOT
HETATM    1  O1  UNK     1      19.289   0.086  16.683  1.00  0.00    -0.272 OA
HETATM    2  O5  UNK     1      19.399   0.384  14.415  1.00  0.00    -0.260 OA
HETATM    3  C1  UNK     1      19.295   2.041  18.135  1.00  0.00     0.004 A 
HETATM    4  C2  UNK     1      19.254   0.658  17.971  1.00  0.00     0.125 A 
HETATM    5  C3  UNK     1      19.257   2.569  19.426  1.00  0.00     0.054 A 
HETATM    6  C4  UNK     1      19.176  -0.207  19.061  1.00  0.00     0.137 A 
HETATM    7  C5  UNK     1      19.180   1.713  20.530  1.00  0.00     0.105 A 
HETATM    8  C6  UNK     1      19.139   0.329  20.347  1.00  0.00     0.135 A 
HETATM    9  C7  UNK     1      19.376   2.884  16.954  1.00  0.00     0.020 A 
HETATM   10  C8  UNK     1      19.409   2.334  15.738  1.00  0.00     0.083 A 
HETATM   11  C9  UNK     1      19.366   0.874  15.538  1.00  0.00     0.288 A 
ENDROOT
BRANCH   6  12
HETATM   12  O3  UNK     1      19.137  -1.554  18.875  1.00  0.00    -0.356 OA
HETATM   13  H4  UNK     1      18.376  -1.910  19.367  1.00  0.00     0.218 HD
ENDBRANCH   6  12
BRANCH   8  14
HETATM   14  O4  UNK     1      19.064  -0.498  21.428  1.00  0.00    -0.356 OA
HETATM   15  H5  UNK     1      19.574  -0.104  22.156  1.00  0.00     0.218 HD
ENDBRANCH   8  14
BRANCH   7  16
HETATM   16  O2  UNK     1      19.144   2.245  21.784  1.00  0.00    -0.353 OA
HETATM   17  C10 UNK     1      20.397   2.474  22.426  1.00  0.00     0.210 C 
ENDBRANCH   7  16
TORSDOF 3
ENDMDL
MODEL 4
REMARK VINA RESULT:      -6.5     13.589     15.971
REMARK  3 active torsions:
REMARK  status: ('A' for Active; 'I' for Inactive)
REMARK    1  A    between atoms: C5_10  and  O2_2 
REMARK    2  A    between atoms: C4_9  and  O3_3 
REMARK    3  A    between atoms: C6_11  and  O4_4 
ROOT
HETATM    1  O1  UNK     1      20.300   6.457  32.901  1.00  0.00    -0.272 OA
HETATM    2  O5  UNK     1      22.080   5.865  31.588  1.00  0.00    -0.260 OA
HETATM    3  C1  UNK     1      18.070   6.490  31.926  1.00  0.00     0.004 A 
HETATM    4  C2  UNK     1      18.912   6.675  33.020  1.00  0.00     0.125 A 
HETATM    5  C3  UNK     1      16.701   6.715  32.084  1.00  0.00     0.054 A 
HETATM    6  C4  UNK     1      18.424   7.076  34.262  1.00  0.00     0.137 A 
HETATM    7  C5  UNK     1      16.196   7.119  33.324  1.00  0.00     0.105 A 
HETATM    8  C6  UNK     1      17.056   7.298  34.410  1.00  0.00     0.135 A 
HETATM    9  C7  UNK     1      18.646   6.070  30.660  1.00  0.00     0.020 A 
HETATM   10  C8  UNK     1      19.962   5.866  30.557  1.00  0.00     0.083 A 
HETATM   11  C9  UNK     1      20.874   6.055  31.700  1.00  0.00     0.288 A 
ENDROOT
BRANCH   6  12
HETATM   12  O3  UNK     1      19.267   7.249  35.315  1.00  0.00    -0.356 OA
HETATM   13  H4  UNK     1      19.580   8.171  35.310  1.00  0.00     0.218 HD
ENDBRANCH   6  12
BRANCH   8  14
HETATM   14  O4  UNK     1      16.556   7.693  35.615  1.00  0.00    -0.356 OA
HETATM   15  H5  UNK     1      17.248   7.581  36.289  1.00  0.00     0.218 HD
ENDBRANCH   8  14
BRANCH   7  16
HETATM   16  O2  UNK     1      14.858   7.334  33.460  1.00  0.00    -0.353 OA
HETATM   17  C10 UNK     1      14.063   7.239  32.279  1.00  0.00     0.210 C 
ENDBRANCH   7  16
TORSDOF 3
ENDMDL
MODEL 5
REMARK VINA RESULT:      -6.5     11.578     13.661
REMARK  3 active torsions:
REMARK  status: ('A' for Active; 'I' for Inactive)
REMARK    1  A    between atoms: C5_10  and  O2_2 
REMARK    2  A    between atoms: C4_9  and  O3_3 
REMARK    3  A    between atoms: C6_11  and  O4_4 
ROOT
HETATM    1  O1  UNK     1      19.841  -1.171  31.345  1.00  0.00    -0.272 OA
HETATM    2  O5  UNK     1      20.819  -2.827  30.102  1.00  0.00    -0.260 OA
HETATM    3  C1  UNK     1      19.262   0.933  30.267  1.00  0.00     0.004 A 
HETATM    4  C2  UNK     1      19.302   0.130  31.404  1.00  0.00     0.125 A 
HETATM    5  C3  UNK     1      18.719   2.216  30.365  1.00  0.00     0.054 A 
HETATM    6  C4  UNK     1      18.816   0.575  32.632  1.00  0.00     0.137 A 
HETATM    7  C5  UNK     1      18.229   2.675  31.591  1.00  0.00     0.105 A 
HETATM    8  C6  UNK     1      18.276   1.856  32.721  1.00  0.00     0.135 A 
HETATM    9  C7  UNK     1      19.786   0.406  29.018  1.00  0.00     0.020 A 
HETATM   10  C8  UNK     1      20.294  -0.828  28.971  1.00  0.00     0.083 A 
HETATM   11  C9  UNK     1      20.348  -1.697  30.161  1.00  0.00     0.288 A 
ENDROOT
BRANCH   6  12
HETATM   12  O3  UNK     1      18.866  -0.229  33.729  1.00  0.00    -0.356 OA
HETATM   13  H4  UNK     1      18.077  -0.799  33.729  1.00  0.00     0.218 HD
ENDBRANCH   6  12
BRANCH   8  14
HETATM   14  O4  UNK     1      17.797   2.312  33.913  1.00  0.00    -0.356 OA
HETATM   15  H5  UNK     1      17.906   3.278  33.942  1.00  0.00     0.218 HD
ENDBRANCH   8  14
BRANCH   7  16
HETATM   16  O2  UNK     1      17.703   3.930  31.670  1.00  0.00    -0.353 OA
HETATM   17  C10 UNK     1      18.626   5.017  31.707  1.00  0.00     0.210 C 
ENDBRANCH   7  16
TORSDOF 3
ENDMDL
MODEL 6
REMARK VINA RESULT:      -6.5     10.670     12.445
REMARK  3 active torsions:
REMARK  status: ('A' for Active; 'I' for Inactive)
REMARK    1  A    between atoms: C5_10  and  O2_2 
REMARK    2  A    between atoms: C4_9  and  O3_3 
REMARK    3  A    between atoms: C6_11  and  O4_4 
ROOT
HETATM    1  O1  UNK     1      13.949   4.995   8.915  1.00  0.00    -0.272 OA
HETATM    2  O5  UNK     1      11.942   4.091   8.286  1.00  0.00    -0.260 OA
HETATM    3  C1  UNK     1      14.098   7.394   9.302  1.00  0.00     0.004 A 
HETATM    4  C2  UNK     1      14.697   6.137   9.267  1.00  0.00     0.125 A 
HETATM    5  C3  UNK     1      14.871   8.501   9.655  1.00  0.00     0.054 A 
HETATM    6  C4  UNK     1      16.045   5.959   9.574  1.00  0.00     0.137 A 
HETATM    7  C5  UNK     1      16.225   8.338   9.966  1.00  0.00     0.105 A 
HETATM    8  C6  UNK     1      16.809   7.070   9.926  1.00  0.00     0.135 A 
HETATM    9  C7  UNK     1      12.688   7.507   8.969  1.00  0.00     0.020 A 
HETATM   10  C8  UNK     1      11.987   6.420   8.637  1.00  0.00     0.083 A 
HETATM   11  C9  UNK     1      12.599   5.079   8.593  1.00  0.00     0.288 A 
ENDROOT
BRANCH   6  12
HETATM   12  O3  UNK     1      16.607   4.721   9.533  1.00  0.00    -0.356 OA
HETATM   13  H4  UNK     1      15.972   4.109   9.122  1.00  0.00     0.218 HD
ENDBRANCH   6  12
BRANCH   8  14
HETATM   14  O4  UNK     1      18.130   6.919  10.230  1.00  0.00    -0.356 OA
HETATM   15  H5  UNK     1      18.229   6.938  11.197  1.00  0.00     0.218 HD
ENDBRANCH   8  14
BRANCH   7  16
HETATM   16  O2  UNK     1      16.966   9.429  10.308  1.00  0.00    -0.353 OA
HETATM   17  C10 UNK     1      17.376  10.292   9.249  1.00  0.00     0.210 C 
ENDBRANCH   7  16
TORSDOF 3
ENDMDL
MODEL 7
REMARK VINA RESULT:      -6.4     11.750     14.139
REMARK  3 active torsions:
REMARK  status: ('A' for Active; 'I' for Inactive)
REMARK    1  A    between atoms: C5_10  and  O2_2 
REMARK    2  A    between atoms: C4_9  and  O3_3 
REMARK    3  A    between atoms: C6_11  and  O4_4 
ROOT
HETATM    1  O1  UNK     1       9.723   5.509   8.322  1.00  0.00    -0.272 OA
HETATM    2  O5  UNK     1       7.744   5.894   7.235  1.00  0.00    -0.260 OA
HETATM    3  C1  UNK     1      11.811   6.125   7.233  1.00  0.00     0.004 A 
HETATM    4  C2  UNK     1      11.130   5.588   8.323  1.00  0.00     0.125 A 
HETATM    5  C3  UNK     1      13.205   6.187   7.271  1.00  0.00     0.054 A 
HETATM    6  C4  UNK     1      11.805   5.113   9.446  1.00  0.00     0.137 A 
HETATM    7  C5  UNK     1      13.895   5.713   8.391  1.00  0.00     0.105 A 
HETATM    8  C6  UNK     1      13.196   5.179   9.476  1.00  0.00     0.135 A 
HETATM    9  C7  UNK     1      11.044   6.602   6.094  1.00  0.00     0.020 A 
HETATM   10  C8  UNK     1       9.712   6.524   6.101  1.00  0.00     0.083 A 
HETATM   11  C9  UNK     1       8.968   5.960   7.244  1.00  0.00     0.288 A 
ENDROOT
BRANCH   6  12
HETATM   12  O3  UNK     1      11.117   4.593  10.499  1.00  0.00    -0.356 OA
HETATM   13  H4  UNK     1      11.750   4.391  11.210  1.00  0.00     0.218 HD
ENDBRANCH   6  12
BRANCH   8  14
HETATM   14  O4  UNK     1      13.877   4.719  10.564  1.00  0.00    -0.356 OA
HETATM   15  H5  UNK     1      13.514   3.852  10.812  1.00  0.00     0.218 HD
ENDBRANCH   8  14
BRANCH   7  16
HETATM   16  O2  UNK     1      15.256   5.781   8.412  1.00  0.00    -0.353 OA
HETATM   17  C10 UNK     1      15.845   6.675   9.354  1.00  0.00     0.210 C 
ENDBRANCH   7  16
TORSDOF 3
ENDMDL
MODEL 8
REMARK VINA RESULT:      -6.4     11.377     12.985
REMARK  3 active torsions:
REMARK  status: ('A' for Active; 'I' for Inactive)
REMARK    1  A    between atoms: C5_10  and  O2_2 
REMARK    2  A    between atoms: C4_9  and  O3_3 
REMARK    3  A    between atoms: C6_11  and  O4_4 
ROOT
HETATM    1  O1  UNK     1      15.383   6.902   9.895  1.00  0.00    -0.272 OA
HETATM    2  O5  UNK     1      16.899   8.490  10.547  1.00  0.00    -0.260 OA
HETATM    3  C1  UNK     1      13.590   7.533   8.373  1.00  0.00     0.004 A 
HETATM    4  C2  UNK     1      14.237   6.570   9.143  1.00  0.00     0.125 A 
HETATM    5  C3  UNK     1      12.459   7.165   7.642  1.00  0.00     0.054 A 
HETATM    6  C4  UNK     1      13.785   5.253   9.201  1.00  0.00     0.137 A 
HETATM    7  C5  UNK     1      11.993   5.847   7.691  1.00  0.00     0.105 A 
HETATM    8  C6  UNK     1      12.656   4.894   8.468  1.00  0.00     0.135 A 
HETATM    9  C7  UNK     1      14.116   8.888   8.359  1.00  0.00     0.020 A 
HETATM   10  C8  UNK     1      15.201   9.194   9.073  1.00  0.00     0.083 A 
HETATM   11  C9  UNK     1      15.904   8.192   9.896  1.00  0.00     0.288 A 
ENDROOT
BRANCH   6  12
HETATM   12  O3  UNK     1      14.436   4.330   9.960  1.00  0.00    -0.356 OA
HETATM   13  H4  UNK     1      15.282   4.118   9.529  1.00  0.00     0.218 HD
ENDBRANCH   6  12
BRANCH   8  14
HETATM   14  O4  UNK     1      12.195   3.611   8.511  1.00  0.00    -0.356 OA
HETATM   15  H5  UNK     1      12.885   3.022   8.160  1.00  0.00     0.218 HD
ENDBRANCH   8  14
BRANCH   7  16
HETATM   16  O2  UNK     1      10.888   5.504   6.972  1.00  0.00    -0.353 OA
HETATM   17  C10 UNK     1      10.381   6.477   6.061  1.00  0.00     0.210 C 
ENDBRANCH   7  16
TORSDOF 3
ENDMDL
MODEL 9
REMARK VINA RESULT:      -6.3     19.126     20.348
REMARK  3 active torsions:
REMARK  status: ('A' for Active; 'I' for Inactive)
REMARK    1  A    between atoms: C5_10  and  O2_2 
REMARK    2  A    between atoms: C4_9  and  O3_3 
REMARK    3  A    between atoms: C6_11  and  O4_4 
ROOT
HETATM    1  O1  UNK     1      22.212  -7.354  37.069  1.00  0.00    -0.272 OA
HETATM    2  O5  UNK     1      23.960  -8.824  37.230  1.00  0.00    -0.260 OA
HETATM    3  C1  UNK     1      19.969  -8.220  36.687  1.00  0.00     0.004 A 
HETATM    4  C2  UNK     1      20.830  -7.143  36.881  1.00  0.00     0.125 A 
HETATM    5  C3  UNK     1      18.607  -7.971  36.505  1.00  0.00     0.054 A 
HETATM    6  C4  UNK     1      20.368  -5.828  36.897  1.00  0.00     0.137 A 
HETATM    7  C5  UNK     1      18.129  -6.656  36.518  1.00  0.00     0.105 A 
HETATM    8  C6  UNK     1      19.008  -5.589  36.714  1.00  0.00     0.135 A 
HETATM    9  C7  UNK     1      20.519  -9.565  36.682  1.00  0.00     0.020 A 
HETATM   10  C8  UNK     1      21.828  -9.756  36.861  1.00  0.00     0.083 A 
HETATM   11  C9  UNK     1      22.760  -8.632  37.068  1.00  0.00     0.288 A 
ENDROOT
BRANCH   6  12
HETATM   12  O3  UNK     1      21.230  -4.793  37.088  1.00  0.00    -0.356 OA
HETATM   13  H4  UNK     1      21.923  -5.081  37.708  1.00  0.00     0.218 HD
ENDBRANCH   6  12
BRANCH   8  14
HETATM   14  O4  UNK     1      18.534  -4.310  36.725  1.00  0.00    -0.356 OA
HETATM   15  H5  UNK     1      18.222  -4.103  37.622  1.00  0.00     0.218 HD
ENDBRANCH   8  14
BRANCH   7  16
HETATM   16  O2  UNK     1      16.797  -6.431  36.338  1.00  0.00    -0.353 OA
HETATM   17  C10 UNK     1      16.171  -7.093  35.241  1.00  0.00     0.210 C 
ENDBRANCH   7  16
TORSDOF 3
ENDMDL
MODEL 10
REMARK VINA RESULT:      -6.3     12.296     14.366
REMARK  3 active torsions:
REMARK  status: ('A' for Active; 'I' for Inactive)
REMARK    1  A    between atoms: C5_10  and  O2_2 
REMARK    2  A    between atoms: C4_9  and  O3_3 
REMARK    3  A    between atoms: C6_11  and  O4_4 
ROOT
HETATM    1  O1  UNK     1      13.633   5.684   7.570  1.00  0.00    -0.272 OA
HETATM    2  O5  UNK     1      15.609   5.325   8.671  1.00  0.00    -0.260 OA
HETATM    3  C1  UNK     1      11.564   5.776   8.850  1.00  0.00     0.004 A 
HETATM    4  C2  UNK     1      12.233   5.840   7.630  1.00  0.00     0.125 A 
HETATM    5  C3  UNK     1      10.178   5.936   8.868  1.00  0.00     0.054 A 
HETATM    6  C4  UNK     1      11.554   6.059   6.433  1.00  0.00     0.137 A 
HETATM    7  C5  UNK     1       9.483   6.155   7.675  1.00  0.00     0.105 A 
HETATM    8  C6  UNK     1      10.170   6.218   6.460  1.00  0.00     0.135 A 
HETATM    9  C7  UNK     1      12.335   5.545  10.060  1.00  0.00     0.020 A 
HETATM   10  C8  UNK     1      13.660   5.399   9.994  1.00  0.00     0.083 A 
HETATM   11  C9  UNK     1      14.391   5.463   8.715  1.00  0.00     0.288 A 
ENDROOT
BRANCH   6  12
HETATM   12  O3  UNK     1      12.231   6.118   5.253  1.00  0.00    -0.356 OA
HETATM   13  H4  UNK     1      11.883   6.866   4.737  1.00  0.00     0.218 HD
ENDBRANCH   6  12
BRANCH   8  14
HETATM   14  O4  UNK     1       9.486   6.431   5.301  1.00  0.00    -0.356 OA
HETATM   15  H5  UNK     1       8.543   6.536   5.513  1.00  0.00     0.218 HD
ENDBRANCH   8  14
BRANCH   7  16
HETATM   16  O2  UNK     1       8.129   6.308   7.710  1.00  0.00    -0.353 OA
HETATM   17  C10 UNK     1       7.622   7.409   8.463  1.00  0.00     0.210 C 
ENDBRANCH   7  16
TORSDOF 3
ENDMDL
