MODEL 1
REMARK VINA RESULT:      -7.1      0.000      0.000
REMARK  3 active torsions:
REMARK  status: ('A' for Active; 'I' for Inactive)
REMARK    1  A    between atoms: C10_13  and  O2_2 
REMARK    2  A    between atoms: C13_16  and  O2_2 
REMARK    3  A    between atoms: C3_6  and  C5_8 
ROOT
HETATM    1  O1  UNK     1      18.636   0.603  32.876  1.00  0.00    -0.274 OA
HETATM    2  O3  UNK     1      17.799   2.509  31.970  1.00  0.00    -0.259 OA
HETATM    3  C1  UNK     1      19.873   0.035  30.393  1.00  0.00    -0.037 A 
HETATM    4  C2  UNK     1      20.015  -0.889  31.537  1.00  0.00     0.005 A 
HETATM    5  C3  UNK     1      19.116   1.145  30.527  1.00  0.00     0.024 A 
HETATM    6  C4  UNK     1      19.391  -0.572  32.740  1.00  0.00     0.092 A 
HETATM    7  C6  UNK     1      20.738  -2.091  31.490  1.00  0.00     0.017 A 
HETATM    8  C7  UNK     1      18.462   1.486  31.823  1.00  0.00     0.295 A 
HETATM    9  C8  UNK     1      20.615  -0.325  29.130  1.00  0.00     0.050 C 
HETATM   10  C9  UNK     1      19.474  -1.389  33.870  1.00  0.00     0.075 A 
HETATM   11  C10 UNK     1      20.202  -2.572  33.802  1.00  0.00     0.071 A 
HETATM   12  C11 UNK     1      20.832  -2.924  32.612  1.00  0.00     0.038 A 
ENDROOT
BRANCH  11  13
HETATM   13  O2  UNK     1      20.294  -3.383  34.890  1.00  0.00    -0.351 OA
BRANCH  13  14
HETATM   14  C13 UNK     1      20.252  -2.758  36.173  1.00  0.00     0.171 C 
HETATM   15  C14 UNK     1      20.513  -3.800  37.238  1.00  0.00     0.034 C 
ENDBRANCH  13  14
ENDBRANCH  11  13
BRANCH   5  16
HETATM   16  C5  UNK     1      18.837   2.136  29.425  1.00  0.00     0.041 C 
HETATM   17  C12 UNK     1      17.747   1.613  28.524  1.00  0.00     0.010 C 
ENDBRANCH   5  16
TORSDOF 3
ENDMDL
MODEL 2
REMARK VINA RESULT:      -7.0      2.343      5.484
REMARK  3 active torsions:
REMARK  status: ('A' for Active; 'I' for Inactive)
REMARK    1  A    between atoms: C10_13  and  O2_2 
REMARK    2  A    between atoms: C13_16  and  O2_2 
REMARK    3  A    between atoms: C3_6  and  C5_8 
ROOT
HETATM    1  O1  UNK     1      17.488  -0.283  33.589  1.00  0.00    -0.274 OA
HETATM    2  O3  UNK     1      16.005   0.524  35.106  1.00  0.00    -0.259 OA
HETATM    3  C1  UNK     1      18.835  -1.608  35.697  1.00  0.00    -0.037 A 
HETATM    4  C2  UNK     1      19.323  -1.710  34.307  1.00  0.00     0.005 A 
HETATM    5  C3  UNK     1      17.755  -0.845  35.967  1.00  0.00     0.024 A 
HETATM    6  C4  UNK     1      18.630  -1.045  33.300  1.00  0.00     0.092 A 
HETATM    7  C6  UNK     1      20.462  -2.436  33.926  1.00  0.00     0.017 A 
HETATM    8  C7  UNK     1      17.009  -0.145  34.881  1.00  0.00     0.295 A 
HETATM    9  C8  UNK     1      19.586  -2.394  36.743  1.00  0.00     0.050 C 
HETATM   10  C9  UNK     1      19.023  -1.089  31.960  1.00  0.00     0.075 A 
HETATM   11  C10 UNK     1      20.151  -1.820  31.604  1.00  0.00     0.071 A 
HETATM   12  C11 UNK     1      20.871  -2.492  32.588  1.00  0.00     0.038 A 
ENDROOT
BRANCH  11  13
HETATM   13  O2  UNK     1      20.551  -1.875  30.306  1.00  0.00    -0.351 OA
BRANCH  13  14
HETATM   14  C13 UNK     1      20.656  -0.635  29.604  1.00  0.00     0.171 C 
HETATM   15  C14 UNK     1      19.739  -0.672  28.401  1.00  0.00     0.034 C 
ENDBRANCH  13  14
ENDBRANCH  11  13
BRANCH   5  16
HETATM   16  C5  UNK     1      17.191  -0.604  37.345  1.00  0.00     0.041 C 
HETATM   17  C12 UNK     1      17.720   0.696  37.898  1.00  0.00     0.010 C 
ENDBRANCH   5  16
TORSDOF 3
ENDMDL
MODEL 3
REMARK VINA RESULT:      -6.8      2.599      3.742
REMARK  3 active torsions:
REMARK  status: ('A' for Active; 'I' for Inactive)
REMARK    1  A    between atoms: C10_13  and  O2_2 
REMARK    2  A    between atoms: C13_16  and  O2_2 
REMARK    3  A    between atoms: C3_6  and  C5_8 
ROOT
HETATM    1  O1  UNK     1      19.678  -1.933  32.525  1.00  0.00    -0.274 OA
HETATM    2  O3  UNK     1      20.705  -2.716  30.658  1.00  0.00    -0.259 OA
HETATM    3  C1  UNK     1      19.290   0.540  31.203  1.00  0.00    -0.037 A 
HETATM    4  C2  UNK     1      18.824   0.344  32.591  1.00  0.00     0.005 A 
HETATM    5  C3  UNK     1      19.938  -0.462  30.573  1.00  0.00     0.024 A 
HETATM    6  C4  UNK     1      19.033  -0.888  33.204  1.00  0.00     0.092 A 
HETATM    7  C6  UNK     1      18.183   1.334  33.351  1.00  0.00     0.017 A 
HETATM    8  C7  UNK     1      20.148  -1.785  31.230  1.00  0.00     0.295 A 
HETATM    9  C8  UNK     1      18.987   1.873  30.564  1.00  0.00     0.050 C 
HETATM   10  C9  UNK     1      18.624  -1.158  34.512  1.00  0.00     0.075 A 
HETATM   11  C10 UNK     1      17.986  -0.163  35.244  1.00  0.00     0.071 A 
HETATM   12  C11 UNK     1      17.766   1.083  34.664  1.00  0.00     0.038 A 
ENDROOT
BRANCH  11  13
HETATM   13  O2  UNK     1      17.581  -0.405  36.520  1.00  0.00    -0.351 OA
BRANCH  13  14
HETATM   14  C13 UNK     1      16.809   0.611  37.161  1.00  0.00     0.171 C 
HETATM   15  C14 UNK     1      17.618   1.202  38.295  1.00  0.00     0.034 C 
ENDBRANCH  13  14
ENDBRANCH  11  13
BRANCH   5  16
HETATM   16  C5  UNK     1      20.520  -0.375  29.184  1.00  0.00     0.041 C 
HETATM   17  C12 UNK     1      19.456  -0.682  28.159  1.00  0.00     0.010 C 
ENDBRANCH   5  16
TORSDOF 3
ENDMDL
MODEL 4
REMARK VINA RESULT:      -6.8      2.350      3.249
REMARK  3 active torsions:
REMARK  status: ('A' for Active; 'I' for Inactive)
REMARK    1  A    between atoms: C10_13  and  O2_2 
REMARK    2  A    between atoms: C13_16  and  O2_2 
REMARK    3  A    between atoms: C3_6  and  C5_8 
ROOT
HETATM    1  O1  UNK     1      18.428   1.714  31.946  1.00  0.00    -0.274 OA
HETATM    2  O3  UNK     1      19.056   2.383  29.870  1.00  0.00    -0.259 OA
HETATM    3  C1  UNK     1      19.724  -0.759  31.477  1.00  0.00    -0.037 A 
HETATM    4  C2  UNK     1      19.031  -0.500  32.755  1.00  0.00     0.005 A 
HETATM    5  C3  UNK     1      19.707   0.183  30.510  1.00  0.00     0.024 A 
HETATM    6  C4  UNK     1      18.408   0.730  32.946  1.00  0.00     0.092 A 
HETATM    7  C6  UNK     1      18.948  -1.428  33.805  1.00  0.00     0.017 A 
HETATM    8  C7  UNK     1      19.049   1.504  30.725  1.00  0.00     0.295 A 
HETATM    9  C8  UNK     1      20.433  -2.085  31.342  1.00  0.00     0.050 C 
HETATM   10  C9  UNK     1      17.732   1.056  34.124  1.00  0.00     0.075 A 
HETATM   11  C10 UNK     1      17.667   0.124  35.153  1.00  0.00     0.071 A 
HETATM   12  C11 UNK     1      18.274  -1.119  34.993  1.00  0.00     0.038 A 
ENDROOT
BRANCH  11  13
HETATM   13  O2  UNK     1      17.012   0.422  36.307  1.00  0.00    -0.351 OA
BRANCH  13  14
HETATM   14  C13 UNK     1      17.403   1.615  36.987  1.00  0.00     0.171 C 
HETATM   15  C14 UNK     1      17.717   1.280  38.429  1.00  0.00     0.034 C 
ENDBRANCH  13  14
ENDBRANCH  11  13
BRANCH   5  16
HETATM   16  C5  UNK     1      20.318   0.024  29.141  1.00  0.00     0.041 C 
HETATM   17  C12 UNK     1      19.308  -0.569  28.190  1.00  0.00     0.010 C 
ENDBRANCH   5  16
TORSDOF 3
ENDMDL
MODEL 5
REMARK VINA RESULT:      -6.6     23.417     25.823
REMARK  3 active torsions:
REMARK  status: ('A' for Active; 'I' for Inactive)
REMARK    1  A    between atoms: C10_13  and  O2_2 
REMARK    2  A    between atoms: C13_16  and  O2_2 
REMARK    3  A    between atoms: C3_6  and  C5_8 
ROOT
HETATM    1  O1  UNK     1      14.143   4.985   8.944  1.00  0.00    -0.274 OA
HETATM    2  O3  UNK     1      16.318   4.685   9.519  1.00  0.00    -0.259 OA
HETATM    3  C1  UNK     1      14.260   7.576  10.081  1.00  0.00    -0.037 A 
HETATM    4  C2  UNK     1      13.011   7.072   9.474  1.00  0.00     0.005 A 
HETATM    5  C3  UNK     1      15.347   6.775  10.122  1.00  0.00     0.024 A 
HETATM    6  C4  UNK     1      12.996   5.793   8.925  1.00  0.00     0.092 A 
HETATM    7  C6  UNK     1      11.814   7.803   9.422  1.00  0.00     0.017 A 
HETATM    8  C7  UNK     1      15.329   5.411   9.520  1.00  0.00     0.295 A 
HETATM    9  C8  UNK     1      14.240   8.989  10.610  1.00  0.00     0.050 C 
HETATM   10  C9  UNK     1      11.858   5.241   8.333  1.00  0.00     0.075 A 
HETATM   11  C10 UNK     1      10.685   5.986   8.287  1.00  0.00     0.071 A 
HETATM   12  C11 UNK     1      10.662   7.266   8.833  1.00  0.00     0.038 A 
ENDROOT
BRANCH  11  13
HETATM   13  O2  UNK     1       9.566   5.466   7.716  1.00  0.00    -0.351 OA
BRANCH  13  14
HETATM   14  C13 UNK     1       8.857   6.299   6.798  1.00  0.00     0.171 C 
HETATM   15  C14 UNK     1       9.654   6.410   5.516  1.00  0.00     0.034 C 
ENDBRANCH  13  14
ENDBRANCH  11  13
BRANCH   5  16
HETATM   16  C5  UNK     1      16.661   7.139  10.765  1.00  0.00     0.041 C 
HETATM   17  C12 UNK     1      17.438   8.066   9.863  1.00  0.00     0.010 C 
ENDBRANCH   5  16
TORSDOF 3
ENDMDL
MODEL 6
REMARK VINA RESULT:      -6.6     23.475     25.533
REMARK  3 active torsions:
REMARK  status: ('A' for Active; 'I' for Inactive)
REMARK    1  A    between atoms: C10_13  and  O2_2 
REMARK    2  A    between atoms: C13_16  and  O2_2 
REMARK    3  A    between atoms: C3_6  and  C5_8 
ROOT
HETATM    1  O1  UNK     1      12.695   8.165  10.394  1.00  0.00    -0.274 OA
HETATM    2  O3  UNK     1      13.992   9.566  11.621  1.00  0.00    -0.259 OA
HETATM    3  C1  UNK     1      15.001   6.622   9.827  1.00  0.00    -0.037 A 
HETATM    4  C2  UNK     1      13.683   6.241   9.279  1.00  0.00     0.005 A 
HETATM    5  C3  UNK     1      15.109   7.739  10.578  1.00  0.00     0.024 A 
HETATM    6  C4  UNK     1      12.575   7.026   9.583  1.00  0.00     0.092 A 
HETATM    7  C6  UNK     1      13.470   5.129   8.450  1.00  0.00     0.017 A 
HETATM    8  C7  UNK     1      13.915   8.568  10.912  1.00  0.00     0.295 A 
HETATM    9  C8  UNK     1      16.160   5.707   9.516  1.00  0.00     0.050 C 
HETATM   10  C9  UNK     1      11.294   6.736   9.107  1.00  0.00     0.075 A 
HETATM   11  C10 UNK     1      11.105   5.626   8.292  1.00  0.00     0.071 A 
HETATM   12  C11 UNK     1      12.193   4.823   7.963  1.00  0.00     0.038 A 
ENDROOT
BRANCH  11  13
HETATM   13  O2  UNK     1       9.866   5.327   7.817  1.00  0.00    -0.351 OA
BRANCH  13  14
HETATM   14  C13 UNK     1       9.183   6.351   7.093  1.00  0.00     0.171 C 
HETATM   15  C14 UNK     1       9.727   6.402   5.681  1.00  0.00     0.034 C 
ENDBRANCH  13  14
ENDBRANCH  11  13
BRANCH   5  16
HETATM   16  C5  UNK     1      16.400   8.275  11.145  1.00  0.00     0.041 C 
HETATM   17  C12 UNK     1      17.086   9.151  10.126  1.00  0.00     0.010 C 
ENDBRANCH   5  16
TORSDOF 3
ENDMDL
MODEL 7
REMARK VINA RESULT:      -6.5     23.619     25.806
REMARK  3 active torsions:
REMARK  status: ('A' for Active; 'I' for Inactive)
REMARK    1  A    between atoms: C10_13  and  O2_2 
REMARK    2  A    between atoms: C13_16  and  O2_2 
REMARK    3  A    between atoms: C3_6  and  C5_8 
ROOT
HETATM    1  O1  UNK     1      11.155   5.082  10.016  1.00  0.00    -0.274 OA
HETATM    2  O3  UNK     1       8.900   4.970  10.251  1.00  0.00    -0.259 OA
HETATM    3  C1  UNK     1      10.773   6.203   7.444  1.00  0.00    -0.037 A 
HETATM    4  C2  UNK     1      12.133   5.968   7.971  1.00  0.00     0.005 A 
HETATM    5  C3  UNK     1       9.703   5.846   8.186  1.00  0.00     0.024 A 
HETATM    6  C4  UNK     1      12.276   5.416   9.241  1.00  0.00     0.092 A 
HETATM    7  C6  UNK     1      13.309   6.258   7.264  1.00  0.00     0.017 A 
HETATM    8  C7  UNK     1       9.863   5.267   9.551  1.00  0.00     0.295 A 
HETATM    9  C8  UNK     1      10.671   6.857   6.088  1.00  0.00     0.050 C 
HETATM   10  C9  UNK     1      13.524   5.161   9.814  1.00  0.00     0.075 A 
HETATM   11  C10 UNK     1      14.677   5.462   9.098  1.00  0.00     0.071 A 
HETATM   12  C11 UNK     1      14.570   6.009   7.822  1.00  0.00     0.038 A 
ENDROOT
BRANCH  11  13
HETATM   13  O2  UNK     1      15.902   5.221   9.637  1.00  0.00    -0.351 OA
BRANCH  13  14
HETATM   14  C13 UNK     1      16.909   6.213   9.435  1.00  0.00     0.171 C 
HETATM   15  C14 UNK     1      16.803   7.253  10.530  1.00  0.00     0.034 C 
ENDBRANCH  13  14
ENDBRANCH  11  13
BRANCH   5  16
HETATM   16  C5  UNK     1       8.267   5.972   7.744  1.00  0.00     0.041 C 
HETATM   17  C12 UNK     1       7.715   7.314   8.158  1.00  0.00     0.010 C 
ENDBRANCH   5  16
TORSDOF 3
ENDMDL
MODEL 8
REMARK VINA RESULT:      -6.5      4.658      7.705
REMARK  3 active torsions:
REMARK  status: ('A' for Active; 'I' for Inactive)
REMARK    1  A    between atoms: C10_13  and  O2_2 
REMARK    2  A    between atoms: C13_16  and  O2_2 
REMARK    3  A    between atoms: C3_6  and  C5_8 
ROOT
HETATM    1  O1  UNK     1      17.816   3.640  33.193  1.00  0.00    -0.274 OA
HETATM    2  O3  UNK     1      18.107   1.532  32.401  1.00  0.00    -0.259 OA
HETATM    3  C1  UNK     1      18.721   4.638  30.703  1.00  0.00    -0.037 A 
HETATM    4  C2  UNK     1      18.334   5.559  31.791  1.00  0.00     0.005 A 
HETATM    5  C3  UNK     1      18.675   3.305  30.915  1.00  0.00     0.024 A 
HETATM    6  C4  UNK     1      17.893   5.027  32.999  1.00  0.00     0.092 A 
HETATM    7  C6  UNK     1      18.391   6.958  31.692  1.00  0.00     0.017 A 
HETATM    8  C7  UNK     1      18.188   2.741  32.207  1.00  0.00     0.295 A 
HETATM    9  C8  UNK     1      19.137   5.264  29.395  1.00  0.00     0.050 C 
HETATM   10  C9  UNK     1      17.508   5.827  34.078  1.00  0.00     0.075 A 
HETATM   11  C10 UNK     1      17.567   7.210  33.955  1.00  0.00     0.071 A 
HETATM   12  C11 UNK     1      18.010   7.776  32.763  1.00  0.00     0.038 A 
ENDROOT
BRANCH  11  13
HETATM   13  O2  UNK     1      17.198   8.006  34.994  1.00  0.00    -0.351 OA
BRANCH  13  14
HETATM   14  C13 UNK     1      16.297   9.076  34.706  1.00  0.00     0.171 C 
HETATM   15  C14 UNK     1      14.960   8.498  34.296  1.00  0.00     0.034 C 
ENDBRANCH  13  14
ENDBRANCH  11  13
BRANCH   5  16
HETATM   16  C5  UNK     1      19.100   2.258  29.916  1.00  0.00     0.041 C 
HETATM   17  C12 UNK     1      17.947   1.916  29.004  1.00  0.00     0.010 C 
ENDBRANCH   5  16
TORSDOF 3
ENDMDL
MODEL 9
REMARK VINA RESULT:      -6.5      2.951      4.309
REMARK  3 active torsions:
REMARK  status: ('A' for Active; 'I' for Inactive)
REMARK    1  A    between atoms: C10_13  and  O2_2 
REMARK    2  A    between atoms: C13_16  and  O2_2 
REMARK    3  A    between atoms: C3_6  and  C5_8 
ROOT
HETATM    1  O1  UNK     1      18.400   1.806  31.480  1.00  0.00    -0.274 OA
HETATM    2  O3  UNK     1      18.504   2.932  29.511  1.00  0.00    -0.259 OA
HETATM    3  C1  UNK     1      18.399   4.293  32.834  1.00  0.00    -0.037 A 
HETATM    4  C2  UNK     1      18.351   3.022  33.587  1.00  0.00     0.005 A 
HETATM    5  C3  UNK     1      18.480   4.263  31.487  1.00  0.00     0.024 A 
HETATM    6  C4  UNK     1      18.351   1.822  32.882  1.00  0.00     0.092 A 
HETATM    7  C6  UNK     1      18.313   2.941  34.987  1.00  0.00     0.017 A 
HETATM    8  C7  UNK     1      18.467   2.974  30.737  1.00  0.00     0.295 A 
HETATM    9  C8  UNK     1      18.338   5.566  33.641  1.00  0.00     0.050 C 
HETATM   10  C9  UNK     1      18.307   0.578  33.515  1.00  0.00     0.075 A 
HETATM   11  C10 UNK     1      18.264   0.521  34.904  1.00  0.00     0.071 A 
HETATM   12  C11 UNK     1      18.269   1.702  35.639  1.00  0.00     0.038 A 
ENDROOT
BRANCH  11  13
HETATM   13  O2  UNK     1      18.222  -0.681  35.539  1.00  0.00    -0.351 OA
BRANCH  13  14
HETATM   14  C13 UNK     1      17.397  -0.774  36.701  1.00  0.00     0.171 C 
HETATM   15  C14 UNK     1      18.188  -1.420  37.817  1.00  0.00     0.034 C 
ENDBRANCH  13  14
ENDBRANCH  11  13
BRANCH   5  16
HETATM   16  C5  UNK     1      18.599   5.479  30.603  1.00  0.00     0.041 C 
HETATM   17  C12 UNK     1      20.053   5.821  30.389  1.00  0.00     0.010 C 
ENDBRANCH   5  16
TORSDOF 3
ENDMDL
MODEL 10
REMARK VINA RESULT:      -6.5      7.639     10.288
REMARK  3 active torsions:
REMARK  status: ('A' for Active; 'I' for Inactive)
REMARK    1  A    between atoms: C10_13  and  O2_2 
REMARK    2  A    between atoms: C13_16  and  O2_2 
REMARK    3  A    between atoms: C3_6  and  C5_8 
ROOT
HETATM    1  O1  UNK     1      23.317  -7.969  37.716  1.00  0.00    -0.274 OA
HETATM    2  O3  UNK     1      23.156  -6.045  38.909  1.00  0.00    -0.259 OA
HETATM    3  C1  UNK     1      20.668  -7.556  36.804  1.00  0.00    -0.037 A 
HETATM    4  C2  UNK     1      21.437  -8.744  36.380  1.00  0.00     0.005 A 
HETATM    5  C3  UNK     1      21.226  -6.678  37.665  1.00  0.00     0.024 A 
HETATM    6  C4  UNK     1      22.737  -8.908  36.850  1.00  0.00     0.092 A 
HETATM    7  C6  UNK     1      20.935  -9.740  35.528  1.00  0.00     0.017 A 
HETATM    8  C7  UNK     1      22.624  -6.853  38.154  1.00  0.00     0.295 A 
HETATM    9  C8  UNK     1      19.286  -7.395  36.221  1.00  0.00     0.050 C 
HETATM   10  C9  UNK     1      23.532 -10.001  36.497  1.00  0.00     0.075 A 
HETATM   11  C10 UNK     1      23.016 -10.974  35.648  1.00  0.00     0.071 A 
HETATM   12  C11 UNK     1      21.717 -10.844  35.164  1.00  0.00     0.038 A 
ENDROOT
BRANCH  11  13
HETATM   13  O2  UNK     1      23.774 -12.046  35.294  1.00  0.00    -0.351 OA
BRANCH  13  14
HETATM   14  C13 UNK     1      24.950 -12.295  36.064  1.00  0.00     0.171 C 
HETATM   15  C14 UNK     1      24.878 -13.695  36.634  1.00  0.00     0.034 C 
ENDBRANCH  13  14
ENDBRANCH  11  13
BRANCH   5  16
HETATM   16  C5  UNK     1      20.532  -5.462  38.226  1.00  0.00     0.041 C 
HETATM   17  C12 UNK     1      20.732  -4.284  37.306  1.00  0.00     0.010 C 
ENDBRANCH   5  16
TORSDOF 3
ENDMDL
