MODEL 1
REMARK VINA RESULT:      -6.9      0.000      0.000
REMARK  1 active torsions:
REMARK  status: ('A' for Active; 'I' for Inactive)
REMARK    1  A    between atoms: C3_6  and  C9_12 
ROOT
HETATM    1  O1  UNK     1      18.768   0.605  32.796  1.00  0.00    -0.275 OA
HETATM    2  O2  UNK     1      17.780   2.233  34.063  1.00  0.00    -0.260 OA
HETATM    3  C1  UNK     1      19.247   1.050  30.443  1.00  0.00     0.005 A 
HETATM    4  C2  UNK     1      19.274   0.196  31.546  1.00  0.00     0.090 A 
HETATM    5  C3  UNK     1      18.677   2.393  30.606  1.00  0.00    -0.026 A 
HETATM    6  C4  UNK     1      20.313  -1.556  30.269  1.00  0.00    -0.059 A 
HETATM    7  C5  UNK     1      19.770   0.568  29.235  1.00  0.00     0.015 A 
HETATM    8  C6  UNK     1      19.797  -1.096  31.477  1.00  0.00     0.045 A 
HETATM    9  C7  UNK     1      20.299  -0.726  29.150  1.00  0.00     0.007 A 
HETATM   10  C8  UNK     1      18.203   2.756  31.806  1.00  0.00     0.091 A 
HETATM   11  C10 UNK     1      18.223   1.866  32.980  1.00  0.00     0.288 A 
HETATM   12  C11 UNK     1      20.876  -2.933  30.172  1.00  0.00     0.048 C 
ENDROOT
BRANCH   5  13
HETATM   13  C9  UNK     1      18.634   3.335  29.438  1.00  0.00     0.154 C 
HETATM   14 Cl1  UNK     1      19.194   4.935  29.936  1.00  0.00    -0.126 Cl
ENDBRANCH   5  13
TORSDOF 1
ENDMDL
MODEL 2
REMARK VINA RESULT:      -6.8      9.321     10.921
REMARK  1 active torsions:
REMARK  status: ('A' for Active; 'I' for Inactive)
REMARK    1  A    between atoms: C3_6  and  C9_12 
ROOT
HETATM    1  O1  UNK     1      21.373  -7.669  35.401  1.00  0.00    -0.275 OA
HETATM    2  O2  UNK     1      20.817  -7.391  33.200  1.00  0.00    -0.260 OA
HETATM    3  C1  UNK     1      19.691  -7.243  37.121  1.00  0.00     0.005 A 
HETATM    4  C2  UNK     1      20.984  -7.618  36.755  1.00  0.00     0.090 A 
HETATM    5  C3  UNK     1      18.732  -6.899  36.063  1.00  0.00    -0.026 A 
HETATM    6  C4  UNK     1      21.632  -7.928  39.049  1.00  0.00    -0.059 A 
HETATM    7  C5  UNK     1      19.384  -7.218  38.488  1.00  0.00     0.015 A 
HETATM    8  C6  UNK     1      21.957  -7.959  37.696  1.00  0.00     0.045 A 
HETATM    9  C7  UNK     1      20.349  -7.558  39.444  1.00  0.00     0.007 A 
HETATM   10  C8  UNK     1      19.128  -6.957  34.783  1.00  0.00     0.091 A 
HETATM   11  C10 UNK     1      20.490  -7.350  34.381  1.00  0.00     0.288 A 
HETATM   12  C11 UNK     1      22.655  -8.288  40.072  1.00  0.00     0.048 C 
ENDROOT
BRANCH   5  13
HETATM   13  C9  UNK     1      17.333  -6.493  36.424  1.00  0.00     0.154 C 
HETATM   14 Cl1  UNK     1      16.197  -7.122  35.226  1.00  0.00    -0.126 Cl
ENDBRANCH   5  13
TORSDOF 1
ENDMDL
MODEL 3
REMARK VINA RESULT:      -6.4     22.163     23.848
REMARK  1 active torsions:
REMARK  status: ('A' for Active; 'I' for Inactive)
REMARK    1  A    between atoms: C3_6  and  C9_12 
ROOT
HETATM    1  O1  UNK     1      13.905   4.717   8.624  1.00  0.00    -0.275 OA
HETATM    2  O2  UNK     1      15.694   3.988   9.848  1.00  0.00    -0.260 OA
HETATM    3  C1  UNK     1      13.092   6.999   8.941  1.00  0.00     0.005 A 
HETATM    4  C2  UNK     1      13.006   5.757   8.311  1.00  0.00     0.090 A 
HETATM    5  C3  UNK     1      14.143   7.208   9.945  1.00  0.00    -0.026 A 
HETATM    6  C4  UNK     1      11.123   6.462   6.994  1.00  0.00    -0.059 A 
HETATM    7  C5  UNK     1      12.161   7.980   8.572  1.00  0.00     0.015 A 
HETATM    8  C6  UNK     1      12.038   5.474   7.346  1.00  0.00     0.045 A 
HETATM    9  C7  UNK     1      11.184   7.712   7.606  1.00  0.00     0.007 A 
HETATM   10  C8  UNK     1      14.985   6.202  10.223  1.00  0.00     0.091 A 
HETATM   11  C10 UNK     1      14.907   4.885   9.568  1.00  0.00     0.288 A 
HETATM   12  C11 UNK     1      10.080   6.183   5.966  1.00  0.00     0.048 C 
ENDROOT
BRANCH   5  13
HETATM   13  C9  UNK     1      14.262   8.533  10.639  1.00  0.00     0.154 C 
HETATM   14 Cl1  UNK     1      15.502   8.443  11.895  1.00  0.00    -0.126 Cl
ENDBRANCH   5  13
TORSDOF 1
ENDMDL
MODEL 4
REMARK VINA RESULT:      -6.4      6.793      8.248
REMARK  1 active torsions:
REMARK  status: ('A' for Active; 'I' for Inactive)
REMARK    1  A    between atoms: C3_6  and  C9_12 
ROOT
HETATM    1  O1  UNK     1      16.033   6.658  32.044  1.00  0.00    -0.275 OA
HETATM    2  O2  UNK     1      13.780   6.737  31.658  1.00  0.00    -0.260 OA
HETATM    3  C1  UNK     1      17.024   8.207  33.652  1.00  0.00     0.005 A 
HETATM    4  C2  UNK     1      17.153   7.165  32.733  1.00  0.00     0.090 A 
HETATM    5  C3  UNK     1      15.690   8.771  33.893  1.00  0.00    -0.026 A 
HETATM    6  C4  UNK     1      19.526   7.031  33.093  1.00  0.00    -0.059 A 
HETATM    7  C5  UNK     1      18.187   8.655  34.295  1.00  0.00     0.015 A 
HETATM    8  C6  UNK     1      18.384   6.573  32.444  1.00  0.00     0.045 A 
HETATM    9  C7  UNK     1      19.428   8.070  34.016  1.00  0.00     0.007 A 
HETATM   10  C8  UNK     1      14.642   8.269  33.225  1.00  0.00     0.091 A 
HETATM   11  C10 UNK     1      14.762   7.171  32.251  1.00  0.00     0.288 A 
HETATM   12  C11 UNK     1      20.851   6.414  32.800  1.00  0.00     0.048 C 
ENDROOT
BRANCH   5  13
HETATM   13  C9  UNK     1      15.518   9.892  34.876  1.00  0.00     0.154 C 
HETATM   14 Cl1  UNK     1      13.922  10.625  34.678  1.00  0.00    -0.126 Cl
ENDBRANCH   5  13
TORSDOF 1
ENDMDL
MODEL 5
REMARK VINA RESULT:      -6.3     14.779     15.333
REMARK  1 active torsions:
REMARK  status: ('A' for Active; 'I' for Inactive)
REMARK    1  A    between atoms: C3_6  and  C9_12 
ROOT
HETATM    1  O1  UNK     1      28.657  -5.485  39.657  1.00  0.00    -0.275 OA
HETATM    2  O2  UNK     1      29.365  -3.320  39.861  1.00  0.00    -0.260 OA
HETATM    3  C1  UNK     1      29.928  -7.029  38.254  1.00  0.00     0.005 A 
HETATM    4  C2  UNK     1      28.852  -6.766  39.102  1.00  0.00     0.090 A 
HETATM    5  C3  UNK     1      30.864  -5.940  37.946  1.00  0.00    -0.026 A 
HETATM    6  C4  UNK     1      28.055  -9.028  38.929  1.00  0.00    -0.059 A 
HETATM    7  C5  UNK     1      30.051  -8.329  37.744  1.00  0.00     0.015 A 
HETATM    8  C6  UNK     1      27.915  -7.743  39.445  1.00  0.00     0.045 A 
HETATM    9  C7  UNK     1      29.120  -9.320  38.080  1.00  0.00     0.007 A 
HETATM   10  C8  UNK     1      30.656  -4.732  38.488  1.00  0.00     0.091 A 
HETATM   11  C10 UNK     1      29.524  -4.438  39.384  1.00  0.00     0.288 A 
HETATM   12  C11 UNK     1      27.068 -10.087  39.281  1.00  0.00     0.048 C 
ENDROOT
BRANCH   5  13
HETATM   13  C9  UNK     1      32.032  -6.192  37.038  1.00  0.00     0.154 C 
HETATM   14 Cl1  UNK     1      33.537  -5.775  37.866  1.00  0.00    -0.126 Cl
ENDBRANCH   5  13
TORSDOF 1
ENDMDL
MODEL 6
REMARK VINA RESULT:      -6.3      2.855      5.557
REMARK  1 active torsions:
REMARK  status: ('A' for Active; 'I' for Inactive)
REMARK    1  A    between atoms: C3_6  and  C9_12 
ROOT
HETATM    1  O1  UNK     1      18.080   3.277  33.697  1.00  0.00    -0.275 OA
HETATM    2  O2  UNK     1      17.911   0.996  33.719  1.00  0.00    -0.260 OA
HETATM    3  C1  UNK     1      18.472   4.425  31.577  1.00  0.00     0.005 A 
HETATM    4  C2  UNK     1      18.274   4.461  32.958  1.00  0.00     0.090 A 
HETATM    5  C3  UNK     1      18.476   3.121  30.901  1.00  0.00    -0.026 A 
HETATM    6  C4  UNK     1      18.441   6.858  33.003  1.00  0.00    -0.059 A 
HETATM    7  C5  UNK     1      18.657   5.646  30.915  1.00  0.00     0.015 A 
HETATM    8  C6  UNK     1      18.256   5.656  33.679  1.00  0.00     0.045 A 
HETATM    9  C7  UNK     1      18.642   6.854  31.624  1.00  0.00     0.007 A 
HETATM   10  C8  UNK     1      18.289   2.011  31.628  1.00  0.00     0.091 A 
HETATM   11  C10 UNK     1      18.079   2.032  33.086  1.00  0.00     0.288 A 
HETATM   12  C11 UNK     1      18.426   8.147  33.752  1.00  0.00     0.048 C 
ENDROOT
BRANCH   5  13
HETATM   13  C9  UNK     1      18.687   3.049  29.416  1.00  0.00     0.154 C 
HETATM   14 Cl1  UNK     1      17.787   1.684  28.748  1.00  0.00    -0.126 Cl
ENDBRANCH   5  13
TORSDOF 1
ENDMDL
MODEL 7
REMARK VINA RESULT:      -6.3      8.877     10.677
REMARK  1 active torsions:
REMARK  status: ('A' for Active; 'I' for Inactive)
REMARK    1  A    between atoms: C3_6  and  C9_12 
ROOT
HETATM    1  O1  UNK     1      20.468  -8.440  34.752  1.00  0.00    -0.275 OA
HETATM    2  O2  UNK     1      20.948  -7.261  32.851  1.00  0.00    -0.260 OA
HETATM    3  C1  UNK     1      19.669  -7.246  36.727  1.00  0.00     0.005 A 
HETATM    4  C2  UNK     1      20.026  -8.435  36.090  1.00  0.00     0.090 A 
HETATM    5  C3  UNK     1      19.762  -5.988  35.974  1.00  0.00    -0.026 A 
HETATM    6  C4  UNK     1      19.539  -9.731  38.055  1.00  0.00    -0.059 A 
HETATM    7  C5  UNK     1      19.240  -7.326  38.059  1.00  0.00     0.015 A 
HETATM    8  C6  UNK     1      19.968  -9.673  36.733  1.00  0.00     0.045 A 
HETATM    9  C7  UNK     1      19.176  -8.560  38.717  1.00  0.00     0.007 A 
HETATM   10  C8  UNK     1      20.184  -6.023  34.702  1.00  0.00     0.091 A 
HETATM   11  C10 UNK     1      20.566  -7.269  34.016  1.00  0.00     0.288 A 
HETATM   12  C11 UNK     1      19.470 -11.041  38.762  1.00  0.00     0.048 C 
ENDROOT
BRANCH   5  13
HETATM   13  C9  UNK     1      19.384  -4.693  36.631  1.00  0.00     0.154 C 
HETATM   14 Cl1  UNK     1      20.777  -4.028  37.491  1.00  0.00    -0.126 Cl
ENDBRANCH   5  13
TORSDOF 1
ENDMDL
MODEL 8
REMARK VINA RESULT:      -6.2      6.118      8.028
REMARK  1 active torsions:
REMARK  status: ('A' for Active; 'I' for Inactive)
REMARK    1  A    between atoms: C3_6  and  C9_12 
ROOT
HETATM    1  O1  UNK     1      18.273   6.187  31.391  1.00  0.00    -0.275 OA
HETATM    2  O2  UNK     1      20.438   5.652  30.882  1.00  0.00    -0.260 OA
HETATM    3  C1  UNK     1      17.799   7.426  33.441  1.00  0.00     0.005 A 
HETATM    4  C2  UNK     1      17.362   6.799  32.274  1.00  0.00     0.090 A 
HETATM    5  C3  UNK     1      19.238   7.438  33.737  1.00  0.00    -0.026 A 
HETATM    6  C4  UNK     1      15.066   7.330  32.751  1.00  0.00    -0.059 A 
HETATM    7  C5  UNK     1      16.830   8.012  34.267  1.00  0.00     0.015 A 
HETATM    8  C6  UNK     1      16.013   6.742  31.918  1.00  0.00     0.045 A 
HETATM    9  C7  UNK     1      15.473   7.963  33.923  1.00  0.00     0.007 A 
HETATM   10  C8  UNK     1      20.082   6.849  32.879  1.00  0.00     0.091 A 
HETATM   11  C10 UNK     1      19.636   6.182  31.644  1.00  0.00     0.288 A 
HETATM   12  C11 UNK     1      13.620   7.280  32.391  1.00  0.00     0.048 C 
ENDROOT
BRANCH   5  13
HETATM   13  C9  UNK     1      19.739   8.105  34.984  1.00  0.00     0.154 C 
HETATM   14 Cl1  UNK     1      20.649   9.560  34.563  1.00  0.00    -0.126 Cl
ENDBRANCH   5  13
TORSDOF 1
ENDMDL
MODEL 9
REMARK VINA RESULT:      -6.2      2.120      4.530
REMARK  1 active torsions:
REMARK  status: ('A' for Active; 'I' for Inactive)
REMARK    1  A    between atoms: C3_6  and  C9_12 
ROOT
HETATM    1  O1  UNK     1      18.577   0.924  33.262  1.00  0.00    -0.275 OA
HETATM    2  O2  UNK     1      19.009  -1.305  33.538  1.00  0.00    -0.260 OA
HETATM    3  C1  UNK     1      18.885   1.936  31.059  1.00  0.00     0.005 A 
HETATM    4  C2  UNK     1      18.534   2.043  32.406  1.00  0.00     0.090 A 
HETATM    5  C3  UNK     1      19.303   0.626  30.544  1.00  0.00    -0.026 A 
HETATM    6  C4  UNK     1      18.064   4.390  32.182  1.00  0.00    -0.059 A 
HETATM    7  C5  UNK     1      18.815   3.096  30.275  1.00  0.00     0.015 A 
HETATM    8  C6  UNK     1      18.127   3.250  32.977  1.00  0.00     0.045 A 
HETATM    9  C7  UNK     1      18.408   4.313  30.834  1.00  0.00     0.007 A 
HETATM   10  C8  UNK     1      19.334  -0.422  31.379  1.00  0.00     0.091 A 
HETATM   11  C10 UNK     1      18.968  -0.324  32.803  1.00  0.00     0.288 A 
HETATM   12  C11 UNK     1      17.632   5.690  32.770  1.00  0.00     0.048 C 
ENDROOT
BRANCH   5  13
HETATM   13  C9  UNK     1      19.685   0.478  29.100  1.00  0.00     0.154 C 
HETATM   14 Cl1  UNK     1      20.876  -0.816  28.924  1.00  0.00    -0.126 Cl
ENDBRANCH   5  13
TORSDOF 1
ENDMDL
MODEL 10
REMARK VINA RESULT:      -6.2      4.136      5.259
REMARK  1 active torsions:
REMARK  status: ('A' for Active; 'I' for Inactive)
REMARK    1  A    between atoms: C3_6  and  C9_12 
ROOT
HETATM    1  O1  UNK     1      17.579  -0.397  33.684  1.00  0.00    -0.275 OA
HETATM    2  O2  UNK     1      16.219   0.267  35.399  1.00  0.00    -0.260 OA
HETATM    3  C1  UNK     1      19.503  -1.822  34.170  1.00  0.00     0.005 A 
HETATM    4  C2  UNK     1      18.713  -1.119  33.260  1.00  0.00     0.090 A 
HETATM    5  C3  UNK     1      19.131  -1.798  35.590  1.00  0.00    -0.026 A 
HETATM    6  C4  UNK     1      20.103  -1.782  31.414  1.00  0.00    -0.059 A 
HETATM    7  C5  UNK     1      20.614  -2.514  33.668  1.00  0.00     0.015 A 
HETATM    8  C6  UNK     1      18.996  -1.088  31.893  1.00  0.00     0.045 A 
HETATM    9  C7  UNK     1      20.910  -2.493  32.299  1.00  0.00     0.007 A 
HETATM   10  C8  UNK     1      18.047  -1.104  35.966  1.00  0.00     0.091 A 
HETATM   11  C10 UNK     1      17.204  -0.356  35.018  1.00  0.00     0.288 A 
HETATM   12  C11 UNK     1      20.425  -1.764  29.959  1.00  0.00     0.048 C 
ENDROOT
BRANCH   5  13
HETATM   13  C9  UNK     1      19.961  -2.544  36.594  1.00  0.00     0.154 C 
HETATM   14 Cl1  UNK     1      19.480  -4.244  36.624  1.00  0.00    -0.126 Cl
ENDBRANCH   5  13
TORSDOF 1
ENDMDL
