MODEL 1
REMARK VINA RESULT:     -10.0      0.000      0.000
REMARK  2 active torsions:
REMARK  status: ('A' for Active; 'I' for Inactive)
REMARK    1  A    between atoms: C12_14  and  C16_18 
REMARK    2  A    between atoms: C16_18  and  C19_21 
ROOT
HETATM    1  N1  UNK     1      18.172  -1.324  35.929  1.00  0.00    -0.375 N 
HETATM    2  C1  UNK     1      17.347  -0.100  35.738  1.00  0.00     0.029 C 
HETATM    3  C2  UNK     1      18.117   0.924  34.862  1.00  0.00     0.070 C 
HETATM    4  C3  UNK     1      18.660   0.305  33.591  1.00  0.00    -0.032 A 
HETATM    5  C4  UNK     1      19.184  -1.001  33.701  1.00  0.00    -0.002 A 
HETATM    6  C5  UNK     1      19.200  -1.671  35.034  1.00  0.00     0.045 C 
HETATM    7  C6  UNK     1      16.011  -0.485  35.073  1.00  0.00     0.038 C 
HETATM    8  C7  UNK     1      17.064   0.602  37.084  1.00  0.00     0.038 C 
HETATM    9  C8  UNK     1      18.681   1.002  32.344  1.00  0.00    -0.019 A 
HETATM   10  C9  UNK     1      17.848  -2.185  37.073  1.00  0.00     0.150 C 
HETATM   11  C10 UNK     1      19.636  -1.645  32.542  1.00  0.00     0.015 A 
HETATM   12  C11 UNK     1      19.169   0.325  31.199  1.00  0.00    -0.025 A 
HETATM   13  C12 UNK     1      20.204  -2.524  35.316  1.00  0.00     0.085 C 
HETATM   14  C13 UNK     1      19.626  -0.992  31.312  1.00  0.00     0.013 A 
HETATM   15  C14 UNK     1      18.248   2.339  32.166  1.00  0.00     0.013 A 
HETATM   16  C15 UNK     1      19.195   0.967  29.950  1.00  0.00     0.012 A 
HETATM   17  C17 UNK     1      18.281   2.966  30.918  1.00  0.00     0.001 A 
HETATM   18  C18 UNK     1      18.752   2.279  29.809  1.00  0.00     0.001 A 
ENDROOT
BRANCH  13  19
HETATM   19  C16 UNK     1      20.244  -3.202  36.632  1.00  0.00     0.184 C 
HETATM   20  O1  UNK     1      20.393  -2.596  37.688  1.00  0.00    -0.288 OA
BRANCH  19  21
HETATM   21  C19 UNK     1      20.063  -4.674  36.648  1.00  0.00     0.015 A 
HETATM   22  C20 UNK     1      20.087  -5.339  37.858  1.00  0.00     0.022 A 
HETATM   23  C22 UNK     1      19.916  -6.723  37.871  1.00  0.00    -0.061 A 
HETATM   24  C24 UNK     1      19.727  -7.414  36.674  1.00  0.00     0.007 A 
HETATM   25  C25 UNK     1      19.935  -7.464  39.166  1.00  0.00     0.048 C 
HETATM   26  C23 UNK     1      19.707  -6.721  35.464  1.00  0.00     0.002 A 
HETATM   27  C21 UNK     1      19.878  -5.337  35.450  1.00  0.00     0.015 A 
ENDBRANCH  19  21
ENDBRANCH  13  19
TORSDOF 2
ENDMDL
MODEL 2
REMARK VINA RESULT:      -8.7     11.405     13.701
REMARK  2 active torsions:
REMARK  status: ('A' for Active; 'I' for Inactive)
REMARK    1  A    between atoms: C12_14  and  C16_18 
REMARK    2  A    between atoms: C16_18  and  C19_21 
ROOT
HETATM    1  N1  UNK     1      30.476  -6.231  34.493  1.00  0.00    -0.375 N 
HETATM    2  C1  UNK     1      30.900  -6.033  35.906  1.00  0.00     0.029 C 
HETATM    3  C2  UNK     1      29.672  -6.150  36.847  1.00  0.00     0.070 C 
HETATM    4  C3  UNK     1      28.860  -7.401  36.585  1.00  0.00    -0.032 A 
HETATM    5  C4  UNK     1      28.699  -7.776  35.232  1.00  0.00    -0.002 A 
HETATM    6  C5  UNK     1      29.297  -6.924  34.164  1.00  0.00     0.045 C 
HETATM    7  C6  UNK     1      31.965  -7.086  36.271  1.00  0.00     0.038 C 
HETATM    8  C7  UNK     1      31.484  -4.619  36.124  1.00  0.00     0.038 C 
HETATM    9  C8  UNK     1      28.252  -8.158  37.633  1.00  0.00    -0.019 A 
HETATM   10  C9  UNK     1      31.359  -5.706  33.443  1.00  0.00     0.150 C 
HETATM   11  C10 UNK     1      28.015  -8.962  34.939  1.00  0.00     0.015 A 
HETATM   12  C11 UNK     1      27.548  -9.340  37.293  1.00  0.00    -0.025 A 
HETATM   13  C12 UNK     1      28.663  -6.836  32.978  1.00  0.00     0.085 C 
HETATM   14  C13 UNK     1      27.451  -9.731  35.954  1.00  0.00     0.013 A 
HETATM   15  C14 UNK     1      28.300  -7.808  39.004  1.00  0.00     0.013 A 
HETATM   16  C15 UNK     1      26.947 -10.122  38.293  1.00  0.00     0.012 A 
HETATM   17  C17 UNK     1      27.696  -8.595  39.988  1.00  0.00     0.001 A 
HETATM   18  C18 UNK     1      27.022  -9.754  39.633  1.00  0.00     0.001 A 
ENDROOT
BRANCH  13  19
HETATM   19  C16 UNK     1      29.236  -5.996  31.900  1.00  0.00     0.184 C 
HETATM   20  O1  UNK     1      29.326  -4.776  31.984  1.00  0.00    -0.288 OA
BRANCH  19  21
HETATM   21  C19 UNK     1      29.742  -6.690  30.691  1.00  0.00     0.015 A 
HETATM   22  C20 UNK     1      29.090  -7.822  30.245  1.00  0.00     0.022 A 
HETATM   23  C22 UNK     1      29.567  -8.473  29.108  1.00  0.00    -0.061 A 
HETATM   24  C24 UNK     1      30.687  -7.979  28.440  1.00  0.00     0.007 A 
HETATM   25  C25 UNK     1      28.879  -9.698  28.606  1.00  0.00     0.048 C 
HETATM   26  C23 UNK     1      31.330  -6.834  28.909  1.00  0.00     0.002 A 
HETATM   27  C21 UNK     1      30.854  -6.182  30.046  1.00  0.00     0.015 A 
ENDBRANCH  19  21
ENDBRANCH  13  19
TORSDOF 2
ENDMDL
MODEL 3
REMARK VINA RESULT:      -8.6     11.646     14.248
REMARK  2 active torsions:
REMARK  status: ('A' for Active; 'I' for Inactive)
REMARK    1  A    between atoms: C12_14  and  C16_18 
REMARK    2  A    between atoms: C16_18  and  C19_21 
ROOT
HETATM    1  N1  UNK     1      31.762  -8.715  34.078  1.00  0.00    -0.375 N 
HETATM    2  C1  UNK     1      32.503  -7.461  34.384  1.00  0.00     0.029 C 
HETATM    3  C2  UNK     1      31.511  -6.363  34.853  1.00  0.00     0.070 C 
HETATM    4  C3  UNK     1      30.585  -6.851  35.947  1.00  0.00    -0.032 A 
HETATM    5  C4  UNK     1      30.102  -8.173  35.822  1.00  0.00    -0.002 A 
HETATM    6  C5  UNK     1      30.499  -8.984  34.635  1.00  0.00     0.045 C 
HETATM    7  C6  UNK     1      33.554  -7.743  35.474  1.00  0.00     0.038 C 
HETATM    8  C7  UNK     1      33.207  -6.904  33.127  1.00  0.00     0.038 C 
HETATM    9  C8  UNK     1      30.180  -6.023  37.039  1.00  0.00    -0.019 A 
HETATM   10  C9  UNK     1      32.419  -9.689  33.196  1.00  0.00     0.150 C 
HETATM   11  C10 UNK     1      29.298  -8.695  36.842  1.00  0.00     0.015 A 
HETATM   12  C11 UNK     1      29.345  -6.581  38.038  1.00  0.00    -0.025 A 
HETATM   13  C12 UNK     1      29.623  -9.884  34.146  1.00  0.00     0.085 C 
HETATM   14  C13 UNK     1      28.928  -7.912  37.933  1.00  0.00     0.013 A 
HETATM   15  C14 UNK     1      30.554  -4.666  37.196  1.00  0.00     0.013 A 
HETATM   16  C15 UNK     1      28.935  -5.807  39.137  1.00  0.00     0.012 A 
HETATM   17  C17 UNK     1      30.138  -3.907  38.292  1.00  0.00     0.001 A 
HETATM   18  C18 UNK     1      29.330  -4.479  39.265  1.00  0.00     0.001 A 
ENDROOT
BRANCH  13  19
HETATM   19  C16 UNK     1      29.991 -10.702  32.967  1.00  0.00     0.184 C 
HETATM   20  O1  UNK     1      30.611 -11.757  33.058  1.00  0.00    -0.288 OA
BRANCH  19  21
HETATM   21  C19 UNK     1      29.553 -10.219  31.636  1.00  0.00     0.015 A 
HETATM   22  C20 UNK     1      28.613  -9.210  31.566  1.00  0.00     0.022 A 
HETATM   23  C22 UNK     1      28.202  -8.755  30.314  1.00  0.00    -0.061 A 
HETATM   24  C24 UNK     1      28.738  -9.319  29.156  1.00  0.00     0.007 A 
HETATM   25  C25 UNK     1      27.189  -7.665  30.211  1.00  0.00     0.048 C 
HETATM   26  C23 UNK     1      29.687 -10.338  29.252  1.00  0.00     0.002 A 
HETATM   27  C21 UNK     1      30.098 -10.793  30.504  1.00  0.00     0.015 A 
ENDBRANCH  19  21
ENDBRANCH  13  19
TORSDOF 2
ENDMDL
MODEL 4
REMARK VINA RESULT:      -8.4     12.603     15.532
REMARK  2 active torsions:
REMARK  status: ('A' for Active; 'I' for Inactive)
REMARK    1  A    between atoms: C12_14  and  C16_18 
REMARK    2  A    between atoms: C16_18  and  C19_21 
ROOT
HETATM    1  N1  UNK     1      33.062  -6.279  36.220  1.00  0.00    -0.375 N 
HETATM    2  C1  UNK     1      32.113  -5.357  36.900  1.00  0.00     0.029 C 
HETATM    3  C2  UNK     1      30.677  -5.944  36.849  1.00  0.00     0.070 C 
HETATM    4  C3  UNK     1      30.625  -7.384  37.314  1.00  0.00    -0.032 A 
HETATM    5  C4  UNK     1      31.697  -8.214  36.917  1.00  0.00    -0.002 A 
HETATM    6  C5  UNK     1      32.778  -7.648  36.059  1.00  0.00     0.045 C 
HETATM    7  C6  UNK     1      32.561  -5.150  38.360  1.00  0.00     0.038 C 
HETATM    8  C7  UNK     1      32.051  -3.988  36.185  1.00  0.00     0.038 C 
HETATM    9  C8  UNK     1      29.541  -7.905  38.085  1.00  0.00    -0.019 A 
HETATM   10  C9  UNK     1      34.334  -5.715  35.752  1.00  0.00     0.150 C 
HETATM   11  C10 UNK     1      31.731  -9.535  37.378  1.00  0.00     0.015 A 
HETATM   12  C11 UNK     1      29.601  -9.255  38.512  1.00  0.00    -0.025 A 
HETATM   13  C12 UNK     1      33.383  -8.455  35.166  1.00  0.00     0.085 C 
HETATM   14  C13 UNK     1      30.701 -10.046  38.164  1.00  0.00     0.013 A 
HETATM   15  C14 UNK     1      28.394  -7.162  38.457  1.00  0.00     0.013 A 
HETATM   16  C15 UNK     1      28.564  -9.804  39.284  1.00  0.00     0.012 A 
HETATM   17  C17 UNK     1      27.369  -7.722  39.224  1.00  0.00     0.001 A 
HETATM   18  C18 UNK     1      27.455  -9.042  39.641  1.00  0.00     0.001 A 
ENDROOT
BRANCH  13  19
HETATM   19  C16 UNK     1      34.460  -7.918  34.302  1.00  0.00     0.184 C 
HETATM   20  O1  UNK     1      35.593  -7.693  34.714  1.00  0.00    -0.288 OA
BRANCH  19  21
HETATM   21  C19 UNK     1      34.136  -7.681  32.875  1.00  0.00     0.015 A 
HETATM   22  C20 UNK     1      32.811  -7.617  32.490  1.00  0.00     0.022 A 
HETATM   23  C22 UNK     1      32.507  -7.394  31.148  1.00  0.00    -0.061 A 
HETATM   24  C24 UNK     1      33.534  -7.241  30.216  1.00  0.00     0.007 A 
HETATM   25  C25 UNK     1      31.084  -7.318  30.707  1.00  0.00     0.048 C 
HETATM   26  C23 UNK     1      34.866  -7.310  30.628  1.00  0.00     0.002 A 
HETATM   27  C21 UNK     1      35.170  -7.533  31.970  1.00  0.00     0.015 A 
ENDBRANCH  19  21
ENDBRANCH  13  19
TORSDOF 2
ENDMDL
MODEL 5
REMARK VINA RESULT:      -8.3     11.124     13.014
REMARK  2 active torsions:
REMARK  status: ('A' for Active; 'I' for Inactive)
REMARK    1  A    between atoms: C12_14  and  C16_18 
REMARK    2  A    between atoms: C16_18  and  C19_21 
ROOT
HETATM    1  N1  UNK     1      31.033  -6.653  36.221  1.00  0.00    -0.375 N 
HETATM    2  C1  UNK     1      32.367  -7.079  35.716  1.00  0.00     0.029 C 
HETATM    3  C2  UNK     1      32.202  -7.873  34.393  1.00  0.00     0.070 C 
HETATM    4  C3  UNK     1      31.332  -7.148  33.388  1.00  0.00    -0.032 A 
HETATM    5  C4  UNK     1      30.203  -6.474  33.903  1.00  0.00    -0.002 A 
HETATM    6  C5  UNK     1      29.922  -6.536  35.367  1.00  0.00     0.045 C 
HETATM    7  C6  UNK     1      33.249  -5.834  35.495  1.00  0.00     0.038 C 
HETATM    8  C7  UNK     1      33.067  -8.030  36.712  1.00  0.00     0.038 C 
HETATM    9  C8  UNK     1      31.602  -7.161  31.985  1.00  0.00    -0.019 A 
HETATM   10  C9  UNK     1      30.925  -6.320  37.647  1.00  0.00     0.150 C 
HETATM   11  C10 UNK     1      29.404  -5.731  33.025  1.00  0.00     0.015 A 
HETATM   12  C11 UNK     1      30.755  -6.417  31.127  1.00  0.00    -0.025 A 
HETATM   13  C12 UNK     1      28.638  -6.519  35.779  1.00  0.00     0.085 C 
HETATM   14  C13 UNK     1      29.678  -5.703  31.660  1.00  0.00     0.013 A 
HETATM   15  C14 UNK     1      32.665  -7.875  31.381  1.00  0.00     0.013 A 
HETATM   16  C15 UNK     1      30.992  -6.390  29.742  1.00  0.00     0.012 A 
HETATM   17  C17 UNK     1      32.888  -7.841  30.002  1.00  0.00     0.001 A 
HETATM   18  C18 UNK     1      32.053  -7.096  29.183  1.00  0.00     0.001 A 
ENDROOT
BRANCH  13  19
HETATM   19  C16 UNK     1      28.331  -6.580  37.227  1.00  0.00     0.184 C 
HETATM   20  O1  UNK     1      28.433  -5.609  37.969  1.00  0.00    -0.288 OA
BRANCH  19  21
HETATM   21  C19 UNK     1      27.853  -7.874  37.769  1.00  0.00     0.015 A 
HETATM   22  C20 UNK     1      27.149  -8.728  36.943  1.00  0.00     0.022 A 
HETATM   23  C22 UNK     1      26.700  -9.945  37.454  1.00  0.00    -0.061 A 
HETATM   24  C24 UNK     1      26.963 -10.284  38.782  1.00  0.00     0.007 A 
HETATM   25  C25 UNK     1      25.939 -10.885  36.582  1.00  0.00     0.048 C 
HETATM   26  C23 UNK     1      27.677  -9.405  39.598  1.00  0.00     0.002 A 
HETATM   27  C21 UNK     1      28.126  -8.188  39.087  1.00  0.00     0.015 A 
ENDBRANCH  19  21
ENDBRANCH  13  19
TORSDOF 2
ENDMDL
MODEL 6
REMARK VINA RESULT:      -8.3     13.206     15.882
REMARK  2 active torsions:
REMARK  status: ('A' for Active; 'I' for Inactive)
REMARK    1  A    between atoms: C12_14  and  C16_18 
REMARK    2  A    between atoms: C16_18  and  C19_21 
ROOT
HETATM    1  N1  UNK     1      34.039  -7.199  35.384  1.00  0.00    -0.375 N 
HETATM    2  C1  UNK     1      33.795  -5.965  36.180  1.00  0.00     0.029 C 
HETATM    3  C2  UNK     1      32.269  -5.698  36.285  1.00  0.00     0.070 C 
HETATM    4  C3  UNK     1      31.498  -6.921  36.735  1.00  0.00    -0.032 A 
HETATM    5  C4  UNK     1      31.921  -8.161  36.208  1.00  0.00    -0.002 A 
HETATM    6  C5  UNK     1      33.055  -8.194  35.240  1.00  0.00     0.045 C 
HETATM    7  C6  UNK     1      34.413  -6.131  37.581  1.00  0.00     0.038 C 
HETATM    8  C7  UNK     1      34.409  -4.724  35.494  1.00  0.00     0.038 C 
HETATM    9  C8  UNK     1      30.378  -6.842  37.619  1.00  0.00    -0.019 A 
HETATM   10  C9  UNK     1      35.368  -7.362  34.781  1.00  0.00     0.150 C 
HETATM   11  C10 UNK     1      31.285  -9.330  36.646  1.00  0.00     0.015 A 
HETATM   12  C11 UNK     1      29.747  -8.045  38.019  1.00  0.00    -0.025 A 
HETATM   13  C12 UNK     1      33.052  -9.133  34.274  1.00  0.00     0.085 C 
HETATM   14  C13 UNK     1      30.217  -9.272  37.538  1.00  0.00     0.013 A 
HETATM   15  C14 UNK     1      29.844  -5.633  38.128  1.00  0.00     0.013 A 
HETATM   16  C15 UNK     1      28.651  -8.016  38.898  1.00  0.00     0.012 A 
HETATM   17  C17 UNK     1      28.753  -5.618  39.001  1.00  0.00     0.001 A 
HETATM   18  C18 UNK     1      28.158  -6.810  39.388  1.00  0.00     0.001 A 
ENDROOT
BRANCH  13  19
HETATM   19  C16 UNK     1      34.166  -9.187  33.299  1.00  0.00     0.184 C 
HETATM   20  O1  UNK     1      35.204  -9.807  33.510  1.00  0.00    -0.288 OA
BRANCH  19  21
HETATM   21  C19 UNK     1      33.980  -8.480  32.010  1.00  0.00     0.015 A 
HETATM   22  C20 UNK     1      32.716  -8.050  31.657  1.00  0.00     0.022 A 
HETATM   23  C22 UNK     1      32.543  -7.384  30.445  1.00  0.00    -0.061 A 
HETATM   24  C24 UNK     1      33.637  -7.163  29.608  1.00  0.00     0.007 A 
HETATM   25  C25 UNK     1      31.187  -6.908  30.042  1.00  0.00     0.048 C 
HETATM   26  C23 UNK     1      34.904  -7.607  29.984  1.00  0.00     0.002 A 
HETATM   27  C21 UNK     1      35.078  -8.272  31.197  1.00  0.00     0.015 A 
ENDBRANCH  19  21
ENDBRANCH  13  19
TORSDOF 2
ENDMDL
MODEL 7
REMARK VINA RESULT:      -8.3     11.844     14.003
REMARK  2 active torsions:
REMARK  status: ('A' for Active; 'I' for Inactive)
REMARK    1  A    between atoms: C12_14  and  C16_18 
REMARK    2  A    between atoms: C16_18  and  C19_21 
ROOT
HETATM    1  N1  UNK     1      31.728  -8.361  34.397  1.00  0.00    -0.375 N 
HETATM    2  C1  UNK     1      32.479  -8.996  33.279  1.00  0.00     0.029 C 
HETATM    3  C2  UNK     1      31.548  -9.961  32.499  1.00  0.00     0.070 C 
HETATM    4  C3  UNK     1      30.237  -9.311  32.110  1.00  0.00    -0.032 A 
HETATM    5  C4  UNK     1      29.652  -8.452  33.066  1.00  0.00    -0.002 A 
HETATM    6  C5  UNK     1      30.325  -8.260  34.382  1.00  0.00     0.045 C 
HETATM    7  C6  UNK     1      33.027  -7.899  32.346  1.00  0.00     0.038 C 
HETATM    8  C7  UNK     1      33.652  -9.851  33.807  1.00  0.00     0.038 C 
HETATM    9  C8  UNK     1      29.592  -9.567  30.861  1.00  0.00    -0.019 A 
HETATM   10  C9  UNK     1      32.512  -7.804  35.507  1.00  0.00     0.150 C 
HETATM   11  C10 UNK     1      28.475  -7.772  32.728  1.00  0.00     0.015 A 
HETATM   12  C11 UNK     1      28.389  -8.878  30.567  1.00  0.00    -0.025 A 
HETATM   13  C12 UNK     1      29.563  -8.045  35.473  1.00  0.00     0.085 C 
HETATM   14  C13 UNK     1      27.855  -7.982  31.498  1.00  0.00     0.013 A 
HETATM   15  C14 UNK     1      30.071 -10.473  29.883  1.00  0.00     0.013 A 
HETATM   16  C15 UNK     1      27.729  -9.088  29.345  1.00  0.00     0.012 A 
HETATM   17  C17 UNK     1      29.404 -10.673  28.672  1.00  0.00     0.001 A 
HETATM   18  C18 UNK     1      28.234  -9.979  28.402  1.00  0.00     0.001 A 
ENDROOT
BRANCH  13  19
HETATM   19  C16 UNK     1      30.206  -7.851  36.793  1.00  0.00     0.184 C 
HETATM   20  O1  UNK     1      30.842  -8.734  37.358  1.00  0.00    -0.288 OA
BRANCH  19  21
HETATM   21  C19 UNK     1      30.087  -6.513  37.420  1.00  0.00     0.015 A 
HETATM   22  C20 UNK     1      30.754  -5.445  36.854  1.00  0.00     0.022 A 
HETATM   23  C22 UNK     1      30.641  -4.187  37.445  1.00  0.00    -0.061 A 
HETATM   24  C24 UNK     1      29.864  -4.023  38.592  1.00  0.00     0.007 A 
HETATM   25  C25 UNK     1      31.351  -3.017  36.851  1.00  0.00     0.048 C 
HETATM   26  C23 UNK     1      29.199  -5.116  39.146  1.00  0.00     0.002 A 
HETATM   27  C21 UNK     1      29.312  -6.374  38.555  1.00  0.00     0.015 A 
ENDBRANCH  19  21
ENDBRANCH  13  19
TORSDOF 2
ENDMDL
MODEL 8
REMARK VINA RESULT:      -8.1     11.523     13.454
REMARK  2 active torsions:
REMARK  status: ('A' for Active; 'I' for Inactive)
REMARK    1  A    between atoms: C12_14  and  C16_18 
REMARK    2  A    between atoms: C16_18  and  C19_21 
ROOT
HETATM    1  N1  UNK     1      31.116  -7.719  34.352  1.00  0.00    -0.375 N 
HETATM    2  C1  UNK     1      32.054  -8.379  33.402  1.00  0.00     0.029 C 
HETATM    3  C2  UNK     1      31.315  -9.499  32.622  1.00  0.00     0.070 C 
HETATM    4  C3  UNK     1      30.012  -9.020  32.018  1.00  0.00    -0.032 A 
HETATM    5  C4  UNK     1      29.239  -8.137  32.804  1.00  0.00    -0.002 A 
HETATM    6  C5  UNK     1      29.723  -7.758  34.163  1.00  0.00     0.045 C 
HETATM    7  C6  UNK     1      32.619  -7.325  32.430  1.00  0.00     0.038 C 
HETATM    8  C7  UNK     1      33.221  -9.062  34.149  1.00  0.00     0.038 C 
HETATM    9  C8  UNK     1      29.554  -9.452  30.735  1.00  0.00    -0.019 A 
HETATM   10  C9  UNK     1      31.703  -6.988  35.482  1.00  0.00     0.150 C 
HETATM   11  C10 UNK     1      28.060  -7.611  32.263  1.00  0.00     0.015 A 
HETATM   12  C11 UNK     1      28.343  -8.915  30.233  1.00  0.00    -0.025 A 
HETATM   13  C12 UNK     1      28.813  -7.519  35.129  1.00  0.00     0.085 C 
HETATM   14  C13 UNK     1      27.621  -7.993  30.998  1.00  0.00     0.013 A 
HETATM   15  C14 UNK     1      30.229 -10.393  29.920  1.00  0.00     0.013 A 
HETATM   16  C15 UNK     1      27.863  -9.301  28.971  1.00  0.00     0.012 A 
HETATM   17  C17 UNK     1      29.739 -10.770  28.667  1.00  0.00     0.001 A 
HETATM   18  C18 UNK     1      28.557 -10.222  28.191  1.00  0.00     0.001 A 
ENDROOT
BRANCH  13  19
HETATM   19  C16 UNK     1      29.267  -7.142  36.488  1.00  0.00     0.184 C 
HETATM   20  O1  UNK     1      29.582  -5.996  36.789  1.00  0.00    -0.288 OA
BRANCH  19  21
HETATM   21  C19 UNK     1      29.301  -8.209  37.517  1.00  0.00     0.015 A 
HETATM   22  C20 UNK     1      28.160  -8.472  38.247  1.00  0.00     0.022 A 
HETATM   23  C22 UNK     1      28.193  -9.476  39.215  1.00  0.00    -0.061 A 
HETATM   24  C24 UNK     1      29.368 -10.196  39.432  1.00  0.00     0.007 A 
HETATM   25  C25 UNK     1      26.973  -9.781  40.016  1.00  0.00     0.048 C 
HETATM   26  C23 UNK     1      30.510  -9.912  38.682  1.00  0.00     0.002 A 
HETATM   27  C21 UNK     1      30.476  -8.908  37.715  1.00  0.00     0.015 A 
ENDBRANCH  19  21
ENDBRANCH  13  19
TORSDOF 2
ENDMDL
MODEL 9
REMARK VINA RESULT:      -8.1     11.323     13.458
REMARK  2 active torsions:
REMARK  status: ('A' for Active; 'I' for Inactive)
REMARK    1  A    between atoms: C12_14  and  C16_18 
REMARK    2  A    between atoms: C16_18  and  C19_21 
ROOT
HETATM    1  N1  UNK     1      31.191  -8.178  35.046  1.00  0.00    -0.375 N 
HETATM    2  C1  UNK     1      31.610  -9.515  34.544  1.00  0.00     0.029 C 
HETATM    3  C2  UNK     1      30.587 -10.030  33.496  1.00  0.00     0.070 C 
HETATM    4  C3  UNK     1      30.289  -9.001  32.426  1.00  0.00    -0.032 A 
HETATM    5  C4  UNK     1      30.183  -7.659  32.854  1.00  0.00    -0.002 A 
HETATM    6  C5  UNK     1      30.339  -7.342  34.303  1.00  0.00     0.045 C 
HETATM    7  C6  UNK     1      33.015  -9.408  33.922  1.00  0.00     0.038 C 
HETATM    8  C7  UNK     1      31.633 -10.560  35.682  1.00  0.00     0.038 C 
HETATM    9  C8  UNK     1      30.088  -9.353  31.056  1.00  0.00    -0.019 A 
HETATM   10  C9  UNK     1      31.733  -7.742  36.340  1.00  0.00     0.150 C 
HETATM   11  C10 UNK     1      29.977  -6.661  31.894  1.00  0.00     0.015 A 
HETATM   12  C11 UNK     1      29.857  -8.316  30.118  1.00  0.00    -0.025 A 
HETATM   13  C12 UNK     1      29.635  -6.314  34.818  1.00  0.00     0.085 C 
HETATM   14  C13 UNK     1      29.818  -6.985  30.548  1.00  0.00     0.013 A 
HETATM   15  C14 UNK     1      30.099 -10.679  30.560  1.00  0.00     0.013 A 
HETATM   16  C15 UNK     1      29.668  -8.614  28.759  1.00  0.00     0.012 A 
HETATM   17  C17 UNK     1      29.908 -10.962  29.205  1.00  0.00     0.001 A 
HETATM   18  C18 UNK     1      29.695  -9.929  28.303  1.00  0.00     0.001 A 
ENDROOT
BRANCH  13  19
HETATM   19  C16 UNK     1      29.770  -5.978  36.254  1.00  0.00     0.184 C 
HETATM   20  O1  UNK     1      30.574  -5.151  36.670  1.00  0.00    -0.288 OA
BRANCH  19  21
HETATM   21  C19 UNK     1      28.861  -6.663  37.204  1.00  0.00     0.015 A 
HETATM   22  C20 UNK     1      27.943  -7.571  36.717  1.00  0.00     0.022 A 
HETATM   23  C22 UNK     1      27.088  -8.214  37.611  1.00  0.00    -0.061 A 
HETATM   24  C24 UNK     1      27.169  -7.936  38.976  1.00  0.00     0.007 A 
HETATM   25  C25 UNK     1      26.088  -9.201  37.110  1.00  0.00     0.048 C 
HETATM   26  C23 UNK     1      28.105  -7.014  39.446  1.00  0.00     0.002 A 
HETATM   27  C21 UNK     1      28.960  -6.371  38.551  1.00  0.00     0.015 A 
ENDBRANCH  19  21
ENDBRANCH  13  19
TORSDOF 2
ENDMDL
MODEL 10
REMARK VINA RESULT:      -8.1     12.551     14.776
REMARK  2 active torsions:
REMARK  status: ('A' for Active; 'I' for Inactive)
REMARK    1  A    between atoms: C12_14  and  C16_18 
REMARK    2  A    between atoms: C16_18  and  C19_21 
ROOT
HETATM    1  N1  UNK     1      33.240  -7.003  33.181  1.00  0.00    -0.375 N 
HETATM    2  C1  UNK     1      33.708  -8.298  32.614  1.00  0.00     0.029 C 
HETATM    3  C2  UNK     1      32.494  -9.230  32.354  1.00  0.00     0.070 C 
HETATM    4  C3  UNK     1      31.394  -8.542  31.574  1.00  0.00    -0.032 A 
HETATM    5  C4  UNK     1      31.136  -7.193  31.904  1.00  0.00    -0.002 A 
HETATM    6  C5  UNK     1      31.923  -6.546  32.993  1.00  0.00     0.045 C 
HETATM    7  C6  UNK     1      34.476  -8.032  31.305  1.00  0.00     0.038 C 
HETATM    8  C7  UNK     1      34.628  -9.044  33.605  1.00  0.00     0.038 C 
HETATM    9  C8  UNK     1      30.622  -9.214  30.577  1.00  0.00    -0.019 A 
HETATM   10  C9  UNK     1      34.220  -6.195  33.918  1.00  0.00     0.150 C 
HETATM   11  C10 UNK     1      30.176  -6.491  31.165  1.00  0.00     0.015 A 
HETATM   12  C11 UNK     1      29.642  -8.475  29.869  1.00  0.00    -0.025 A 
HETATM   13  C12 UNK     1      31.325  -5.605  33.750  1.00  0.00     0.085 C 
HETATM   14  C13 UNK     1      29.443  -7.122  30.163  1.00  0.00     0.013 A 
HETATM   15  C14 UNK     1      30.763 -10.583  30.243  1.00  0.00     0.013 A 
HETATM   16  C15 UNK     1      28.870  -9.092  28.870  1.00  0.00     0.012 A 
HETATM   17  C17 UNK     1      29.987 -11.184  29.249  1.00  0.00     0.001 A 
HETATM   18  C18 UNK     1      29.042 -10.438  28.560  1.00  0.00     0.001 A 
ENDROOT
BRANCH  13  19
HETATM   19  C16 UNK     1      32.083  -4.946  34.839  1.00  0.00     0.184 C 
HETATM   20  O1  UNK     1      32.926  -4.080  34.632  1.00  0.00    -0.288 OA
BRANCH  19  21
HETATM   21  C19 UNK     1      31.767  -5.349  36.231  1.00  0.00     0.015 A 
HETATM   22  C20 UNK     1      30.908  -4.567  36.976  1.00  0.00     0.022 A 
HETATM   23  C22 UNK     1      30.612  -4.947  38.285  1.00  0.00    -0.061 A 
HETATM   24  C24 UNK     1      31.182  -6.101  38.822  1.00  0.00     0.007 A 
HETATM   25  C25 UNK     1      29.685  -4.120  39.110  1.00  0.00     0.048 C 
HETATM   26  C23 UNK     1      32.048  -6.876  38.049  1.00  0.00     0.002 A 
HETATM   27  C21 UNK     1      32.344  -6.496  36.741  1.00  0.00     0.015 A 
ENDBRANCH  19  21
ENDBRANCH  13  19
TORSDOF 2
ENDMDL
