MODEL 1
REMARK VINA RESULT:      -8.3      0.000      0.000
REMARK  4 active torsions:
REMARK  status: ('A' for Active; 'I' for Inactive)
REMARK    1  A    between atoms: C16_20  and  O2_2 
REMARK    2  A    between atoms: C19_23  and  O3_3 
REMARK    3  A    between atoms: C22_26  and  O4_4 
REMARK    4  A    between atoms: C12_16  and  C3_7 
ROOT
HETATM    1  O1  UNK     1      20.245  -6.628  14.758  1.00  0.00    -0.334 OA
HETATM    2  C1  UNK     1      19.585  -3.894  13.811  1.00  0.00    -0.004 C 
HETATM    3  C2  UNK     1      19.214  -5.177  13.030  1.00  0.00     0.039 C 
HETATM    4  C3  UNK     1      19.088  -6.433  13.924  1.00  0.00     0.102 C 
HETATM    5  C4  UNK     1      20.244  -5.583  11.946  1.00  0.00     0.009 C 
HETATM    6  C5  UNK     1      18.379  -3.361  14.622  1.00  0.00     0.015 C 
HETATM    7  C6  UNK     1      19.850  -2.724  12.827  1.00  0.00     0.015 C 
HETATM    8  C7  UNK     1      19.158  -7.558  12.868  1.00  0.00     0.044 C 
HETATM    9  C8  UNK     1      20.252  -7.108  11.905  1.00  0.00     0.004 C 
HETATM   10  C9  UNK     1      20.744  -4.221  14.749  1.00  0.00    -0.015 A 
HETATM   11  C10 UNK     1      18.608  -1.862  14.758  1.00  0.00     0.001 C 
HETATM   12  C11 UNK     1      19.280  -1.449  13.457  1.00  0.00     0.001 C 
HETATM   13  C13 UNK     1      20.968  -5.541  15.164  1.00  0.00     0.080 A 
HETATM   14  C14 UNK     1      21.621  -3.231  15.231  1.00  0.00     0.013 A 
HETATM   15  C15 UNK     1      22.024  -5.852  16.034  1.00  0.00     0.073 A 
HETATM   16  C18 UNK     1      22.670  -3.542  16.099  1.00  0.00     0.037 A 
HETATM   17  C19 UNK     1      22.870  -4.855  16.503  1.00  0.00     0.068 A 
ENDROOT
BRANCH   4  18
HETATM   18  C12 UNK     1      17.801  -6.568  14.737  1.00  0.00     0.010 A 
HETATM   19  C16 UNK     1      16.578  -6.822  14.109  1.00  0.00     0.077 A 
HETATM   20  C20 UNK     1      15.413  -6.942  14.865  1.00  0.00     0.073 A 
HETATM   21  C22 UNK     1      15.465  -6.809  16.253  1.00  0.00     0.068 A 
HETATM   22  C21 UNK     1      16.683  -6.555  16.884  1.00  0.00     0.037 A 
HETATM   23  C17 UNK     1      17.848  -6.435  16.127  1.00  0.00     0.016 A 
BRANCH  19  24
HETATM   24  O2  UNK     1      16.510  -6.957  12.755  1.00  0.00    -0.360 OA
HETATM   25  H22 UNK     1      16.307  -7.883  12.538  1.00  0.00     0.217 HD
ENDBRANCH  19  24
BRANCH  21  26
HETATM   26  O4  UNK     1      14.328  -6.924  16.991  1.00  0.00    -0.361 OA
HETATM   27  H24 UNK     1      14.532  -6.723  17.920  1.00  0.00     0.217 HD
ENDBRANCH  21  26
ENDBRANCH   4  18
BRANCH  17  28
HETATM   28  O3  UNK     1      23.892  -5.165  17.347  1.00  0.00    -0.361 OA
HETATM   29  H23 UNK     1      24.486  -5.796  16.905  1.00  0.00     0.217 HD
ENDBRANCH  17  28
TORSDOF 4
ENDMDL
MODEL 2
REMARK VINA RESULT:      -8.2     22.111     25.548
REMARK  4 active torsions:
REMARK  status: ('A' for Active; 'I' for Inactive)
REMARK    1  A    between atoms: C16_20  and  O2_2 
REMARK    2  A    between atoms: C19_23  and  O3_3 
REMARK    3  A    between atoms: C22_26  and  O4_4 
REMARK    4  A    between atoms: C12_16  and  C3_7 
ROOT
HETATM    1  O1  UNK     1      30.992  -5.012  35.796  1.00  0.00    -0.334 OA
HETATM    2  C1  UNK     1      30.363  -7.809  36.565  1.00  0.00    -0.004 C 
HETATM    3  C2  UNK     1      30.529  -7.347  35.098  1.00  0.00     0.039 C 
HETATM    4  C3  UNK     1      31.415  -6.089  34.940  1.00  0.00     0.102 C 
HETATM    5  C4  UNK     1      29.201  -6.969  34.395  1.00  0.00     0.009 C 
HETATM    6  C5  UNK     1      31.651  -8.485  37.092  1.00  0.00     0.015 C 
HETATM    7  C6  UNK     1      29.336  -8.968  36.651  1.00  0.00     0.015 C 
HETATM    8  C7  UNK     1      31.040  -5.639  33.510  1.00  0.00     0.044 C 
HETATM    9  C8  UNK     1      29.528  -5.826  33.438  1.00  0.00     0.004 C 
HETATM   10  C9  UNK     1      30.026  -6.587  37.417  1.00  0.00    -0.015 A 
HETATM   11  C10 UNK     1      31.193  -9.449  38.178  1.00  0.00     0.001 C 
HETATM   12  C11 UNK     1      29.842  -9.961  37.702  1.00  0.00     0.001 C 
HETATM   13  C13 UNK     1      30.383  -5.302  36.985  1.00  0.00     0.080 A 
HETATM   14  C14 UNK     1      29.359  -6.694  38.652  1.00  0.00     0.013 A 
HETATM   15  C15 UNK     1      30.088  -4.173  37.764  1.00  0.00     0.073 A 
HETATM   16  C18 UNK     1      29.067  -5.570  39.427  1.00  0.00     0.037 A 
HETATM   17  C19 UNK     1      29.435  -4.307  38.983  1.00  0.00     0.068 A 
ENDROOT
BRANCH   4  18
HETATM   18  C12 UNK     1      32.926  -6.300  35.034  1.00  0.00     0.010 A 
HETATM   19  C16 UNK     1      33.763  -5.290  35.518  1.00  0.00     0.077 A 
HETATM   20  C20 UNK     1      35.139  -5.498  35.597  1.00  0.00     0.073 A 
HETATM   21  C22 UNK     1      35.685  -6.717  35.194  1.00  0.00     0.068 A 
HETATM   22  C21 UNK     1      34.853  -7.727  34.711  1.00  0.00     0.037 A 
HETATM   23  C17 UNK     1      33.476  -7.518  34.631  1.00  0.00     0.016 A 
BRANCH  19  24
HETATM   24  O2  UNK     1      33.246  -4.094  35.917  1.00  0.00    -0.360 OA
HETATM   25  H22 UNK     1      32.315  -4.043  35.640  1.00  0.00     0.217 HD
ENDBRANCH  19  24
BRANCH  21  26
HETATM   26  O4  UNK     1      37.028  -6.920  35.270  1.00  0.00    -0.361 OA
HETATM   27  H24 UNK     1      37.315  -6.791  36.190  1.00  0.00     0.217 HD
ENDBRANCH  21  26
ENDBRANCH   4  18
BRANCH  17  28
HETATM   28  O3  UNK     1      29.154  -3.207  39.733  1.00  0.00    -0.361 OA
HETATM   29  H23 UNK     1      29.501  -3.340  40.631  1.00  0.00     0.217 HD
ENDBRANCH  17  28
TORSDOF 4
ENDMDL
MODEL 3
REMARK VINA RESULT:      -8.2     20.578     24.154
REMARK  4 active torsions:
REMARK  status: ('A' for Active; 'I' for Inactive)
REMARK    1  A    between atoms: C16_20  and  O2_2 
REMARK    2  A    between atoms: C19_23  and  O3_3 
REMARK    3  A    between atoms: C22_26  and  O4_4 
REMARK    4  A    between atoms: C12_16  and  C3_7 
ROOT
HETATM    1  O1  UNK     1      29.902  -7.160  35.763  1.00  0.00    -0.334 OA
HETATM    2  C1  UNK     1      32.821  -6.631  35.852  1.00  0.00    -0.004 C 
HETATM    3  C2  UNK     1      32.208  -7.923  35.260  1.00  0.00     0.039 C 
HETATM    4  C3  UNK     1      30.753  -7.748  34.764  1.00  0.00     0.102 C 
HETATM    5  C4  UNK     1      32.130  -9.106  36.258  1.00  0.00     0.009 C 
HETATM    6  C5  UNK     1      33.180  -5.618  34.739  1.00  0.00     0.015 C 
HETATM    7  C6  UNK     1      34.211  -6.932  36.471  1.00  0.00     0.015 C 
HETATM    8  C7  UNK     1      30.296  -9.220  34.659  1.00  0.00     0.044 C 
HETATM    9  C8  UNK     1      30.864  -9.884  35.910  1.00  0.00     0.004 C 
HETATM   10  C9  UNK     1      31.808  -6.016  36.814  1.00  0.00    -0.015 A 
HETATM   11  C10 UNK     1      34.320  -4.779  35.302  1.00  0.00     0.001 C 
HETATM   12  C11 UNK     1      35.124  -5.740  36.164  1.00  0.00     0.001 C 
HETATM   13  C13 UNK     1      30.442  -6.304  36.683  1.00  0.00     0.080 A 
HETATM   14  C14 UNK     1      32.191  -5.147  37.853  1.00  0.00     0.013 A 
HETATM   15  C15 UNK     1      29.500  -5.737  37.554  1.00  0.00     0.073 A 
HETATM   16  C18 UNK     1      31.252  -4.582  38.718  1.00  0.00     0.037 A 
HETATM   17  C19 UNK     1      29.904  -4.875  38.567  1.00  0.00     0.068 A 
ENDROOT
BRANCH   4  18
HETATM   18  C12 UNK     1      30.570  -7.054  33.414  1.00  0.00     0.010 A 
HETATM   19  C16 UNK     1      29.498  -6.184  33.193  1.00  0.00     0.077 A 
HETATM   20  C20 UNK     1      29.345  -5.560  31.956  1.00  0.00     0.073 A 
HETATM   21  C22 UNK     1      30.263  -5.802  30.934  1.00  0.00     0.068 A 
HETATM   22  C21 UNK     1      31.335  -6.668  31.150  1.00  0.00     0.037 A 
HETATM   23  C17 UNK     1      31.487  -7.294  32.388  1.00  0.00     0.016 A 
BRANCH  19  24
HETATM   24  O2  UNK     1      28.593  -5.937  34.181  1.00  0.00    -0.360 OA
HETATM   25  H22 UNK     1      28.759  -6.544  34.923  1.00  0.00     0.217 HD
ENDBRANCH  19  24
BRANCH  21  26
HETATM   26  O4  UNK     1      30.114  -5.193  29.726  1.00  0.00    -0.361 OA
HETATM   27  H24 UNK     1      30.626  -5.683  29.060  1.00  0.00     0.217 HD
ENDBRANCH  21  26
ENDBRANCH   4  18
BRANCH  17  28
HETATM   28  O3  UNK     1      28.984  -4.328  39.408  1.00  0.00    -0.361 OA
HETATM   29  H23 UNK     1      29.369  -3.540  39.827  1.00  0.00     0.217 HD
ENDBRANCH  17  28
TORSDOF 4
ENDMDL
MODEL 4
REMARK VINA RESULT:      -8.1     20.387     24.023
REMARK  4 active torsions:
REMARK  status: ('A' for Active; 'I' for Inactive)
REMARK    1  A    between atoms: C16_20  and  O2_2 
REMARK    2  A    between atoms: C19_23  and  O3_3 
REMARK    3  A    between atoms: C22_26  and  O4_4 
REMARK    4  A    between atoms: C12_16  and  C3_7 
ROOT
HETATM    1  O1  UNK     1      31.399  -5.831  34.498  1.00  0.00    -0.334 OA
HETATM    2  C1  UNK     1      29.732  -8.216  35.083  1.00  0.00    -0.004 C 
HETATM    3  C2  UNK     1      31.151  -8.006  35.665  1.00  0.00     0.039 C 
HETATM    4  C3  UNK     1      31.572  -6.520  35.749  1.00  0.00     0.102 C 
HETATM    5  C4  UNK     1      32.281  -8.677  34.845  1.00  0.00     0.009 C 
HETATM    6  C5  UNK     1      28.640  -7.825  36.107  1.00  0.00     0.015 C 
HETATM    7  C6  UNK     1      29.453  -9.729  34.881  1.00  0.00     0.015 C 
HETATM    8  C7  UNK     1      33.101  -6.655  35.927  1.00  0.00     0.044 C 
HETATM    9  C8  UNK     1      33.499  -7.765  34.960  1.00  0.00     0.004 C 
HETATM   10  C9  UNK     1      29.599  -7.364  33.823  1.00  0.00    -0.015 A 
HETATM   11  C10 UNK     1      27.421  -8.663  35.746  1.00  0.00     0.001 C 
HETATM   12  C11 UNK     1      27.988  -9.984  35.250  1.00  0.00     0.001 C 
HETATM   13  C13 UNK     1      30.415  -6.238  33.640  1.00  0.00     0.080 A 
HETATM   14  C14 UNK     1      28.669  -7.663  32.810  1.00  0.00     0.013 A 
HETATM   15  C15 UNK     1      30.294  -5.442  32.492  1.00  0.00     0.073 A 
HETATM   16  C18 UNK     1      28.549  -6.868  31.668  1.00  0.00     0.037 A 
HETATM   17  C19 UNK     1      29.362  -5.754  31.510  1.00  0.00     0.068 A 
ENDROOT
BRANCH   4  18
HETATM   18  C12 UNK     1      30.988  -5.707  36.905  1.00  0.00     0.010 A 
HETATM   19  C16 UNK     1      31.015  -4.309  36.885  1.00  0.00     0.077 A 
HETATM   20  C20 UNK     1      30.478  -3.584  37.947  1.00  0.00     0.073 A 
HETATM   21  C22 UNK     1      29.912  -4.251  39.033  1.00  0.00     0.068 A 
HETATM   22  C21 UNK     1      29.883  -5.645  39.057  1.00  0.00     0.037 A 
HETATM   23  C17 UNK     1      30.421  -6.372  37.994  1.00  0.00     0.016 A 
BRANCH  19  24
HETATM   24  O2  UNK     1      31.562  -3.643  35.831  1.00  0.00    -0.360 OA
HETATM   25  H22 UNK     1      30.988  -2.893  35.597  1.00  0.00     0.217 HD
ENDBRANCH  19  24
BRANCH  21  26
HETATM   26  O4  UNK     1      29.389  -3.543  40.071  1.00  0.00    -0.361 OA
HETATM   27  H24 UNK     1      28.770  -2.880  39.720  1.00  0.00     0.217 HD
ENDBRANCH  21  26
ENDBRANCH   4  18
BRANCH  17  28
HETATM   28  O3  UNK     1      29.251  -4.976  30.399  1.00  0.00    -0.361 OA
HETATM   29  H23 UNK     1      28.754  -5.463  29.720  1.00  0.00     0.217 HD
ENDBRANCH  17  28
TORSDOF 4
ENDMDL
MODEL 5
REMARK VINA RESULT:      -7.9     17.871     21.438
REMARK  4 active torsions:
REMARK  status: ('A' for Active; 'I' for Inactive)
REMARK    1  A    between atoms: C16_20  and  O2_2 
REMARK    2  A    between atoms: C19_23  and  O3_3 
REMARK    3  A    between atoms: C22_26  and  O4_4 
REMARK    4  A    between atoms: C12_16  and  C3_7 
ROOT
HETATM    1  O1  UNK     1      31.687  -6.708  31.840  1.00  0.00    -0.334 OA
HETATM    2  C1  UNK     1      29.586  -8.221  33.289  1.00  0.00    -0.004 C 
HETATM    3  C2  UNK     1      29.280  -7.041  32.336  1.00  0.00     0.039 C 
HETATM    4  C3  UNK     1      30.372  -6.809  31.266  1.00  0.00     0.102 C 
HETATM    5  C4  UNK     1      29.144  -5.670  33.045  1.00  0.00     0.009 C 
HETATM    6  C5  UNK     1      29.374  -9.583  32.584  1.00  0.00     0.015 C 
HETATM    7  C6  UNK     1      28.531  -8.282  34.424  1.00  0.00     0.015 C 
HETATM    8  C7  UNK     1      30.027  -5.380  30.793  1.00  0.00     0.044 C 
HETATM    9  C8  UNK     1      29.694  -4.626  32.076  1.00  0.00     0.004 C 
HETATM   10  C9  UNK     1      31.032  -8.095  33.761  1.00  0.00    -0.015 A 
HETATM   11  C10 UNK     1      29.031 -10.568  33.693  1.00  0.00     0.001 C 
HETATM   12  C11 UNK     1      28.232  -9.759  34.703  1.00  0.00     0.001 C 
HETATM   13  C13 UNK     1      31.966  -7.378  32.998  1.00  0.00     0.080 A 
HETATM   14  C14 UNK     1      31.486  -8.683  34.956  1.00  0.00     0.013 A 
HETATM   15  C15 UNK     1      33.299  -7.264  33.417  1.00  0.00     0.073 A 
HETATM   16  C18 UNK     1      32.815  -8.570  35.370  1.00  0.00     0.037 A 
HETATM   17  C19 UNK     1      33.724  -7.861  34.597  1.00  0.00     0.068 A 
ENDROOT
BRANCH   4  18
HETATM   18  C12 UNK     1      30.371  -7.762  30.070  1.00  0.00     0.010 A 
HETATM   19  C16 UNK     1      31.528  -7.963  29.311  1.00  0.00     0.077 A 
HETATM   20  C20 UNK     1      31.510  -8.835  28.223  1.00  0.00     0.073 A 
HETATM   21  C22 UNK     1      30.336  -9.510  27.890  1.00  0.00     0.068 A 
HETATM   22  C21 UNK     1      29.180  -9.313  28.644  1.00  0.00     0.037 A 
HETATM   23  C17 UNK     1      29.198  -8.439  29.732  1.00  0.00     0.016 A 
BRANCH  19  24
HETATM   24  O2  UNK     1      32.683  -7.313  29.625  1.00  0.00    -0.360 OA
HETATM   25  H22 UNK     1      33.101  -6.993  28.807  1.00  0.00     0.217 HD
ENDBRANCH  19  24
BRANCH  21  26
HETATM   26  O4  UNK     1      30.318 -10.360  26.827  1.00  0.00    -0.361 OA
HETATM   27  H24 UNK     1      29.434 -10.342  26.423  1.00  0.00     0.217 HD
ENDBRANCH  21  26
ENDBRANCH   4  18
BRANCH  17  28
HETATM   28  O3  UNK     1      35.020  -7.746  34.996  1.00  0.00    -0.361 OA
HETATM   29  H23 UNK     1      35.046  -7.651  35.963  1.00  0.00     0.217 HD
ENDBRANCH  17  28
TORSDOF 4
ENDMDL
MODEL 6
REMARK VINA RESULT:      -7.9     20.833     24.239
REMARK  4 active torsions:
REMARK  status: ('A' for Active; 'I' for Inactive)
REMARK    1  A    between atoms: C16_20  and  O2_2 
REMARK    2  A    between atoms: C19_23  and  O3_3 
REMARK    3  A    between atoms: C22_26  and  O4_4 
REMARK    4  A    between atoms: C12_16  and  C3_7 
ROOT
HETATM    1  O1  UNK     1      29.030  -9.153  35.902  1.00  0.00    -0.334 OA
HETATM    2  C1  UNK     1      30.586  -6.968  37.171  1.00  0.00    -0.004 C 
HETATM    3  C2  UNK     1      31.208  -8.005  36.204  1.00  0.00     0.039 C 
HETATM    4  C3  UNK     1      30.187  -8.630  35.225  1.00  0.00     0.102 C 
HETATM    5  C4  UNK     1      31.855  -9.223  36.910  1.00  0.00     0.009 C 
HETATM    6  C5  UNK     1      30.269  -5.639  36.442  1.00  0.00     0.015 C 
HETATM    7  C6  UNK     1      31.636  -6.514  38.219  1.00  0.00     0.015 C 
HETATM    8  C7  UNK     1      30.965  -9.871  34.737  1.00  0.00     0.044 C 
HETATM    9  C8  UNK     1      31.627 -10.424  35.995  1.00  0.00     0.004 C 
HETATM   10  C9  UNK     1      29.308  -7.562  37.756  1.00  0.00    -0.015 A 
HETATM   11  C10 UNK     1      30.333  -4.560  37.513  1.00  0.00     0.001 C 
HETATM   12  C11 UNK     1      31.431  -5.015  38.463  1.00  0.00     0.001 C 
HETATM   13  C13 UNK     1      28.624  -8.579  37.075  1.00  0.00     0.080 A 
HETATM   14  C14 UNK     1      28.768  -7.124  38.979  1.00  0.00     0.013 A 
HETATM   15  C15 UNK     1      27.443  -9.126  37.597  1.00  0.00     0.073 A 
HETATM   16  C18 UNK     1      27.591  -7.668  39.498  1.00  0.00     0.037 A 
HETATM   17  C19 UNK     1      26.926  -8.670  38.804  1.00  0.00     0.068 A 
ENDROOT
BRANCH   4  18
HETATM   18  C12 UNK     1      29.776  -7.774  34.027  1.00  0.00     0.010 A 
HETATM   19  C16 UNK     1      30.739  -7.181  33.204  1.00  0.00     0.077 A 
HETATM   20  C20 UNK     1      30.348  -6.404  32.115  1.00  0.00     0.073 A 
HETATM   21  C22 UNK     1      28.993  -6.216  31.843  1.00  0.00     0.068 A 
HETATM   22  C21 UNK     1      28.029  -6.805  32.661  1.00  0.00     0.037 A 
HETATM   23  C17 UNK     1      28.421  -7.583  33.751  1.00  0.00     0.016 A 
BRANCH  19  24
HETATM   24  O2  UNK     1      32.067  -7.357  33.455  1.00  0.00    -0.360 OA
HETATM   25  H22 UNK     1      32.170  -7.994  34.184  1.00  0.00     0.217 HD
ENDBRANCH  19  24
BRANCH  21  26
HETATM   26  O4  UNK     1      28.611  -5.456  30.781  1.00  0.00    -0.361 OA
HETATM   27  H24 UNK     1      29.333  -4.845  30.553  1.00  0.00     0.217 HD
ENDBRANCH  21  26
ENDBRANCH   4  18
BRANCH  17  28
HETATM   28  O3  UNK     1      25.779  -9.205  39.304  1.00  0.00    -0.361 OA
HETATM   29  H23 UNK     1      25.750  -9.050  40.263  1.00  0.00     0.217 HD
ENDBRANCH  17  28
TORSDOF 4
ENDMDL
MODEL 7
REMARK VINA RESULT:      -7.9     18.406     21.731
REMARK  4 active torsions:
REMARK  status: ('A' for Active; 'I' for Inactive)
REMARK    1  A    between atoms: C16_20  and  O2_2 
REMARK    2  A    between atoms: C19_23  and  O3_3 
REMARK    3  A    between atoms: C22_26  and  O4_4 
REMARK    4  A    between atoms: C12_16  and  C3_7 
ROOT
HETATM    1  O1  UNK     1      31.568  -8.543  32.944  1.00  0.00    -0.334 OA
HETATM    2  C1  UNK     1      28.925  -8.271  31.621  1.00  0.00    -0.004 C 
HETATM    3  C2  UNK     1      29.213  -9.295  32.745  1.00  0.00     0.039 C 
HETATM    4  C3  UNK     1      30.377  -8.883  33.676  1.00  0.00     0.102 C 
HETATM    5  C4  UNK     1      29.611 -10.704  32.237  1.00  0.00     0.009 C 
HETATM    6  C5  UNK     1      28.215  -7.012  32.174  1.00  0.00     0.015 C 
HETATM    7  C6  UNK     1      27.861  -8.833  30.642  1.00  0.00     0.015 C 
HETATM    8  C7  UNK     1      30.697 -10.229  34.364  1.00  0.00     0.044 C 
HETATM    9  C8  UNK     1      30.617 -11.258  33.242  1.00  0.00     0.004 C 
HETATM   10  C9  UNK     1      30.252  -7.883  30.974  1.00  0.00    -0.015 A 
HETATM   11  C10 UNK     1      27.411  -6.451  31.010  1.00  0.00     0.001 C 
HETATM   12  C11 UNK     1      26.952  -7.672  30.227  1.00  0.00     0.001 C 
HETATM   13  C13 UNK     1      31.454  -8.024  31.684  1.00  0.00     0.080 A 
HETATM   14  C14 UNK     1      30.329  -7.374  29.664  1.00  0.00     0.013 A 
HETATM   15  C15 UNK     1      32.678  -7.661  31.104  1.00  0.00     0.073 A 
HETATM   16  C18 UNK     1      31.549  -7.011  29.089  1.00  0.00     0.037 A 
HETATM   17  C19 UNK     1      32.725  -7.153  29.812  1.00  0.00     0.068 A 
ENDROOT
BRANCH   4  18
HETATM   18  C12 UNK     1      30.066  -7.824  34.734  1.00  0.00     0.010 A 
HETATM   19  C16 UNK     1      31.063  -6.963  35.203  1.00  0.00     0.077 A 
HETATM   20  C20 UNK     1      30.762  -6.003  36.168  1.00  0.00     0.073 A 
HETATM   21  C22 UNK     1      29.464  -5.899  36.668  1.00  0.00     0.068 A 
HETATM   22  C21 UNK     1      28.466  -6.755  36.202  1.00  0.00     0.037 A 
HETATM   23  C17 UNK     1      28.768  -7.717  35.237  1.00  0.00     0.016 A 
BRANCH  19  24
HETATM   24  O2  UNK     1      32.335  -7.051  34.723  1.00  0.00    -0.360 OA
HETATM   25  H22 UNK     1      32.391  -6.566  33.882  1.00  0.00     0.217 HD
ENDBRANCH  19  24
BRANCH  21  26
HETATM   26  O4  UNK     1      29.171  -4.962  37.610  1.00  0.00    -0.361 OA
HETATM   27  H24 UNK     1      28.366  -5.233  38.085  1.00  0.00     0.217 HD
ENDBRANCH  21  26
ENDBRANCH   4  18
BRANCH  17  28
HETATM   28  O3  UNK     1      33.917  -6.803  29.257  1.00  0.00    -0.361 OA
HETATM   29  H23 UNK     1      33.995  -5.833  29.262  1.00  0.00     0.217 HD
ENDBRANCH  17  28
TORSDOF 4
ENDMDL
MODEL 8
REMARK VINA RESULT:      -7.9     22.100     24.710
REMARK  4 active torsions:
REMARK  status: ('A' for Active; 'I' for Inactive)
REMARK    1  A    between atoms: C16_20  and  O2_2 
REMARK    2  A    between atoms: C19_23  and  O3_3 
REMARK    3  A    between atoms: C22_26  and  O4_4 
REMARK    4  A    between atoms: C12_16  and  C3_7 
ROOT
HETATM    1  O1  UNK     1      27.951  -7.662  39.287  1.00  0.00    -0.334 OA
HETATM    2  C1  UNK     1      28.957  -7.668  36.495  1.00  0.00    -0.004 C 
HETATM    3  C2  UNK     1      28.736  -8.957  37.323  1.00  0.00     0.039 C 
HETATM    4  C3  UNK     1      27.686  -8.799  38.447  1.00  0.00     0.102 C 
HETATM    5  C4  UNK     1      30.003  -9.469  38.053  1.00  0.00     0.009 C 
HETATM    6  C5  UNK     1      27.772  -7.405  35.535  1.00  0.00     0.015 C 
HETATM    7  C6  UNK     1      30.134  -7.862  35.503  1.00  0.00     0.015 C 
HETATM    8  C7  UNK     1      28.003 -10.031  39.324  1.00  0.00     0.044 C 
HETATM    9  C8  UNK     1      29.527 -10.086  39.365  1.00  0.00     0.004 C 
HETATM   10  C9  UNK     1      29.117  -6.498  37.462  1.00  0.00    -0.015 A 
HETATM   11  C10 UNK     1      28.353  -6.609  34.375  1.00  0.00     0.001 C 
HETATM   12  C11 UNK     1      29.764  -7.148  34.198  1.00  0.00     0.001 C 
HETATM   13  C13 UNK     1      28.588  -6.573  38.759  1.00  0.00     0.080 A 
HETATM   14  C14 UNK     1      29.787  -5.313  37.103  1.00  0.00     0.013 A 
HETATM   15  C15 UNK     1      28.720  -5.501  39.653  1.00  0.00     0.073 A 
HETATM   16  C18 UNK     1      29.916  -4.245  37.994  1.00  0.00     0.037 A 
HETATM   17  C19 UNK     1      29.379  -4.339  39.271  1.00  0.00     0.068 A 
ENDROOT
BRANCH   4  18
HETATM   18  C12 UNK     1      26.218  -8.833  38.021  1.00  0.00     0.010 A 
HETATM   19  C16 UNK     1      25.783  -9.696  37.011  1.00  0.00     0.077 A 
HETATM   20  C20 UNK     1      24.440  -9.714  36.635  1.00  0.00     0.073 A 
HETATM   21  C22 UNK     1      23.528  -8.870  37.267  1.00  0.00     0.068 A 
HETATM   22  C21 UNK     1      23.957  -8.008  38.275  1.00  0.00     0.037 A 
HETATM   23  C17 UNK     1      25.301  -7.989  38.651  1.00  0.00     0.016 A 
BRANCH  19  24
HETATM   24  O2  UNK     1      26.662 -10.528  36.386  1.00  0.00    -0.360 OA
HETATM   25  H22 UNK     1      26.897 -10.149  35.521  1.00  0.00     0.217 HD
ENDBRANCH  19  24
BRANCH  21  26
HETATM   26  O4  UNK     1      22.218  -8.887  36.899  1.00  0.00    -0.361 OA
HETATM   27  H24 UNK     1      21.667  -8.970  37.696  1.00  0.00     0.217 HD
ENDBRANCH  21  26
ENDBRANCH   4  18
BRANCH  17  28
HETATM   28  O3  UNK     1      29.502  -3.302  40.144  1.00  0.00    -0.361 OA
HETATM   29  H23 UNK     1      29.348  -2.469  39.668  1.00  0.00     0.217 HD
ENDBRANCH  17  28
TORSDOF 4
ENDMDL
MODEL 9
REMARK VINA RESULT:      -7.9     18.931     22.436
REMARK  4 active torsions:
REMARK  status: ('A' for Active; 'I' for Inactive)
REMARK    1  A    between atoms: C16_20  and  O2_2 
REMARK    2  A    between atoms: C19_23  and  O3_3 
REMARK    3  A    between atoms: C22_26  and  O4_4 
REMARK    4  A    between atoms: C12_16  and  C3_7 
ROOT
HETATM    1  O1  UNK     1      28.914  -6.536  33.750  1.00  0.00    -0.334 OA
HETATM    2  C1  UNK     1      30.336  -8.955  32.783  1.00  0.00    -0.004 C 
HETATM    3  C2  UNK     1      31.000  -7.876  33.673  1.00  0.00     0.039 C 
HETATM    4  C3  UNK     1      29.993  -7.077  34.533  1.00  0.00     0.102 C 
HETATM    5  C4  UNK     1      31.776  -6.791  32.886  1.00  0.00     0.009 C 
HETATM    6  C5  UNK     1      29.879 -10.173  33.621  1.00  0.00     0.015 C 
HETATM    7  C6  UNK     1      31.388  -9.594  31.840  1.00  0.00     0.015 C 
HETATM    8  C7  UNK     1      30.851  -5.857  34.937  1.00  0.00     0.044 C 
HETATM    9  C8  UNK     1      31.610  -5.489  33.666  1.00  0.00     0.004 C 
HETATM   10  C9  UNK     1      29.138  -8.324  32.078  1.00  0.00    -0.015 A 
HETATM   11  C10 UNK     1      29.899 -11.358  32.666  1.00  0.00     0.001 C 
HETATM   12  C11 UNK     1      31.070 -11.089  31.733  1.00  0.00     0.001 C 
HETATM   13  C13 UNK     1      28.512  -7.192  32.620  1.00  0.00     0.080 A 
HETATM   14  C14 UNK     1      28.617  -8.841  30.877  1.00  0.00     0.013 A 
HETATM   15  C15 UNK     1      27.405  -6.610  31.987  1.00  0.00     0.073 A 
HETATM   16  C18 UNK     1      27.512  -8.261  30.249  1.00  0.00     0.037 A 
HETATM   17  C19 UNK     1      26.904  -7.145  30.806  1.00  0.00     0.068 A 
ENDROOT
BRANCH   4  18
HETATM   18  C12 UNK     1      29.462  -7.771  35.787  1.00  0.00     0.010 A 
HETATM   19  C16 UNK     1      28.215  -7.432  36.322  1.00  0.00     0.077 A 
HETATM   20  C20 UNK     1      27.745  -8.075  37.467  1.00  0.00     0.073 A 
HETATM   21  C22 UNK     1      28.519  -9.059  38.081  1.00  0.00     0.068 A 
HETATM   22  C21 UNK     1      29.763  -9.401  37.551  1.00  0.00     0.037 A 
HETATM   23  C17 UNK     1      30.234  -8.757  36.406  1.00  0.00     0.016 A 
BRANCH  19  24
HETATM   24  O2  UNK     1      27.447  -6.474  35.732  1.00  0.00    -0.360 OA
HETATM   25  H22 UNK     1      26.704  -6.256  36.321  1.00  0.00     0.217 HD
ENDBRANCH  19  24
BRANCH  21  26
HETATM   26  O4  UNK     1      28.061  -9.685  39.199  1.00  0.00    -0.361 OA
HETATM   27  H24 UNK     1      28.777  -9.722  39.857  1.00  0.00     0.217 HD
ENDBRANCH  21  26
ENDBRANCH   4  18
BRANCH  17  28
HETATM   28  O3  UNK     1      25.828  -6.575  30.198  1.00  0.00    -0.361 OA
HETATM   29  H23 UNK     1      25.956  -6.608  29.235  1.00  0.00     0.217 HD
ENDBRANCH  17  28
TORSDOF 4
ENDMDL
MODEL 10
REMARK VINA RESULT:      -7.9     20.258     23.726
REMARK  4 active torsions:
REMARK  status: ('A' for Active; 'I' for Inactive)
REMARK    1  A    between atoms: C16_20  and  O2_2 
REMARK    2  A    between atoms: C19_23  and  O3_3 
REMARK    3  A    between atoms: C22_26  and  O4_4 
REMARK    4  A    between atoms: C12_16  and  C3_7 
ROOT
HETATM    1  O1  UNK     1      29.701  -5.851  34.938  1.00  0.00    -0.334 OA
HETATM    2  C1  UNK     1      31.948  -7.781  34.754  1.00  0.00    -0.004 C 
HETATM    3  C2  UNK     1      31.725  -6.848  35.968  1.00  0.00     0.039 C 
HETATM    4  C3  UNK     1      30.255  -6.402  36.146  1.00  0.00     0.102 C 
HETATM    5  C4  UNK     1      32.521  -5.520  35.904  1.00  0.00     0.009 C 
HETATM    6  C5  UNK     1      31.409  -9.205  35.032  1.00  0.00     0.015 C 
HETATM    7  C6  UNK     1      33.462  -8.047  34.552  1.00  0.00     0.015 C 
HETATM    8  C7  UNK     1      30.423  -5.197  37.099  1.00  0.00     0.044 C 
HETATM    9  C8  UNK     1      31.645  -4.458  36.564  1.00  0.00     0.004 C 
HETATM   10  C9  UNK     1      31.234  -7.177  33.547  1.00  0.00    -0.015 A 
HETATM   11  C10 UNK     1      32.238 -10.135  34.157  1.00  0.00     0.001 C 
HETATM   12  C11 UNK     1      33.625  -9.510  34.127  1.00  0.00     0.001 C 
HETATM   13  C13 UNK     1      30.164  -6.289  33.729  1.00  0.00     0.080 A 
HETATM   14  C14 UNK     1      31.608  -7.481  32.225  1.00  0.00     0.013 A 
HETATM   15  C15 UNK     1      29.494  -5.736  32.628  1.00  0.00     0.073 A 
HETATM   16  C18 UNK     1      30.939  -6.931  31.129  1.00  0.00     0.037 A 
HETATM   17  C19 UNK     1      29.878  -6.059  31.331  1.00  0.00     0.068 A 
ENDROOT
BRANCH   4  18
HETATM   18  C12 UNK     1      29.301  -7.422  36.768  1.00  0.00     0.010 A 
HETATM   19  C16 UNK     1      27.935  -7.405  36.468  1.00  0.00     0.077 A 
HETATM   20  C20 UNK     1      27.079  -8.342  37.044  1.00  0.00     0.073 A 
HETATM   21  C22 UNK     1      27.584  -9.301  37.922  1.00  0.00     0.068 A 
HETATM   22  C21 UNK     1      28.945  -9.322  38.224  1.00  0.00     0.037 A 
HETATM   23  C17 UNK     1      29.802  -8.384  37.648  1.00  0.00     0.016 A 
BRANCH  19  24
HETATM   24  O2  UNK     1      27.427  -6.476  35.611  1.00  0.00    -0.360 OA
HETATM   25  H22 UNK     1      27.864  -6.569  34.747  1.00  0.00     0.217 HD
ENDBRANCH  19  24
BRANCH  21  26
HETATM   26  O4  UNK     1      26.748 -10.215  38.485  1.00  0.00    -0.361 OA
HETATM   27  H24 UNK     1      26.008 -10.383  37.878  1.00  0.00     0.217 HD
ENDBRANCH  21  26
ENDBRANCH   4  18
BRANCH  17  28
HETATM   28  O3  UNK     1      29.222  -5.518  30.269  1.00  0.00    -0.361 OA
HETATM   29  H23 UNK     1      28.720  -6.219  29.818  1.00  0.00     0.217 HD
ENDBRANCH  17  28
TORSDOF 4
ENDMDL
