MODEL 1
REMARK VINA RESULT:      -8.8      0.000      0.000
REMARK  3 active torsions:
REMARK  status: ('A' for Active; 'I' for Inactive)
REMARK    1  A    between atoms: C10_14  and  O3_3 
REMARK    2  A    between atoms: C13_17  and  O4_4 
REMARK    3  A    between atoms: C3_7  and  C4_8 
ROOT
HETATM    1  O1  UNK     1      18.806  -0.289  32.855  1.00  0.00    -0.309 OA
HETATM    2  O2  UNK     1      18.900   2.853  30.262  1.00  0.00    -0.287 OA
HETATM    3  C1  UNK     1      19.427   0.587  30.676  1.00  0.00     0.048 A 
HETATM    4  C2  UNK     1      19.364  -0.445  31.611  1.00  0.00     0.093 A 
HETATM    5  C3  UNK     1      18.276   0.948  33.190  1.00  0.00     0.090 A 
HETATM    6  C5  UNK     1      18.875   1.902  31.032  1.00  0.00     0.187 A 
HETATM    7  C6  UNK     1      18.283   2.018  32.380  1.00  0.00     0.093 A 
HETATM    8  C7  UNK     1      20.009   0.371  29.424  1.00  0.00     0.021 A 
HETATM    9  C8  UNK     1      19.884  -1.701  31.299  1.00  0.00     0.074 A 
HETATM   10  C10 UNK     1      20.464  -1.921  30.051  1.00  0.00     0.068 A 
HETATM   11  C12 UNK     1      20.527  -0.888  29.115  1.00  0.00     0.037 A 
ENDROOT
BRANCH   5  12
HETATM   12  C4  UNK     1      17.707   1.007  34.552  1.00  0.00     0.001 A 
HETATM   13  C11 UNK     1      16.452   0.451  34.813  1.00  0.00     0.014 A 
HETATM   14  C14 UNK     1      15.915   0.505  36.099  1.00  0.00     0.004 A 
HETATM   15  C15 UNK     1      16.631   1.117  37.128  1.00  0.00     0.036 A 
HETATM   16  C13 UNK     1      17.883   1.673  36.871  1.00  0.00     0.066 A 
HETATM   17  C9  UNK     1      18.421   1.618  35.585  1.00  0.00     0.050 A 
BRANCH  16  18
HETATM   18  O4  UNK     1      18.582   2.268  37.878  1.00  0.00    -0.361 OA
HETATM   19  H10 UNK     1      19.144   2.966  37.501  1.00  0.00     0.217 HD
ENDBRANCH  16  18
ENDBRANCH   5  12
BRANCH  10  20
HETATM   20  O3  UNK     1      20.971  -3.147  29.743  1.00  0.00    -0.361 OA
HETATM   21  H9  UNK     1      20.579  -3.450  28.907  1.00  0.00     0.217 HD
ENDBRANCH  10  20
TORSDOF 3
ENDMDL
MODEL 2
REMARK VINA RESULT:      -8.6      2.305      6.859
REMARK  3 active torsions:
REMARK  status: ('A' for Active; 'I' for Inactive)
REMARK    1  A    between atoms: C10_14  and  O3_3 
REMARK    2  A    between atoms: C13_17  and  O4_4 
REMARK    3  A    between atoms: C3_7  and  C4_8 
ROOT
HETATM    1  O1  UNK     1      18.845  -0.593  33.715  1.00  0.00    -0.309 OA
HETATM    2  O2  UNK     1      20.572  -3.727  35.665  1.00  0.00    -0.287 OA
HETATM    3  C1  UNK     1      19.164  -1.832  35.781  1.00  0.00     0.048 A 
HETATM    4  C2  UNK     1      18.607  -0.781  35.054  1.00  0.00     0.093 A 
HETATM    5  C3  UNK     1      19.669  -1.495  33.059  1.00  0.00     0.090 A 
HETATM    6  C5  UNK     1      20.046  -2.784  35.089  1.00  0.00     0.187 A 
HETATM    7  C6  UNK     1      20.268  -2.541  33.649  1.00  0.00     0.093 A 
HETATM    8  C7  UNK     1      18.888  -1.973  37.143  1.00  0.00     0.021 A 
HETATM    9  C8  UNK     1      17.769   0.137  35.687  1.00  0.00     0.074 A 
HETATM   10  C10 UNK     1      17.491  -0.000  37.047  1.00  0.00     0.068 A 
HETATM   11  C12 UNK     1      18.048  -1.054  37.773  1.00  0.00     0.037 A 
ENDROOT
BRANCH   5  12
HETATM   12  C4  UNK     1      19.861  -1.196  31.625  1.00  0.00     0.001 A 
HETATM   13  C11 UNK     1      20.318  -2.190  30.757  1.00  0.00     0.014 A 
HETATM   14  C14 UNK     1      20.498  -1.909  29.403  1.00  0.00     0.004 A 
HETATM   15  C15 UNK     1      20.223  -0.633  28.913  1.00  0.00     0.036 A 
HETATM   16  C13 UNK     1      19.767   0.362  29.776  1.00  0.00     0.066 A 
HETATM   17  C9  UNK     1      19.585   0.081  31.131  1.00  0.00     0.050 A 
BRANCH  16  18
HETATM   18  O4  UNK     1      19.495   1.607  29.296  1.00  0.00    -0.361 OA
HETATM   19  H10 UNK     1      19.540   1.587  28.325  1.00  0.00     0.217 HD
ENDBRANCH  16  18
ENDBRANCH   5  12
BRANCH  10  20
HETATM   20  O3  UNK     1      16.672   0.894  37.667  1.00  0.00    -0.361 OA
HETATM   21  H9  UNK     1      16.667   1.722  37.158  1.00  0.00     0.217 HD
ENDBRANCH  10  20
TORSDOF 3
ENDMDL
MODEL 3
REMARK VINA RESULT:      -8.5      1.037      1.511
REMARK  3 active torsions:
REMARK  status: ('A' for Active; 'I' for Inactive)
REMARK    1  A    between atoms: C10_14  and  O3_3 
REMARK    2  A    between atoms: C13_17  and  O4_4 
REMARK    3  A    between atoms: C3_7  and  C4_8 
ROOT
HETATM    1  O1  UNK     1      18.893  -0.227  32.928  1.00  0.00    -0.309 OA
HETATM    2  O2  UNK     1      18.887   2.805  30.206  1.00  0.00    -0.287 OA
HETATM    3  C1  UNK     1      19.436   0.559  30.694  1.00  0.00     0.048 A 
HETATM    4  C2  UNK     1      19.409  -0.433  31.673  1.00  0.00     0.093 A 
HETATM    5  C3  UNK     1      18.370   1.022  33.229  1.00  0.00     0.090 A 
HETATM    6  C5  UNK     1      18.892   1.887  31.015  1.00  0.00     0.187 A 
HETATM    7  C6  UNK     1      18.346   2.058  32.376  1.00  0.00     0.093 A 
HETATM    8  C7  UNK     1      19.975   0.294  29.433  1.00  0.00     0.021 A 
HETATM    9  C8  UNK     1      19.922  -1.700  31.395  1.00  0.00     0.074 A 
HETATM   10  C10 UNK     1      20.460  -1.970  30.137  1.00  0.00     0.068 A 
HETATM   11  C12 UNK     1      20.487  -0.976  29.158  1.00  0.00     0.037 A 
ENDROOT
BRANCH   5  12
HETATM   12  C4  UNK     1      17.848   1.136  34.606  1.00  0.00     0.001 A 
HETATM   13  C11 UNK     1      18.679   1.582  35.637  1.00  0.00     0.014 A 
HETATM   14  C14 UNK     1      18.186   1.692  36.937  1.00  0.00     0.004 A 
HETATM   15  C15 UNK     1      16.860   1.355  37.211  1.00  0.00     0.036 A 
HETATM   16  C13 UNK     1      16.028   0.910  36.185  1.00  0.00     0.066 A 
HETATM   17  C9  UNK     1      16.521   0.801  34.884  1.00  0.00     0.050 A 
BRANCH  16  18
HETATM   18  O4  UNK     1      14.733   0.584  36.453  1.00  0.00    -0.361 OA
HETATM   19  H10 UNK     1      14.480  -0.176  35.901  1.00  0.00     0.217 HD
ENDBRANCH  16  18
ENDBRANCH   5  12
BRANCH  10  20
HETATM   20  O3  UNK     1      20.960  -3.207  29.864  1.00  0.00    -0.361 OA
HETATM   21  H9  UNK     1      20.851  -3.388  28.915  1.00  0.00     0.217 HD
ENDBRANCH  10  20
TORSDOF 3
ENDMDL
MODEL 4
REMARK VINA RESULT:      -8.2      1.690      6.303
REMARK  3 active torsions:
REMARK  status: ('A' for Active; 'I' for Inactive)
REMARK    1  A    between atoms: C10_14  and  O3_3 
REMARK    2  A    between atoms: C13_17  and  O4_4 
REMARK    3  A    between atoms: C3_7  and  C4_8 
ROOT
HETATM    1  O1  UNK     1      18.889  -0.589  33.709  1.00  0.00    -0.309 OA
HETATM    2  O2  UNK     1      17.860   3.274  34.498  1.00  0.00    -0.287 OA
HETATM    3  C1  UNK     1      18.122   1.070  35.310  1.00  0.00     0.048 A 
HETATM    4  C2  UNK     1      18.486  -0.232  34.972  1.00  0.00     0.093 A 
HETATM    5  C3  UNK     1      18.943   0.393  32.732  1.00  0.00     0.090 A 
HETATM    6  C5  UNK     1      18.169   2.111  34.273  1.00  0.00     0.187 A 
HETATM    7  C6  UNK     1      18.612   1.679  32.932  1.00  0.00     0.093 A 
HETATM    8  C7  UNK     1      17.718   1.375  36.611  1.00  0.00     0.021 A 
HETATM    9  C8  UNK     1      18.447  -1.240  35.936  1.00  0.00     0.074 A 
HETATM   10  C10 UNK     1      18.045  -0.939  37.237  1.00  0.00     0.068 A 
HETATM   11  C12 UNK     1      17.682   0.366  37.575  1.00  0.00     0.037 A 
ENDROOT
BRANCH   5  12
HETATM   12  C4  UNK     1      19.384  -0.099  31.411  1.00  0.00     0.001 A 
HETATM   13  C11 UNK     1      19.266   0.716  30.283  1.00  0.00     0.014 A 
HETATM   14  C14 UNK     1      19.683   0.252  29.036  1.00  0.00     0.004 A 
HETATM   15  C15 UNK     1      20.219  -1.030  28.912  1.00  0.00     0.036 A 
HETATM   16  C13 UNK     1      20.339  -1.847  30.036  1.00  0.00     0.066 A 
HETATM   17  C9  UNK     1      19.922  -1.382  31.284  1.00  0.00     0.050 A 
BRANCH  16  18
HETATM   18  O4  UNK     1      20.865  -3.097  29.915  1.00  0.00    -0.361 OA
HETATM   19  H10 UNK     1      20.613  -3.621  30.694  1.00  0.00     0.217 HD
ENDBRANCH  16  18
ENDBRANCH   5  12
BRANCH  10  20
HETATM   20  O3  UNK     1      18.008  -1.920  38.181  1.00  0.00    -0.361 OA
HETATM   21  H9  UNK     1      17.556  -1.580  38.971  1.00  0.00     0.217 HD
ENDBRANCH  10  20
TORSDOF 3
ENDMDL
MODEL 5
REMARK VINA RESULT:      -8.2      1.880      3.111
REMARK  3 active torsions:
REMARK  status: ('A' for Active; 'I' for Inactive)
REMARK    1  A    between atoms: C10_14  and  O3_3 
REMARK    2  A    between atoms: C13_17  and  O4_4 
REMARK    3  A    between atoms: C3_7  and  C4_8 
ROOT
HETATM    1  O1  UNK     1      18.648   0.115  32.902  1.00  0.00    -0.309 OA
HETATM    2  O2  UNK     1      20.742  -3.341  33.424  1.00  0.00    -0.287 OA
HETATM    3  C1  UNK     1      20.012  -1.651  31.942  1.00  0.00     0.048 A 
HETATM    4  C2  UNK     1      19.278  -0.471  31.833  1.00  0.00     0.093 A 
HETATM    5  C3  UNK     1      18.754  -0.492  34.145  1.00  0.00     0.090 A 
HETATM    6  C5  UNK     1      20.118  -2.302  33.257  1.00  0.00     0.187 A 
HETATM    7  C6  UNK     1      19.426  -1.631  34.375  1.00  0.00     0.093 A 
HETATM    8  C7  UNK     1      20.632  -2.204  30.820  1.00  0.00     0.021 A 
HETATM    9  C8  UNK     1      19.160   0.164  30.597  1.00  0.00     0.074 A 
HETATM   10  C10 UNK     1      19.778  -0.384  29.473  1.00  0.00     0.068 A 
HETATM   11  C12 UNK     1      20.513  -1.565  29.584  1.00  0.00     0.037 A 
ENDROOT
BRANCH   5  12
HETATM   12  C4  UNK     1      18.034   0.218  35.221  1.00  0.00     0.001 A 
HETATM   13  C11 UNK     1      18.740   0.995  36.144  1.00  0.00     0.014 A 
HETATM   14  C14 UNK     1      18.060   1.666  37.160  1.00  0.00     0.004 A 
HETATM   15  C15 UNK     1      16.672   1.563  37.257  1.00  0.00     0.036 A 
HETATM   16  C13 UNK     1      15.965   0.789  36.338  1.00  0.00     0.066 A 
HETATM   17  C9  UNK     1      16.644   0.118  35.321  1.00  0.00     0.050 A 
BRANCH  16  18
HETATM   18  O4  UNK     1      14.610   0.691  36.433  1.00  0.00    -0.361 OA
HETATM   19  H10 UNK     1      14.365  -0.248  36.482  1.00  0.00     0.217 HD
ENDBRANCH  16  18
ENDBRANCH   5  12
BRANCH  10  20
HETATM   20  O3  UNK     1      19.665   0.235  28.266  1.00  0.00    -0.361 OA
HETATM   21  H9  UNK     1      20.301  -0.161  27.648  1.00  0.00     0.217 HD
ENDBRANCH  10  20
TORSDOF 3
ENDMDL
MODEL 6
REMARK VINA RESULT:      -8.2      3.275      5.081
REMARK  3 active torsions:
REMARK  status: ('A' for Active; 'I' for Inactive)
REMARK    1  A    between atoms: C10_14  and  O3_3 
REMARK    2  A    between atoms: C13_17  and  O4_4 
REMARK    3  A    between atoms: C3_7  and  C4_8 
ROOT
HETATM    1  O1  UNK     1      18.018   2.955  33.131  1.00  0.00    -0.309 OA
HETATM    2  O2  UNK     1      19.314   1.664  29.490  1.00  0.00    -0.287 OA
HETATM    3  C1  UNK     1      18.768   1.122  31.724  1.00  0.00     0.048 A 
HETATM    4  C2  UNK     1      18.322   1.630  32.943  1.00  0.00     0.093 A 
HETATM    5  C3  UNK     1      18.154   3.822  32.057  1.00  0.00     0.090 A 
HETATM    6  C5  UNK     1      18.923   2.041  30.587  1.00  0.00     0.187 A 
HETATM    7  C6  UNK     1      18.580   3.455  30.838  1.00  0.00     0.093 A 
HETATM    8  C7  UNK     1      19.065  -0.236  31.591  1.00  0.00     0.021 A 
HETATM    9  C8  UNK     1      18.169   0.780  34.039  1.00  0.00     0.074 A 
HETATM   10  C10 UNK     1      18.463  -0.577  33.910  1.00  0.00     0.068 A 
HETATM   11  C12 UNK     1      18.910  -1.085  32.689  1.00  0.00     0.037 A 
ENDROOT
BRANCH   5  12
HETATM   12  C4  UNK     1      17.806   5.223  32.370  1.00  0.00     0.001 A 
HETATM   13  C11 UNK     1      17.902   5.693  33.682  1.00  0.00     0.014 A 
HETATM   14  C14 UNK     1      17.575   7.017  33.977  1.00  0.00     0.004 A 
HETATM   15  C15 UNK     1      17.151   7.874  32.962  1.00  0.00     0.036 A 
HETATM   16  C13 UNK     1      17.054   7.408  31.651  1.00  0.00     0.066 A 
HETATM   17  C9  UNK     1      17.382   6.084  31.355  1.00  0.00     0.050 A 
BRANCH  16  18
HETATM   18  O4  UNK     1      16.642   8.246  30.660  1.00  0.00    -0.361 OA
HETATM   19  H10 UNK     1      17.337   8.298  29.982  1.00  0.00     0.217 HD
ENDBRANCH  16  18
ENDBRANCH   5  12
BRANCH  10  20
HETATM   20  O3  UNK     1      18.314  -1.409  34.978  1.00  0.00    -0.361 OA
HETATM   21  H9  UNK     1      17.880  -0.921  35.698  1.00  0.00     0.217 HD
ENDBRANCH  10  20
TORSDOF 3
ENDMDL
MODEL 7
REMARK VINA RESULT:      -8.2     23.340     26.278
REMARK  3 active torsions:
REMARK  status: ('A' for Active; 'I' for Inactive)
REMARK    1  A    between atoms: C10_14  and  O3_3 
REMARK    2  A    between atoms: C13_17  and  O4_4 
REMARK    3  A    between atoms: C3_7  and  C4_8 
ROOT
HETATM    1  O1  UNK     1      11.419   7.541   9.355  1.00  0.00    -0.309 OA
HETATM    2  O2  UNK     1      11.994   6.132   5.575  1.00  0.00    -0.287 OA
HETATM    3  C1  UNK     1      10.464   6.783   7.254  1.00  0.00     0.048 A 
HETATM    4  C2  UNK     1      10.338   7.265   8.556  1.00  0.00     0.093 A 
HETATM    5  C3  UNK     1      12.690   7.338   8.839  1.00  0.00     0.090 A 
HETATM    6  C5  UNK     1      11.810   6.557   6.708  1.00  0.00     0.187 A 
HETATM    7  C6  UNK     1      12.940   6.872   7.605  1.00  0.00     0.093 A 
HETATM    8  C7  UNK     1       9.328   6.518   6.486  1.00  0.00     0.021 A 
HETATM    9  C8  UNK     1       9.072   7.484   9.099  1.00  0.00     0.074 A 
HETATM   10  C10 UNK     1       7.935   7.222   8.335  1.00  0.00     0.068 A 
HETATM   11  C12 UNK     1       8.062   6.740   7.032  1.00  0.00     0.037 A 
ENDROOT
BRANCH   5  12
HETATM   12  C4  UNK     1      13.779   7.660   9.784  1.00  0.00     0.001 A 
HETATM   13  C11 UNK     1      13.564   8.578  10.815  1.00  0.00     0.014 A 
HETATM   14  C14 UNK     1      14.591   8.881  11.708  1.00  0.00     0.004 A 
HETATM   15  C15 UNK     1      15.837   8.268  11.573  1.00  0.00     0.036 A 
HETATM   16  C13 UNK     1      16.055   7.352  10.545  1.00  0.00     0.066 A 
HETATM   17  C9  UNK     1      15.027   7.047   9.652  1.00  0.00     0.050 A 
BRANCH  16  18
HETATM   18  O4  UNK     1      17.271   6.752  10.415  1.00  0.00    -0.361 OA
HETATM   19  H10 UNK     1      17.951   7.335  10.793  1.00  0.00     0.217 HD
ENDBRANCH  16  18
ENDBRANCH   5  12
BRANCH  10  20
HETATM   20  O3  UNK     1       6.698   7.437   8.863  1.00  0.00    -0.361 OA
HETATM   21  H9  UNK     1       6.497   6.727   9.494  1.00  0.00     0.217 HD
ENDBRANCH  10  20
TORSDOF 3
ENDMDL
MODEL 8
REMARK VINA RESULT:      -8.1      1.985      2.453
REMARK  3 active torsions:
REMARK  status: ('A' for Active; 'I' for Inactive)
REMARK    1  A    between atoms: C10_14  and  O3_3 
REMARK    2  A    between atoms: C13_17  and  O4_4 
REMARK    3  A    between atoms: C3_7  and  C4_8 
ROOT
HETATM    1  O1  UNK     1      18.857  -0.058  33.038  1.00  0.00    -0.309 OA
HETATM    2  O2  UNK     1      17.806   3.798  32.245  1.00  0.00    -0.287 OA
HETATM    3  C1  UNK     1      18.684   1.759  31.435  1.00  0.00     0.048 A 
HETATM    4  C2  UNK     1      19.024   0.451  31.774  1.00  0.00     0.093 A 
HETATM    5  C3  UNK     1      18.319   0.765  34.015  1.00  0.00     0.090 A 
HETATM    6  C5  UNK     1      18.122   2.637  32.472  1.00  0.00     0.187 A 
HETATM    7  C6  UNK     1      17.959   2.043  33.813  1.00  0.00     0.093 A 
HETATM    8  C7  UNK     1      18.879   2.224  30.132  1.00  0.00     0.021 A 
HETATM    9  C8  UNK     1      19.562  -0.402  30.810  1.00  0.00     0.074 A 
HETATM   10  C10 UNK     1      19.757   0.057  29.508  1.00  0.00     0.068 A 
HETATM   11  C12 UNK     1      19.415   1.368  29.169  1.00  0.00     0.037 A 
ENDROOT
BRANCH   5  12
HETATM   12  C4  UNK     1      18.188   0.120  35.337  1.00  0.00     0.001 A 
HETATM   13  C11 UNK     1      17.959   0.896  36.477  1.00  0.00     0.014 A 
HETATM   14  C14 UNK     1      17.834   0.287  37.725  1.00  0.00     0.004 A 
HETATM   15  C15 UNK     1      17.937  -1.100  37.838  1.00  0.00     0.036 A 
HETATM   16  C13 UNK     1      18.165  -1.877  36.703  1.00  0.00     0.066 A 
HETATM   17  C9  UNK     1      18.289  -1.268  35.454  1.00  0.00     0.050 A 
BRANCH  16  18
HETATM   18  O4  UNK     1      18.263  -3.231  36.815  1.00  0.00    -0.361 OA
HETATM   19  H10 UNK     1      18.865  -3.560  36.126  1.00  0.00     0.217 HD
ENDBRANCH  16  18
ENDBRANCH   5  12
BRANCH  10  20
HETATM   20  O3  UNK     1      20.280  -0.774  28.565  1.00  0.00    -0.361 OA
HETATM   21  H9  UNK     1      20.790  -0.246  27.928  1.00  0.00     0.217 HD
ENDBRANCH  10  20
TORSDOF 3
ENDMDL
MODEL 9
REMARK VINA RESULT:      -8.1     23.931     26.163
REMARK  3 active torsions:
REMARK  status: ('A' for Active; 'I' for Inactive)
REMARK    1  A    between atoms: C10_14  and  O3_3 
REMARK    2  A    between atoms: C13_17  and  O4_4 
REMARK    3  A    between atoms: C3_7  and  C4_8 
ROOT
HETATM    1  O1  UNK     1      13.337   7.496   8.536  1.00  0.00    -0.309 OA
HETATM    2  O2  UNK     1      15.420   4.198   9.711  1.00  0.00    -0.287 OA
HETATM    3  C1  UNK     1      15.331   6.554   9.553  1.00  0.00     0.048 A 
HETATM    4  C2  UNK     1      14.567   7.639   9.126  1.00  0.00     0.093 A 
HETATM    5  C3  UNK     1      12.831   6.216   8.365  1.00  0.00     0.090 A 
HETATM    6  C5  UNK     1      14.802   5.195   9.364  1.00  0.00     0.187 A 
HETATM    7  C6  UNK     1      13.473   5.095   8.728  1.00  0.00     0.093 A 
HETATM    8  C7  UNK     1      16.579   6.759  10.146  1.00  0.00     0.021 A 
HETATM    9  C8  UNK     1      15.048   8.938   9.291  1.00  0.00     0.074 A 
HETATM   10  C10 UNK     1      16.293   9.147   9.884  1.00  0.00     0.068 A 
HETATM   11  C12 UNK     1      17.057   8.060  10.311  1.00  0.00     0.037 A 
ENDROOT
BRANCH   5  12
HETATM   12  C4  UNK     1      11.505   6.178   7.716  1.00  0.00     0.001 A 
HETATM   13  C11 UNK     1      11.405   6.213   6.323  1.00  0.00     0.014 A 
HETATM   14  C14 UNK     1      10.153   6.175   5.709  1.00  0.00     0.004 A 
HETATM   15  C15 UNK     1       8.997   6.102   6.487  1.00  0.00     0.036 A 
HETATM   16  C13 UNK     1       9.093   6.065   7.877  1.00  0.00     0.066 A 
HETATM   17  C9  UNK     1      10.345   6.102   8.491  1.00  0.00     0.050 A 
BRANCH  16  18
HETATM   18  O4  UNK     1       7.964   5.990   8.635  1.00  0.00    -0.361 OA
HETATM   19  H10 UNK     1       8.151   6.358   9.515  1.00  0.00     0.217 HD
ENDBRANCH  16  18
ENDBRANCH   5  12
BRANCH  10  20
HETATM   20  O3  UNK     1      16.763  10.415  10.047  1.00  0.00    -0.361 OA
HETATM   21  H9  UNK     1      17.253  10.463  10.885  1.00  0.00     0.217 HD
ENDBRANCH  10  20
TORSDOF 3
ENDMDL
MODEL 10
REMARK VINA RESULT:      -8.1      1.861      3.128
REMARK  3 active torsions:
REMARK  status: ('A' for Active; 'I' for Inactive)
REMARK    1  A    between atoms: C10_14  and  O3_3 
REMARK    2  A    between atoms: C13_17  and  O4_4 
REMARK    3  A    between atoms: C3_7  and  C4_8 
ROOT
HETATM    1  O1  UNK     1      18.695   0.081  32.782  1.00  0.00    -0.309 OA
HETATM    2  O2  UNK     1      21.082  -3.105  31.914  1.00  0.00    -0.287 OA
HETATM    3  C1  UNK     1      19.990  -1.156  31.142  1.00  0.00     0.048 A 
HETATM    4  C2  UNK     1      19.169  -0.091  31.506  1.00  0.00     0.093 A 
HETATM    5  C3  UNK     1      19.057  -0.843  33.751  1.00  0.00     0.090 A 
HETATM    6  C5  UNK     1      20.368  -2.143  32.165  1.00  0.00     0.187 A 
HETATM    7  C6  UNK     1      19.835  -1.912  33.522  1.00  0.00     0.093 A 
HETATM    8  C7  UNK     1      20.442  -1.283  29.826  1.00  0.00     0.021 A 
HETATM    9  C8  UNK     1      18.794   0.857  30.554  1.00  0.00     0.074 A 
HETATM   10  C10 UNK     1      19.244   0.736  29.239  1.00  0.00     0.068 A 
HETATM   11  C12 UNK     1      20.066  -0.331  28.876  1.00  0.00     0.037 A 
ENDROOT
BRANCH   5  12
HETATM   12  C4  UNK     1      18.488  -0.566  35.085  1.00  0.00     0.001 A 
HETATM   13  C11 UNK     1      17.649   0.535  35.276  1.00  0.00     0.014 A 
HETATM   14  C14 UNK     1      17.111   0.796  36.536  1.00  0.00     0.004 A 
HETATM   15  C15 UNK     1      17.409  -0.044  37.609  1.00  0.00     0.036 A 
HETATM   16  C13 UNK     1      18.246  -1.143  37.423  1.00  0.00     0.066 A 
HETATM   17  C9  UNK     1      18.784  -1.405  36.162  1.00  0.00     0.050 A 
BRANCH  16  18
HETATM   18  O4  UNK     1      18.534  -1.964  38.471  1.00  0.00    -0.361 OA
HETATM   19  H10 UNK     1      18.701  -1.420  39.259  1.00  0.00     0.217 HD
ENDBRANCH  16  18
ENDBRANCH   5  12
BRANCH  10  20
HETATM   20  O3  UNK     1      18.880   1.661  28.309  1.00  0.00    -0.361 OA
HETATM   21  H9  UNK     1      17.926   1.827  28.386  1.00  0.00     0.217 HD
ENDBRANCH  10  20
TORSDOF 3
ENDMDL
